MODEL 1
REMARK VINA RESULT:      -8.8      0.000      0.000
REMARK  Name = 
REMARK  6 active torsions:
REMARK  status: ('A' for Active; 'I' for Inactive)
REMARK    1  A    between atoms: C_5  and  S_6
REMARK    2  A    between atoms: S_6  and  C_7
REMARK    3  A    between atoms: C_8  and  N_9
REMARK    4  A    between atoms: N_9  and  C_10
REMARK    5  A    between atoms: N_20  and  C_21
REMARK    6  A    between atoms: C_21  and  C_22
REMARK                            x       y       z     vdW  Elec       q    Type
REMARK                         _______ _______ _______ _____ _____    ______ ____
ROOT
ATOM      1  C   UNL     1      37.658   3.731  14.857  0.00  0.00    +0.000 C 
ATOM      2  C   UNL     1      36.376   4.174  14.730  0.00  0.00    +0.000 C 
ATOM      3  C   UNL     1      35.495   3.028  14.879  0.00  0.00    +0.000 C 
ATOM      4  O   UNL     1      34.235   3.087  14.815  0.00  0.00    +0.000 OA
ATOM      5  N   UNL     1      36.245   1.862  15.101  0.00  0.00    +0.000 N 
ATOM      6  C   UNL     1      37.621   2.292  15.090  0.00  0.00    +0.000 C 
ATOM      7  O   UNL     1      38.566   1.482  15.262  0.00  0.00    +0.000 OA
ENDROOT
BRANCH   1   8
ATOM      8  S   UNL     1      39.014   4.857  14.732  0.00  0.00    +0.000 S 
BRANCH   8  13
ATOM      9  C   UNL     1      40.833   6.536  20.231  0.00  0.00    +0.000 C 
ATOM     10  C   UNL     1      40.393   6.127  18.877  0.00  0.00    +0.000 A 
ATOM     11  C   UNL     1      39.228   5.414  18.712  0.00  0.00    +0.000 A 
ATOM     12  C   UNL     1      38.851   5.054  17.457  0.00  0.00    +0.000 A 
ATOM     13  C   UNL     1      39.613   5.386  16.314  0.00  0.00    +0.000 A 
ATOM     14  C   UNL     1      40.754   6.092  16.550  0.00  0.00    +0.000 A 
ATOM     15  C   UNL     1      41.161   6.468  17.791  0.00  0.00    +0.000 A 
ENDBRANCH   8  13
ENDBRANCH   1   8
BRANCH   2  16
ATOM     16  N   UNL     1      36.011   5.534  14.492  0.00  0.00    +0.000 NA
BRANCH  16  17
ATOM     17  C   UNL     1      35.563   5.958  13.208  0.00  0.00    +0.000 A 
ATOM     18  C   UNL     1      36.229   5.635  12.038  0.00  0.00    +0.000 A 
ATOM     19  C   UNL     1      35.776   6.056  10.802  0.00  0.00    +0.000 A 
ATOM     20  C   UNL     1      36.527   5.685   9.571  0.00  0.00    +0.000 C 
ATOM     21  C   UNL     1      34.635   6.813  10.761  0.00  0.00    +0.000 A 
ATOM     22  C   UNL     1      33.968   7.136  11.905  0.00  0.00    +0.000 A 
ATOM     23  C   UNL     1      34.432   6.708  13.143  0.00  0.00    +0.000 A 
ATOM     24  C   UNL     1      33.632   7.115  14.341  0.00  0.00    +0.000 C 
ENDBRANCH  16  17
ENDBRANCH   2  16
BRANCH   5  25
ATOM     25  C   UNL     1      35.767   0.528  15.298  0.00  0.00    +0.000 C 
BRANCH  25  26
ATOM     26  C   UNL     1      36.024   0.015  16.644  0.00  0.00    +0.000 A 
ATOM     27  C   UNL     1      35.495   0.617  17.754  0.00  0.00    +0.000 A 
ATOM     28  C   UNL     1      35.741   0.129  19.009  0.00  0.00    +0.000 A 
ATOM     29  C   UNL     1      36.540  -1.000  19.175  0.00  0.00    +0.000 A 
ATOM     30  C   UNL     1      37.082  -1.621  18.071  0.00  0.00    +0.000 A 
ATOM     31  C   UNL     1      36.812  -1.100  16.820  0.00  0.00    +0.000 A 
ENDBRANCH  25  26
ENDBRANCH   5  25
TORSDOF 6
ENDMDL
MODEL 2
REMARK VINA RESULT:      -8.3      1.454      2.375
REMARK  Name = 
REMARK  6 active torsions:
REMARK  status: ('A' for Active; 'I' for Inactive)
REMARK    1  A    between atoms: C_5  and  S_6
REMARK    2  A    between atoms: S_6  and  C_7
REMARK    3  A    between atoms: C_8  and  N_9
REMARK    4  A    between atoms: N_9  and  C_10
REMARK    5  A    between atoms: N_20  and  C_21
REMARK    6  A    between atoms: C_21  and  C_22
REMARK                            x       y       z     vdW  Elec       q    Type
REMARK                         _______ _______ _______ _____ _____    ______ ____
ROOT
ATOM      1  C   UNL     1      37.395   3.933  15.866  0.00  0.00    +0.000 C 
ATOM      2  C   UNL     1      36.656   3.672  14.752  0.00  0.00    +0.000 C 
ATOM      3  C   UNL     1      35.702   2.629  15.090  0.00  0.00    +0.000 C 
ATOM      4  O   UNL     1      34.858   2.149  14.282  0.00  0.00    +0.000 OA
ATOM      5  N   UNL     1      35.856   2.242  16.431  0.00  0.00    +0.000 N 
ATOM      6  C   UNL     1      36.929   3.061  16.937  0.00  0.00    +0.000 C 
ATOM      7  O   UNL     1      37.326   2.966  18.125  0.00  0.00    +0.000 OA
ENDROOT
BRANCH   1   8
ATOM      8  S   UNL     1      38.668   5.158  15.831  0.00  0.00    +0.000 S 
BRANCH   8  13
ATOM      9  C   UNL     1      38.844   8.500  20.848  0.00  0.00    +0.000 C 
ATOM     10  C   UNL     1      38.806   7.674  19.620  0.00  0.00    +0.000 A 
ATOM     11  C   UNL     1      38.089   8.094  18.523  0.00  0.00    +0.000 A 
ATOM     12  C   UNL     1      38.074   7.314  17.411  0.00  0.00    +0.000 A 
ATOM     13  C   UNL     1      38.768   6.084  17.339  0.00  0.00    +0.000 A 
ATOM     14  C   UNL     1      39.456   5.729  18.460  0.00  0.00    +0.000 A 
ATOM     15  C   UNL     1      39.493   6.486  19.589  0.00  0.00    +0.000 A 
ENDBRANCH   8  13
ENDBRANCH   1   8
BRANCH   2  16
ATOM     16  N   UNL     1      36.824   4.333  13.497  0.00  0.00    +0.000 NA
BRANCH  16  17
ATOM     17  C   UNL     1      35.953   5.389  13.104  0.00  0.00    +0.000 A 
ATOM     18  C   UNL     1      35.217   6.130  14.013  0.00  0.00    +0.000 A 
ATOM     19  C   UNL     1      34.378   7.152  13.609  0.00  0.00    +0.000 A 
ATOM     20  C   UNL     1      33.606   7.922  14.624  0.00  0.00    +0.000 C 
ATOM     21  C   UNL     1      34.290   7.418  12.269  0.00  0.00    +0.000 A 
ATOM     22  C   UNL     1      35.009   6.697  11.363  0.00  0.00    +0.000 A 
ATOM     23  C   UNL     1      35.850   5.672  11.778  0.00  0.00    +0.000 A 
ATOM     24  C   UNL     1      36.598   4.937  10.710  0.00  0.00    +0.000 C 
ENDBRANCH  16  17
ENDBRANCH   2  16
BRANCH   5  25
ATOM     25  C   UNL     1      35.120   1.252  17.155  0.00  0.00    +0.000 C 
BRANCH  25  26
ATOM     26  C   UNL     1      35.942   0.120  17.584  0.00  0.00    +0.000 A 
ATOM     27  C   UNL     1      36.026  -0.248  18.900  0.00  0.00    +0.000 A 
ATOM     28  C   UNL     1      36.798  -1.309  19.290  0.00  0.00    +0.000 A 
ATOM     29  C   UNL     1      37.514  -2.038  18.342  0.00  0.00    +0.000 A 
ATOM     30  C   UNL     1      37.442  -1.685  17.013  0.00  0.00    +0.000 A 
ATOM     31  C   UNL     1      36.654  -0.608  16.657  0.00  0.00    +0.000 A 
ENDBRANCH  25  26
ENDBRANCH   5  25
TORSDOF 6
ENDMDL
MODEL 3
REMARK VINA RESULT:      -8.2      2.971      7.622
REMARK  Name = 
REMARK  6 active torsions:
REMARK  status: ('A' for Active; 'I' for Inactive)
REMARK    1  A    between atoms: C_5  and  S_6
REMARK    2  A    between atoms: S_6  and  C_7
REMARK    3  A    between atoms: C_8  and  N_9
REMARK    4  A    between atoms: N_9  and  C_10
REMARK    5  A    between atoms: N_20  and  C_21
REMARK    6  A    between atoms: C_21  and  C_22
REMARK                            x       y       z     vdW  Elec       q    Type
REMARK                         _______ _______ _______ _____ _____    ______ ____
ROOT
ATOM      1  C   UNL     1      37.199   1.342  14.222  0.00  0.00    +0.000 C 
ATOM      2  C   UNL     1      36.534   1.229  15.405  0.00  0.00    +0.000 C 
ATOM      3  C   UNL     1      36.451   2.555  15.994  0.00  0.00    +0.000 C 
ATOM      4  O   UNL     1      35.895   2.808  17.099  0.00  0.00    +0.000 OA
ATOM      5  N   UNL     1      37.075   3.498  15.161  0.00  0.00    +0.000 N 
ATOM      6  C   UNL     1      37.555   2.743  14.031  0.00  0.00    +0.000 C 
ATOM      7  O   UNL     1      38.170   3.294  13.084  0.00  0.00    +0.000 OA
ENDROOT
BRANCH   1   8
ATOM      8  S   UNL     1      37.492  -0.082  13.217  0.00  0.00    +0.000 S 
BRANCH   8  13
ATOM      9  C   UNL     1      43.175  -1.979  13.907  0.00  0.00    +0.000 C 
ATOM     10  C   UNL     1      41.778  -1.520  13.734  0.00  0.00    +0.000 A 
ATOM     11  C   UNL     1      41.380  -0.302  14.235  0.00  0.00    +0.000 A 
ATOM     12  C   UNL     1      40.091   0.091  14.058  0.00  0.00    +0.000 A 
ATOM     13  C   UNL     1      39.143  -0.707  13.379  0.00  0.00    +0.000 A 
ATOM     14  C   UNL     1      39.604  -1.900  12.909  0.00  0.00    +0.000 A 
ATOM     15  C   UNL     1      40.886  -2.324  13.068  0.00  0.00    +0.000 A 
ENDBRANCH   8  13
ENDBRANCH   1   8
BRANCH   2  16
ATOM     16  N   UNL     1      36.027   0.003  15.933  0.00  0.00    +0.000 NA
BRANCH  16  17
ATOM     17  C   UNL     1      36.841  -0.836  16.747  0.00  0.00    +0.000 A 
ATOM     18  C   UNL     1      37.817  -1.667  16.224  0.00  0.00    +0.000 A 
ATOM     19  C   UNL     1      38.596  -2.473  17.033  0.00  0.00    +0.000 A 
ATOM     20  C   UNL     1      39.634  -3.352  16.426  0.00  0.00    +0.000 C 
ATOM     21  C   UNL     1      38.378  -2.429  18.384  0.00  0.00    +0.000 A 
ATOM     22  C   UNL     1      37.421  -1.614  18.912  0.00  0.00    +0.000 A 
ATOM     23  C   UNL     1      36.642  -0.808  18.091  0.00  0.00    +0.000 A 
ATOM     24  C   UNL     1      35.618   0.052  18.764  0.00  0.00    +0.000 C 
ENDBRANCH  16  17
ENDBRANCH   2  16
BRANCH   5  25
ATOM     25  C   UNL     1      37.213   4.906  15.370  0.00  0.00    +0.000 C 
BRANCH  25  26
ATOM     26  C   UNL     1      38.381   5.258  16.178  0.00  0.00    +0.000 A 
ATOM     27  C   UNL     1      39.539   5.715  15.607  0.00  0.00    +0.000 A 
ATOM     28  C   UNL     1      40.625   6.041  16.372  0.00  0.00    +0.000 A 
ATOM     29  C   UNL     1      40.568   5.913  17.759  0.00  0.00    +0.000 A 
ATOM     30  C   UNL     1      39.412   5.456  18.354  0.00  0.00    +0.000 A 
ATOM     31  C   UNL     1      38.336   5.136  17.549  0.00  0.00    +0.000 A 
ENDBRANCH  25  26
ENDBRANCH   5  25
TORSDOF 6
ENDMDL
MODEL 4
REMARK VINA RESULT:      -8.1      1.900      6.021
REMARK  Name = 
REMARK  6 active torsions:
REMARK  status: ('A' for Active; 'I' for Inactive)
REMARK    1  A    between atoms: C_5  and  S_6
REMARK    2  A    between atoms: S_6  and  C_7
REMARK    3  A    between atoms: C_8  and  N_9
REMARK    4  A    between atoms: N_9  and  C_10
REMARK    5  A    between atoms: N_20  and  C_21
REMARK    6  A    between atoms: C_21  and  C_22
REMARK                            x       y       z     vdW  Elec       q    Type
REMARK                         _______ _______ _______ _____ _____    ______ ____
ROOT
ATOM      1  C   UNL     1      36.526   3.775  15.563  0.00  0.00    +0.000 C 
ATOM      2  C   UNL     1      36.855   4.587  14.521  0.00  0.00    +0.000 C 
ATOM      3  C   UNL     1      38.107   5.247  14.854  0.00  0.00    +0.000 C 
ATOM      4  O   UNL     1      38.697   6.072  14.101  0.00  0.00    +0.000 OA
ATOM      5  N   UNL     1      38.554   4.835  16.120  0.00  0.00    +0.000 N 
ATOM      6  C   UNL     1      37.560   3.900  16.583  0.00  0.00    +0.000 C 
ATOM      7  O   UNL     1      37.658   3.335  17.701  0.00  0.00    +0.000 OA
ENDROOT
BRANCH   1   8
ATOM      8  S   UNL     1      35.050   2.803  15.513  0.00  0.00    +0.000 S 
BRANCH   8  13
ATOM      9  C   UNL     1      35.889  -3.002  16.913  0.00  0.00    +0.000 C 
ATOM     10  C   UNL     1      35.688  -1.577  16.563  0.00  0.00    +0.000 A 
ATOM     11  C   UNL     1      34.876  -0.780  17.336  0.00  0.00    +0.000 A 
ATOM     12  C   UNL     1      34.712   0.523  16.989  0.00  0.00    +0.000 A 
ATOM     13  C   UNL     1      35.346   1.091  15.860  0.00  0.00    +0.000 A 
ATOM     14  C   UNL     1      36.135   0.246  15.139  0.00  0.00    +0.000 A 
ATOM     15  C   UNL     1      36.321  -1.063  15.458  0.00  0.00    +0.000 A 
ENDBRANCH   8  13
ENDBRANCH   1   8
BRANCH   2  16
ATOM     16  N   UNL     1      36.078   4.732  13.332  0.00  0.00    +0.000 NA
BRANCH  16  17
ATOM     17  C   UNL     1      35.465   5.976  13.006  0.00  0.00    +0.000 A 
ATOM     18  C   UNL     1      34.894   6.802  13.959  0.00  0.00    +0.000 A 
ATOM     19  C   UNL     1      34.305   8.005  13.621  0.00  0.00    +0.000 A 
ATOM     20  C   UNL     1      33.703   8.860  14.681  0.00  0.00    +0.000 C 
ATOM     21  C   UNL     1      34.298   8.368  12.300  0.00  0.00    +0.000 A 
ATOM     22  C   UNL     1      34.858   7.565  11.351  0.00  0.00    +0.000 A 
ATOM     23  C   UNL     1      35.448   6.357  11.701  0.00  0.00    +0.000 A 
ATOM     24  C   UNL     1      36.035   5.545  10.589  0.00  0.00    +0.000 C 
ENDBRANCH  16  17
ENDBRANCH   2  16
BRANCH   5  25
ATOM     25  C   UNL     1      39.736   5.243  16.815  0.00  0.00    +0.000 C 
BRANCH  25  26
ATOM     26  C   UNL     1      39.461   6.106  17.964  0.00  0.00    +0.000 A 
ATOM     27  C   UNL     1      38.403   6.975  17.972  0.00  0.00    +0.000 A 
ATOM     28  C   UNL     1      38.155   7.778  19.053  0.00  0.00    +0.000 A 
ATOM     29  C   UNL     1      38.984   7.720  20.171  0.00  0.00    +0.000 A 
ATOM     30  C   UNL     1      40.054   6.852  20.183  0.00  0.00    +0.000 A 
ATOM     31  C   UNL     1      40.273   6.058  19.075  0.00  0.00    +0.000 A 
ENDBRANCH  25  26
ENDBRANCH   5  25
TORSDOF 6
ENDMDL
MODEL 5
REMARK VINA RESULT:      -8.1      3.498      6.638
REMARK  Name = 
REMARK  6 active torsions:
REMARK  status: ('A' for Active; 'I' for Inactive)
REMARK    1  A    between atoms: C_5  and  S_6
REMARK    2  A    between atoms: S_6  and  C_7
REMARK    3  A    between atoms: C_8  and  N_9
REMARK    4  A    between atoms: N_9  and  C_10
REMARK    5  A    between atoms: N_20  and  C_21
REMARK    6  A    between atoms: C_21  and  C_22
REMARK                            x       y       z     vdW  Elec       q    Type
REMARK                         _______ _______ _______ _____ _____    ______ ____
ROOT
ATOM      1  C   UNL     1      38.043   1.520  14.057  0.00  0.00    +0.000 C 
ATOM      2  C   UNL     1      37.633   0.249  14.326  0.00  0.00    +0.000 C 
ATOM      3  C   UNL     1      38.590  -0.661  13.722  0.00  0.00    +0.000 C 
ATOM      4  O   UNL     1      38.509  -1.920  13.781  0.00  0.00    +0.000 OA
ATOM      5  N   UNL     1      39.605   0.059  13.071  0.00  0.00    +0.000 N 
ATOM      6  C   UNL     1      39.272   1.446  13.275  0.00  0.00    +0.000 C 
ATOM      7  O   UNL     1      39.987   2.370  12.814  0.00  0.00    +0.000 OA
ENDROOT
BRANCH   1   8
ATOM      8  S   UNL     1      37.114   2.906  14.640  0.00  0.00    +0.000 S 
BRANCH   8  13
ATOM      9  C   UNL     1      40.156   6.088  18.763  0.00  0.00    +0.000 C 
ATOM     10  C   UNL     1      39.404   5.304  17.756  0.00  0.00    +0.000 A 
ATOM     11  C   UNL     1      39.763   5.352  16.428  0.00  0.00    +0.000 A 
ATOM     12  C   UNL     1      39.054   4.620  15.530  0.00  0.00    +0.000 A 
ATOM     13  C   UNL     1      37.959   3.811  15.908  0.00  0.00    +0.000 A 
ATOM     14  C   UNL     1      37.657   3.810  17.237  0.00  0.00    +0.000 A 
ATOM     15  C   UNL     1      38.345   4.530  18.163  0.00  0.00    +0.000 A 
ENDBRANCH   8  13
ENDBRANCH   1   8
BRANCH   2  16
ATOM     16  N   UNL     1      36.461  -0.080  15.074  0.00  0.00    +0.000 NA
BRANCH  16  17
ATOM     17  C   UNL     1      36.537  -0.352  16.470  0.00  0.00    +0.000 A 
ATOM     18  C   UNL     1      37.388  -1.306  17.001  0.00  0.00    +0.000 A 
ATOM     19  C   UNL     1      37.446  -1.554  18.360  0.00  0.00    +0.000 A 
ATOM     20  C   UNL     1      38.377  -2.591  18.886  0.00  0.00    +0.000 C 
ATOM     21  C   UNL     1      36.629  -0.822  19.181  0.00  0.00    +0.000 A 
ATOM     22  C   UNL     1      35.788   0.121  18.671  0.00  0.00    +0.000 A 
ATOM     23  C   UNL     1      35.737   0.362  17.304  0.00  0.00    +0.000 A 
ATOM     24  C   UNL     1      34.781   1.417  16.840  0.00  0.00    +0.000 C 
ENDBRANCH  16  17
ENDBRANCH   2  16
BRANCH   5  25
ATOM     25  C   UNL     1      40.733  -0.454  12.356  0.00  0.00    +0.000 C 
BRANCH  25  26
ATOM     26  C   UNL     1      41.955  -0.498  13.160  0.00  0.00    +0.000 A 
ATOM     27  C   UNL     1      42.876   0.515  13.122  0.00  0.00    +0.000 A 
ATOM     28  C   UNL     1      44.016   0.463  13.879  0.00  0.00    +0.000 A 
ATOM     29  C   UNL     1      44.256  -0.631  14.707  0.00  0.00    +0.000 A 
ATOM     30  C   UNL     1      43.342  -1.660  14.759  0.00  0.00    +0.000 A 
ATOM     31  C   UNL     1      42.204  -1.574  13.982  0.00  0.00    +0.000 A 
ENDBRANCH  25  26
ENDBRANCH   5  25
TORSDOF 6
ENDMDL
MODEL 6
REMARK VINA RESULT:      -8.1      2.034      6.177
REMARK  Name = 
REMARK  6 active torsions:
REMARK  status: ('A' for Active; 'I' for Inactive)
REMARK    1  A    between atoms: C_5  and  S_6
REMARK    2  A    between atoms: S_6  and  C_7
REMARK    3  A    between atoms: C_8  and  N_9
REMARK    4  A    between atoms: N_9  and  C_10
REMARK    5  A    between atoms: N_20  and  C_21
REMARK    6  A    between atoms: C_21  and  C_22
REMARK                            x       y       z     vdW  Elec       q    Type
REMARK                         _______ _______ _______ _____ _____    ______ ____
ROOT
ATOM      1  C   UNL     1      37.838   4.615  15.773  0.00  0.00    +0.000 C 
ATOM      2  C   UNL     1      37.914   5.888  15.294  0.00  0.00    +0.000 C 
ATOM      3  C   UNL     1      38.311   6.751  16.394  0.00  0.00    +0.000 C 
ATOM      4  O   UNL     1      38.476   7.999  16.294  0.00  0.00    +0.000 OA
ATOM      5  N   UNL     1      38.483   5.998  17.567  0.00  0.00    +0.000 N 
ATOM      6  C   UNL     1      38.186   4.640  17.189  0.00  0.00    +0.000 C 
ATOM      7  O   UNL     1      38.245   3.697  18.017  0.00  0.00    +0.000 OA
ENDROOT
BRANCH   1   8
ATOM      8  S   UNL     1      37.378   3.281  14.709  0.00  0.00    +0.000 S 
BRANCH   8  13
ATOM      9  C   UNL     1      34.412  -1.200  17.448  0.00  0.00    +0.000 C 
ATOM     10  C   UNL     1      35.136  -0.094  16.779  0.00  0.00    +0.000 A 
ATOM     11  C   UNL     1      36.170  -0.365  15.912  0.00  0.00    +0.000 A 
ATOM     12  C   UNL     1      36.813   0.672  15.314  0.00  0.00    +0.000 A 
ATOM     13  C   UNL     1      36.460   2.020  15.550  0.00  0.00    +0.000 A 
ATOM     14  C   UNL     1      35.429   2.216  16.419  0.00  0.00    +0.000 A 
ATOM     15  C   UNL     1      34.763   1.203  17.035  0.00  0.00    +0.000 A 
ENDBRANCH   8  13
ENDBRANCH   1   8
BRANCH   2  16
ATOM     16  N   UNL     1      37.641   6.261  13.943  0.00  0.00    +0.000 NA
BRANCH  16  17
ATOM     17  C   UNL     1      36.350   6.722  13.557  0.00  0.00    +0.000 A 
ATOM     18  C   UNL     1      35.618   7.620  14.317  0.00  0.00    +0.000 A 
ATOM     19  C   UNL     1      34.367   8.054  13.924  0.00  0.00    +0.000 A 
ATOM     20  C   UNL     1      33.616   9.020  14.773  0.00  0.00    +0.000 C 
ATOM     21  C   UNL     1      33.859   7.570  12.748  0.00  0.00    +0.000 A 
ATOM     22  C   UNL     1      34.569   6.687  11.990  0.00  0.00    +0.000 A 
ATOM     23  C   UNL     1      35.826   6.255  12.393  0.00  0.00    +0.000 A 
ATOM     24  C   UNL     1      36.528   5.285  11.495  0.00  0.00    +0.000 C 
ENDBRANCH  16  17
ENDBRANCH   2  16
BRANCH   5  25
ATOM     25  C   UNL     1      38.868   6.460  18.865  0.00  0.00    +0.000 C 
BRANCH  25  26
ATOM     26  C   UNL     1      40.318   6.488  19.061  0.00  0.00    +0.000 A 
ATOM     27  C   UNL     1      40.874   6.433  20.311  0.00  0.00    +0.000 A 
ATOM     28  C   UNL     1      42.232   6.459  20.483  0.00  0.00    +0.000 A 
ATOM     29  C   UNL     1      43.075   6.542  19.377  0.00  0.00    +0.000 A 
ATOM     30  C   UNL     1      42.536   6.597  18.111  0.00  0.00    +0.000 A 
ATOM     31  C   UNL     1      41.161   6.569  17.976  0.00  0.00    +0.000 A 
ENDBRANCH  25  26
ENDBRANCH   5  25
TORSDOF 6
ENDMDL
MODEL 7
REMARK VINA RESULT:      -8.0      2.405      6.240
REMARK  Name = 
REMARK  6 active torsions:
REMARK  status: ('A' for Active; 'I' for Inactive)
REMARK    1  A    between atoms: C_5  and  S_6
REMARK    2  A    between atoms: S_6  and  C_7
REMARK    3  A    between atoms: C_8  and  N_9
REMARK    4  A    between atoms: N_9  and  C_10
REMARK    5  A    between atoms: N_20  and  C_21
REMARK    6  A    between atoms: C_21  and  C_22
REMARK                            x       y       z     vdW  Elec       q    Type
REMARK                         _______ _______ _______ _____ _____    ______ ____
ROOT
ATOM      1  C   UNL     1      37.256   5.185  14.755  0.00  0.00    +0.000 C 
ATOM      2  C   UNL     1      37.390   6.520  14.517  0.00  0.00    +0.000 C 
ATOM      3  C   UNL     1      38.723   6.912  14.940  0.00  0.00    +0.000 C 
ATOM      4  O   UNL     1      39.178   8.087  14.859  0.00  0.00    +0.000 OA
ATOM      5  N   UNL     1      39.421   5.803  15.446  0.00  0.00    +0.000 N 
ATOM      6  C   UNL     1      38.502   4.699  15.336  0.00  0.00    +0.000 C 
ATOM      7  O   UNL     1      38.816   3.540  15.706  0.00  0.00    +0.000 OA
ENDROOT
BRANCH   1   8
ATOM      8  S   UNL     1      35.749   4.350  14.363  0.00  0.00    +0.000 S 
BRANCH   8  13
ATOM      9  C   UNL     1      35.364  -1.122  16.869  0.00  0.00    +0.000 C 
ATOM     10  C   UNL     1      35.463   0.219  16.247  0.00  0.00    +0.000 A 
ATOM     11  C   UNL     1      34.896   1.312  16.861  0.00  0.00    +0.000 A 
ATOM     12  C   UNL     1      35.004   2.528  16.266  0.00  0.00    +0.000 A 
ATOM     13  C   UNL     1      35.678   2.712  15.037  0.00  0.00    +0.000 A 
ATOM     14  C   UNL     1      36.215   1.588  14.484  0.00  0.00    +0.000 A 
ATOM     15  C   UNL     1      36.126   0.357  15.053  0.00  0.00    +0.000 A 
ENDBRANCH   8  13
ENDBRANCH   1   8
BRANCH   2  16
ATOM     16  N   UNL     1      36.372   7.346  13.951  0.00  0.00    +0.000 NA
BRANCH  16  17
ATOM     17  C   UNL     1      35.531   8.143  14.780  0.00  0.00    +0.000 A 
ATOM     18  C   UNL     1      36.030   9.026  15.723  0.00  0.00    +0.000 A 
ATOM     19  C   UNL     1      35.195   9.790  16.517  0.00  0.00    +0.000 A 
ATOM     20  C   UNL     1      35.777  10.726  17.518  0.00  0.00    +0.000 C 
ATOM     21  C   UNL     1      33.843   9.651  16.347  0.00  0.00    +0.000 A 
ATOM     22  C   UNL     1      33.339   8.787  15.421  0.00  0.00    +0.000 A 
ATOM     23  C   UNL     1      34.186   8.023  14.628  0.00  0.00    +0.000 A 
ATOM     24  C   UNL     1      33.539   7.102  13.641  0.00  0.00    +0.000 C 
ENDBRANCH  16  17
ENDBRANCH   2  16
BRANCH   5  25
ATOM     25  C   UNL     1      40.754   5.758  15.964  0.00  0.00    +0.000 C 
BRANCH  25  26
ATOM     26  C   UNL     1      40.829   6.061  17.393  0.00  0.00    +0.000 A 
ATOM     27  C   UNL     1      39.734   5.956  18.208  0.00  0.00    +0.000 A 
ATOM     28  C   UNL     1      39.815   6.241  19.544  0.00  0.00    +0.000 A 
ATOM     29  C   UNL     1      41.028   6.644  20.100  0.00  0.00    +0.000 A 
ATOM     30  C   UNL     1      42.142   6.755  19.298  0.00  0.00    +0.000 A 
ATOM     31  C   UNL     1      42.022   6.460  17.954  0.00  0.00    +0.000 A 
ENDBRANCH  25  26
ENDBRANCH   5  25
TORSDOF 6
ENDMDL
MODEL 8
REMARK VINA RESULT:      -7.9      3.389      7.568
REMARK  Name = 
REMARK  6 active torsions:
REMARK  status: ('A' for Active; 'I' for Inactive)
REMARK    1  A    between atoms: C_5  and  S_6
REMARK    2  A    between atoms: S_6  and  C_7
REMARK    3  A    between atoms: C_8  and  N_9
REMARK    4  A    between atoms: N_9  and  C_10
REMARK    5  A    between atoms: N_20  and  C_21
REMARK    6  A    between atoms: C_21  and  C_22
REMARK                            x       y       z     vdW  Elec       q    Type
REMARK                         _______ _______ _______ _____ _____    ______ ____
ROOT
ATOM      1  C   UNL     1      38.328   1.150  13.566  0.00  0.00    +0.000 C 
ATOM      2  C   UNL     1      37.243   0.768  14.295  0.00  0.00    +0.000 C 
ATOM      3  C   UNL     1      36.698   1.955  14.931  0.00  0.00    +0.000 C 
ATOM      4  O   UNL     1      35.683   1.957  15.683  0.00  0.00    +0.000 OA
ATOM      5  N   UNL     1      37.459   3.085  14.589  0.00  0.00    +0.000 N 
ATOM      6  C   UNL     1      38.499   2.589  13.722  0.00  0.00    +0.000 C 
ATOM      7  O   UNL     1      39.366   3.353  13.230  0.00  0.00    +0.000 OA
ENDROOT
BRANCH   1   8
ATOM      8  S   UNL     1      39.256  -0.041  12.646  0.00  0.00    +0.000 S 
BRANCH   8  13
ATOM      9  C   UNL     1      44.613  -1.324  15.101  0.00  0.00    +0.000 C 
ATOM     10  C   UNL     1      43.300  -1.002  14.496  0.00  0.00    +0.000 A 
ATOM     11  C   UNL     1      42.255  -1.892  14.589  0.00  0.00    +0.000 A 
ATOM     12  C   UNL     1      41.064  -1.567  14.023  0.00  0.00    +0.000 A 
ATOM     13  C   UNL     1      40.857  -0.346  13.341  0.00  0.00    +0.000 A 
ATOM     14  C   UNL     1      41.933   0.488  13.287  0.00  0.00    +0.000 A 
ATOM     15  C   UNL     1      43.139   0.195  13.841  0.00  0.00    +0.000 A 
ENDBRANCH   8  13
ENDBRANCH   1   8
BRANCH   2  16
ATOM     16  N   UNL     1      36.763  -0.574  14.388  0.00  0.00    +0.000 NA
BRANCH  16  17
ATOM     17  C   UNL     1      37.228  -1.448  15.413  0.00  0.00    +0.000 A 
ATOM     18  C   UNL     1      37.264  -1.084  16.748  0.00  0.00    +0.000 A 
ATOM     19  C   UNL     1      37.719  -1.949  17.726  0.00  0.00    +0.000 A 
ATOM     20  C   UNL     1      37.739  -1.513  19.150  0.00  0.00    +0.000 C 
ATOM     21  C   UNL     1      38.140  -3.193  17.337  0.00  0.00    +0.000 A 
ATOM     22  C   UNL     1      38.109  -3.564  16.026  0.00  0.00    +0.000 A 
ATOM     23  C   UNL     1      37.650  -2.688  15.050  0.00  0.00    +0.000 A 
ATOM     24  C   UNL     1      37.655  -3.187  13.639  0.00  0.00    +0.000 C 
ENDBRANCH  16  17
ENDBRANCH   2  16
BRANCH   5  25
ATOM     25  C   UNL     1      37.263   4.441  15.001  0.00  0.00    +0.000 C 
BRANCH  25  26
ATOM     26  C   UNL     1      38.165   4.855  16.075  0.00  0.00    +0.000 A 
ATOM     27  C   UNL     1      37.989   4.432  17.365  0.00  0.00    +0.000 A 
ATOM     28  C   UNL     1      38.839   4.826  18.362  0.00  0.00    +0.000 A 
ATOM     29  C   UNL     1      39.910   5.671  18.075  0.00  0.00    +0.000 A 
ATOM     30  C   UNL     1      40.105   6.108  16.783  0.00  0.00    +0.000 A 
ATOM     31  C   UNL     1      39.226   5.690  15.803  0.00  0.00    +0.000 A 
ENDBRANCH  25  26
ENDBRANCH   5  25
TORSDOF 6
ENDMDL
MODEL 9
REMARK VINA RESULT:      -7.8      3.141      4.954
REMARK  Name = 
REMARK  6 active torsions:
REMARK  status: ('A' for Active; 'I' for Inactive)
REMARK    1  A    between atoms: C_5  and  S_6
REMARK    2  A    between atoms: S_6  and  C_7
REMARK    3  A    between atoms: C_8  and  N_9
REMARK    4  A    between atoms: N_9  and  C_10
REMARK    5  A    between atoms: N_20  and  C_21
REMARK    6  A    between atoms: C_21  and  C_22
REMARK                            x       y       z     vdW  Elec       q    Type
REMARK                         _______ _______ _______ _____ _____    ______ ____
ROOT
ATOM      1  C   UNL     1      37.585   2.761  14.988  0.00  0.00    +0.000 C 
ATOM      2  C   UNL     1      37.997   1.830  14.083  0.00  0.00    +0.000 C 
ATOM      3  C   UNL     1      37.373   0.566  14.435  0.00  0.00    +0.000 C 
ATOM      4  O   UNL     1      37.542  -0.512  13.798  0.00  0.00    +0.000 OA
ATOM      5  N   UNL     1      36.566   0.720  15.574  0.00  0.00    +0.000 N 
ATOM      6  C   UNL     1      36.690   2.109  15.937  0.00  0.00    +0.000 C 
ATOM      7  O   UNL     1      36.085   2.588  16.929  0.00  0.00    +0.000 OA
ENDROOT
BRANCH   1   8
ATOM      8  S   UNL     1      38.147   4.433  14.876  0.00  0.00    +0.000 S 
BRANCH   8  13
ATOM      9  C   UNL     1      40.963   6.473  19.803  0.00  0.00    +0.000 C 
ATOM     10  C   UNL     1      40.265   5.969  18.598  0.00  0.00    +0.000 A 
ATOM     11  C   UNL     1      40.781   6.211  17.345  0.00  0.00    +0.000 A 
ATOM     12  C   UNL     1      40.118   5.734  16.259  0.00  0.00    +0.000 A 
ATOM     13  C   UNL     1      38.916   4.999  16.369  0.00  0.00    +0.000 A 
ATOM     14  C   UNL     1      38.462   4.796  17.637  0.00  0.00    +0.000 A 
ATOM     15  C   UNL     1      39.100   5.258  18.746  0.00  0.00    +0.000 A 
ENDBRANCH   8  13
ENDBRANCH   1   8
BRANCH   2  16
ATOM     16  N   UNL     1      38.885   2.097  12.997  0.00  0.00    +0.000 NA
BRANCH  16  17
ATOM     17  C   UNL     1      39.964   1.214  12.701  0.00  0.00    +0.000 A 
ATOM     18  C   UNL     1      40.996   0.969  13.591  0.00  0.00    +0.000 A 
ATOM     19  C   UNL     1      42.033   0.108  13.283  0.00  0.00    +0.000 A 
ATOM     20  C   UNL     1      43.122  -0.124  14.272  0.00  0.00    +0.000 C 
ATOM     21  C   UNL     1      42.016  -0.505  12.059  0.00  0.00    +0.000 A 
ATOM     22  C   UNL     1      41.005  -0.274  11.174  0.00  0.00    +0.000 A 
ATOM     23  C   UNL     1      39.967   0.593  11.492  0.00  0.00    +0.000 A 
ATOM     24  C   UNL     1      38.905   0.784  10.456  0.00  0.00    +0.000 C 
ENDBRANCH  16  17
ENDBRANCH   2  16
BRANCH   5  25
ATOM     25  C   UNL     1      35.783  -0.272  16.242  0.00  0.00    +0.000 C 
BRANCH  25  26
ATOM     26  C   UNL     1      36.527  -0.998  17.272  0.00  0.00    +0.000 A 
ATOM     27  C   UNL     1      36.426  -0.670  18.597  0.00  0.00    +0.000 A 
ATOM     28  C   UNL     1      37.126  -1.356  19.552  0.00  0.00    +0.000 A 
ATOM     29  C   UNL     1      37.960  -2.411  19.185  0.00  0.00    +0.000 A 
ATOM     30  C   UNL     1      38.075  -2.758  17.856  0.00  0.00    +0.000 A 
ATOM     31  C   UNL     1      37.353  -2.042  16.921  0.00  0.00    +0.000 A 
ENDBRANCH  25  26
ENDBRANCH   5  25
TORSDOF 6
ENDMDL
MODEL 10
REMARK VINA RESULT:      -7.8      2.429      6.738
REMARK  Name = 
REMARK  6 active torsions:
REMARK  status: ('A' for Active; 'I' for Inactive)
REMARK    1  A    between atoms: C_5  and  S_6
REMARK    2  A    between atoms: S_6  and  C_7
REMARK    3  A    between atoms: C_8  and  N_9
REMARK    4  A    between atoms: N_9  and  C_10
REMARK    5  A    between atoms: N_20  and  C_21
REMARK    6  A    between atoms: C_21  and  C_22
REMARK                            x       y       z     vdW  Elec       q    Type
REMARK                         _______ _______ _______ _____ _____    ______ ____
ROOT
ATOM      1  C   UNL     1      36.497   5.650  14.414  0.00  0.00    +0.000 C 
ATOM      2  C   UNL     1      36.559   4.443  15.043  0.00  0.00    +0.000 C 
ATOM      3  C   UNL     1      37.785   4.414  15.822  0.00  0.00    +0.000 C 
ATOM      4  O   UNL     1      38.153   3.436  16.531  0.00  0.00    +0.000 OA
ATOM      5  N   UNL     1      38.489   5.620  15.672  0.00  0.00    +0.000 N 
ATOM      6  C   UNL     1      37.683   6.415  14.780  0.00  0.00    +0.000 C 
ATOM      7  O   UNL     1      38.031   7.571  14.432  0.00  0.00    +0.000 OA
ENDROOT
BRANCH   1   8
ATOM      8  S   UNL     1      35.131   6.048  13.366  0.00  0.00    +0.000 S 
BRANCH   8  13
ATOM      9  C   UNL     1      33.640  11.876  13.792  0.00  0.00    +0.000 C 
ATOM     10  C   UNL     1      34.008  10.446  13.680  0.00  0.00    +0.000 A 
ATOM     11  C   UNL     1      33.924   9.619  14.776  0.00  0.00    +0.000 A 
ATOM     12  C   UNL     1      34.268   8.311  14.640  0.00  0.00    +0.000 A 
ATOM     13  C   UNL     1      34.711   7.769  13.413  0.00  0.00    +0.000 A 
ATOM     14  C   UNL     1      34.770   8.643  12.369  0.00  0.00    +0.000 A 
ATOM     15  C   UNL     1      34.434   9.956  12.469  0.00  0.00    +0.000 A 
ENDBRANCH   8  13
ENDBRANCH   1   8
BRANCH   2  16
ATOM     16  N   UNL     1      35.570   3.419  14.926  0.00  0.00    +0.000 NA
BRANCH  16  17
ATOM     17  C   UNL     1      35.944   2.065  14.690  0.00  0.00    +0.000 A 
ATOM     18  C   UNL     1      36.613   1.662  13.546  0.00  0.00    +0.000 A 
ATOM     19  C   UNL     1      36.966   0.342  13.337  0.00  0.00    +0.000 A 
ATOM     20  C   UNL     1      37.685  -0.045  12.092  0.00  0.00    +0.000 C 
ATOM     21  C   UNL     1      36.634  -0.572  14.302  0.00  0.00    +0.000 A 
ATOM     22  C   UNL     1      35.977  -0.188  15.433  0.00  0.00    +0.000 A 
ATOM     23  C   UNL     1      35.626   1.141  15.634  0.00  0.00    +0.000 A 
ATOM     24  C   UNL     1      34.906   1.464  16.906  0.00  0.00    +0.000 C 
ENDBRANCH  16  17
ENDBRANCH   2  16
BRANCH   5  25
ATOM     25  C   UNL     1      39.734   5.996  16.265  0.00  0.00    +0.000 C 
BRANCH  25  26
ATOM     26  C   UNL     1      39.598   6.467  17.644  0.00  0.00    +0.000 A 
ATOM     27  C   UNL     1      38.616   7.348  18.008  0.00  0.00    +0.000 A 
ATOM     28  C   UNL     1      38.498   7.781  19.301  0.00  0.00    +0.000 A 
ATOM     29  C   UNL     1      39.384   7.326  20.275  0.00  0.00    +0.000 A 
ATOM     30  C   UNL     1      40.380   6.438  19.929  0.00  0.00    +0.000 A 
ATOM     31  C   UNL     1      40.469   6.023  18.615  0.00  0.00    +0.000 A 
ENDBRANCH  25  26
ENDBRANCH   5  25
TORSDOF 6
ENDMDL
