MODEL 1
REMARK VINA RESULT:      -7.6      0.000      0.000
REMARK  Name = 
REMARK  8 active torsions:
REMARK  status: ('A' for Active; 'I' for Inactive)
REMARK    1  A    between atoms: C_2  and  O_3
REMARK    2  A    between atoms: O_3  and  C_4
REMARK    3  A    between atoms: C_9  and  N_10
REMARK    4  A    between atoms: C_11  and  C_13
REMARK    5  A    between atoms: C_14  and  N_15
REMARK    6  A    between atoms: C_16  and  C_18
REMARK    7  A    between atoms: C_18  and  O_19
REMARK    8  A    between atoms: O_19  and  C_20
REMARK                            x       y       z     vdW  Elec       q    Type
REMARK                         _______ _______ _______ _____ _____    ______ ____
ROOT
ATOM      1  C   UNL     1      39.730  -0.257  14.275  0.00  0.00    +0.000 A 
ATOM      2  C   UNL     1      40.158   1.023  14.228  0.00  0.00    +0.000 A 
ATOM      3  S   UNL     1      41.669   0.841  13.323  0.00  0.00    +0.000 S 
ATOM      4  C   UNL     1      41.643  -0.819  13.065  0.00  0.00    +0.000 A 
ATOM      5  C   UNL     1      40.498  -1.223  13.666  0.00  0.00    +0.000 A 
ATOM      6  C   UNL     1      40.391  -2.741  13.467  0.00  0.00    +0.000 C 
ATOM      7  C   UNL     1      41.753  -3.199  13.073  0.00  0.00    +0.000 C 
ATOM      8  C   UNL     1      42.392  -1.984  12.439  0.00  0.00    +0.000 C 
ENDROOT
BRANCH   1  10
ATOM      9  N   UNL     1      37.238  -0.517  14.716  0.00  0.00    +0.000 NA
ATOM     10  C   UNL     1      38.576  -0.640  15.141  0.00  0.00    +0.000 C 
ATOM     11  O   UNL     1      38.774  -1.080  16.270  0.00  0.00    +0.000 OA
BRANCH   9  17
ATOM     12  C   UNL     1      35.639   0.018  16.481  0.00  0.00    +0.000 A 
ATOM     13  C   UNL     1      34.625  -0.419  17.302  0.00  0.00    +0.000 A 
ATOM     14  C   UNL     1      34.148  -1.724  17.269  0.00  0.00    +0.000 A 
ATOM     15  C   UNL     1      34.694  -2.627  16.391  0.00  0.00    +0.000 A 
ATOM     16  C   UNL     1      35.711  -2.186  15.568  0.00  0.00    +0.000 A 
ATOM     17  C   UNL     1      36.195  -0.897  15.590  0.00  0.00    +0.000 A 
BRANCH  12  18
ATOM     18  O   UNL     1      36.100   1.321  16.529  0.00  0.00    +0.000 OA
BRANCH  18  20
ATOM     19  C   UNL     1      34.817   2.583  14.901  0.00  0.00    +0.000 C 
ATOM     20  C   UNL     1      35.159   2.365  16.363  0.00  0.00    +0.000 C 
ENDBRANCH  18  20
ENDBRANCH  12  18
ENDBRANCH   9  17
ENDBRANCH   1  10
BRANCH   2  21
ATOM     21  N   UNL     1      39.710   2.312  14.489  0.00  0.00    +0.000 NA
ATOM     22  C   UNL     1      38.657   3.047  14.089  0.00  0.00    +0.000 C 
ATOM     23  O   UNL     1      37.804   2.638  13.274  0.00  0.00    +0.000 OA
BRANCH  22  24
ATOM     24  C   UNL     1      38.382   4.460  14.584  0.00  0.00    +0.000 C 
BRANCH  24  25
ATOM     25  O   UNL     1      38.244   4.370  15.990  0.00  0.00    +0.000 OA
BRANCH  25  26
ATOM     26  C   UNL     1      39.077   5.044  16.854  0.00  0.00    +0.000 A 
ATOM     27  C   UNL     1      38.832   5.120  18.203  0.00  0.00    +0.000 A 
ATOM     28  C   UNL     1      39.662   5.794  19.075  0.00  0.00    +0.000 A 
ATOM     29  C   UNL     1      40.782   6.420  18.595  0.00  0.00    +0.000 A 
ATOM     30  C   UNL     1      41.046   6.357  17.247  0.00  0.00    +0.000 A 
ATOM     31  C   UNL     1      40.197   5.670  16.370  0.00  0.00    +0.000 A 
ENDBRANCH  25  26
ENDBRANCH  24  25
ENDBRANCH  22  24
ENDBRANCH   2  21
TORSDOF 8
ENDMDL
MODEL 2
REMARK VINA RESULT:      -7.6      2.228      5.295
REMARK  Name = 
REMARK  8 active torsions:
REMARK  status: ('A' for Active; 'I' for Inactive)
REMARK    1  A    between atoms: C_2  and  O_3
REMARK    2  A    between atoms: O_3  and  C_4
REMARK    3  A    between atoms: C_9  and  N_10
REMARK    4  A    between atoms: C_11  and  C_13
REMARK    5  A    between atoms: C_14  and  N_15
REMARK    6  A    between atoms: C_16  and  C_18
REMARK    7  A    between atoms: C_18  and  O_19
REMARK    8  A    between atoms: O_19  and  C_20
REMARK                            x       y       z     vdW  Elec       q    Type
REMARK                         _______ _______ _______ _____ _____    ______ ____
ROOT
ATOM      1  C   UNL     1      36.757   0.412  15.670  0.00  0.00    +0.000 A 
ATOM      2  C   UNL     1      36.425   1.691  15.947  0.00  0.00    +0.000 A 
ATOM      3  S   UNL     1      34.960   1.457  16.914  0.00  0.00    +0.000 S 
ATOM      4  C   UNL     1      34.883  -0.221  16.904  0.00  0.00    +0.000 A 
ATOM      5  C   UNL     1      35.959  -0.591  16.169  0.00  0.00    +0.000 A 
ATOM      6  C   UNL     1      35.968  -2.125  16.118  0.00  0.00    +0.000 C 
ATOM      7  C   UNL     1      34.602  -2.557  16.527  0.00  0.00    +0.000 C 
ATOM      8  C   UNL     1      34.089  -1.424  17.388  0.00  0.00    +0.000 C 
ENDROOT
BRANCH   1  10
ATOM      9  N   UNL     1      37.575  -0.614  13.491  0.00  0.00    +0.000 NA
ATOM     10  C   UNL     1      37.828   0.105  14.676  0.00  0.00    +0.000 C 
ATOM     11  O   UNL     1      38.979   0.480  14.876  0.00  0.00    +0.000 OA
BRANCH   9  17
ATOM     12  C   UNL     1      39.469  -1.975  12.770  0.00  0.00    +0.000 A 
ATOM     13  C   UNL     1      40.483  -2.166  11.860  0.00  0.00    +0.000 A 
ATOM     14  C   UNL     1      40.698  -1.306  10.790  0.00  0.00    +0.000 A 
ATOM     15  C   UNL     1      39.879  -0.218  10.616  0.00  0.00    +0.000 A 
ATOM     16  C   UNL     1      38.862  -0.029  11.530  0.00  0.00    +0.000 A 
ATOM     17  C   UNL     1      38.637  -0.872  12.595  0.00  0.00    +0.000 A 
BRANCH  12  18
ATOM     18  O   UNL     1      39.272  -2.843  13.829  0.00  0.00    +0.000 OA
BRANCH  18  20
ATOM     19  C   UNL     1      39.538  -2.903  16.241  0.00  0.00    +0.000 C 
ATOM     20  C   UNL     1      40.215  -2.828  14.884  0.00  0.00    +0.000 C 
ENDBRANCH  18  20
ENDBRANCH  12  18
ENDBRANCH   9  17
ENDBRANCH   1  10
BRANCH   2  21
ATOM     21  N   UNL     1      36.948   2.976  15.863  0.00  0.00    +0.000 NA
ATOM     22  C   UNL     1      37.588   3.794  16.717  0.00  0.00    +0.000 C 
ATOM     23  O   UNL     1      37.823   3.498  17.908  0.00  0.00    +0.000 OA
BRANCH  22  24
ATOM     24  C   UNL     1      38.103   5.174  16.331  0.00  0.00    +0.000 C 
BRANCH  24  25
ATOM     25  O   UNL     1      38.271   5.889  17.542  0.00  0.00    +0.000 OA
BRANCH  25  26
ATOM     26  C   UNL     1      39.510   6.118  18.094  0.00  0.00    +0.000 A 
ATOM     27  C   UNL     1      39.702   6.234  19.448  0.00  0.00    +0.000 A 
ATOM     28  C   UNL     1      40.942   6.462  20.009  0.00  0.00    +0.000 A 
ATOM     29  C   UNL     1      42.040   6.583  19.198  0.00  0.00    +0.000 A 
ATOM     30  C   UNL     1      41.870   6.471  17.837  0.00  0.00    +0.000 A 
ATOM     31  C   UNL     1      40.606   6.237  17.278  0.00  0.00    +0.000 A 
ENDBRANCH  25  26
ENDBRANCH  24  25
ENDBRANCH  22  24
ENDBRANCH   2  21
TORSDOF 8
ENDMDL
MODEL 3
REMARK VINA RESULT:      -7.4      1.990      5.068
REMARK  Name = 
REMARK  8 active torsions:
REMARK  status: ('A' for Active; 'I' for Inactive)
REMARK    1  A    between atoms: C_2  and  O_3
REMARK    2  A    between atoms: O_3  and  C_4
REMARK    3  A    between atoms: C_9  and  N_10
REMARK    4  A    between atoms: C_11  and  C_13
REMARK    5  A    between atoms: C_14  and  N_15
REMARK    6  A    between atoms: C_16  and  C_18
REMARK    7  A    between atoms: C_18  and  O_19
REMARK    8  A    between atoms: O_19  and  C_20
REMARK                            x       y       z     vdW  Elec       q    Type
REMARK                         _______ _______ _______ _____ _____    ______ ____
ROOT
ATOM      1  C   UNL     1      36.832  -0.041  15.913  0.00  0.00    +0.000 A 
ATOM      2  C   UNL     1      36.632   1.276  16.134  0.00  0.00    +0.000 A 
ATOM      3  S   UNL     1      35.057   1.246  16.944  0.00  0.00    +0.000 S 
ATOM      4  C   UNL     1      34.778  -0.411  16.952  0.00  0.00    +0.000 A 
ATOM      5  C   UNL     1      35.871  -0.927  16.341  0.00  0.00    +0.000 A 
ATOM      6  C   UNL     1      35.699  -2.452  16.316  0.00  0.00    +0.000 C 
ATOM      7  C   UNL     1      34.255  -2.706  16.585  0.00  0.00    +0.000 C 
ATOM      8  C   UNL     1      33.798  -1.495  17.369  0.00  0.00    +0.000 C 
ENDROOT
BRANCH   1  10
ATOM      9  N   UNL     1      39.277  -0.623  15.516  0.00  0.00    +0.000 NA
ATOM     10  C   UNL     1      37.954  -0.503  15.044  0.00  0.00    +0.000 C 
ATOM     11  O   UNL     1      37.744  -0.794  13.870  0.00  0.00    +0.000 OA
BRANCH   9  17
ATOM     12  C   UNL     1      41.048  -0.153  13.904  0.00  0.00    +0.000 A 
ATOM     13  C   UNL     1      42.020  -0.652  13.066  0.00  0.00    +0.000 A 
ATOM     14  C   UNL     1      42.264  -2.013  12.933  0.00  0.00    +0.000 A 
ATOM     15  C   UNL     1      41.518  -2.912  13.655  0.00  0.00    +0.000 A 
ATOM     16  C   UNL     1      40.545  -2.409  14.494  0.00  0.00    +0.000 A 
ATOM     17  C   UNL     1      40.291  -1.064  14.636  0.00  0.00    +0.000 A 
BRANCH  12  18
ATOM     18  O   UNL     1      40.821   1.207  14.022  0.00  0.00    +0.000 OA
BRANCH  18  20
ATOM     19  C   UNL     1      39.046   2.283  12.764  0.00  0.00    +0.000 C 
ATOM     20  C   UNL     1      40.521   1.934  12.845  0.00  0.00    +0.000 C 
ENDBRANCH  18  20
ENDBRANCH  12  18
ENDBRANCH   9  17
ENDBRANCH   1  10
BRANCH   2  21
ATOM     21  N   UNL     1      37.314   2.485  16.085  0.00  0.00    +0.000 NA
ATOM     22  C   UNL     1      37.063   3.691  15.545  0.00  0.00    +0.000 C 
ATOM     23  O   UNL     1      36.040   3.945  14.876  0.00  0.00    +0.000 OA
BRANCH  22  24
ATOM     24  C   UNL     1      37.996   4.886  15.689  0.00  0.00    +0.000 C 
BRANCH  24  25
ATOM     25  O   UNL     1      38.050   5.186  17.072  0.00  0.00    +0.000 OA
BRANCH  25  26
ATOM     26  C   UNL     1      39.200   5.629  17.682  0.00  0.00    +0.000 A 
ATOM     27  C   UNL     1      39.299   5.783  19.043  0.00  0.00    +0.000 A 
ATOM     28  C   UNL     1      40.449   6.227  19.662  0.00  0.00    +0.000 A 
ATOM     29  C   UNL     1      41.550   6.534  18.905  0.00  0.00    +0.000 A 
ATOM     30  C   UNL     1      41.472   6.387  17.540  0.00  0.00    +0.000 A 
ATOM     31  C   UNL     1      40.300   5.935  16.921  0.00  0.00    +0.000 A 
ENDBRANCH  25  26
ENDBRANCH  24  25
ENDBRANCH  22  24
ENDBRANCH   2  21
TORSDOF 8
ENDMDL
MODEL 4
REMARK VINA RESULT:      -7.4      1.054      2.414
REMARK  Name = 
REMARK  8 active torsions:
REMARK  status: ('A' for Active; 'I' for Inactive)
REMARK    1  A    between atoms: C_2  and  O_3
REMARK    2  A    between atoms: O_3  and  C_4
REMARK    3  A    between atoms: C_9  and  N_10
REMARK    4  A    between atoms: C_11  and  C_13
REMARK    5  A    between atoms: C_14  and  N_15
REMARK    6  A    between atoms: C_16  and  C_18
REMARK    7  A    between atoms: C_18  and  O_19
REMARK    8  A    between atoms: O_19  and  C_20
REMARK                            x       y       z     vdW  Elec       q    Type
REMARK                         _______ _______ _______ _____ _____    ______ ____
ROOT
ATOM      1  C   UNL     1      39.634  -0.218  14.306  0.00  0.00    +0.000 A 
ATOM      2  C   UNL     1      40.069   1.058  14.243  0.00  0.00    +0.000 A 
ATOM      3  S   UNL     1      41.575   0.857  13.333  0.00  0.00    +0.000 S 
ATOM      4  C   UNL     1      41.537  -0.805  13.093  0.00  0.00    +0.000 A 
ATOM      5  C   UNL     1      40.393  -1.195  13.704  0.00  0.00    +0.000 A 
ATOM      6  C   UNL     1      40.276  -2.715  13.522  0.00  0.00    +0.000 C 
ATOM      7  C   UNL     1      41.634  -3.186  13.127  0.00  0.00    +0.000 C 
ATOM      8  C   UNL     1      42.277  -1.981  12.477  0.00  0.00    +0.000 C 
ENDROOT
BRANCH   1  10
ATOM      9  N   UNL     1      37.157  -0.640  14.705  0.00  0.00    +0.000 NA
ATOM     10  C   UNL     1      38.482  -0.585  15.182  0.00  0.00    +0.000 C 
ATOM     11  O   UNL     1      38.670  -0.853  16.365  0.00  0.00    +0.000 OA
BRANCH   9  17
ATOM     12  C   UNL     1      35.674  -2.310  15.690  0.00  0.00    +0.000 A 
ATOM     13  C   UNL     1      34.655  -2.583  16.573  0.00  0.00    +0.000 A 
ATOM     14  C   UNL     1      34.063  -1.600  17.356  0.00  0.00    +0.000 A 
ATOM     15  C   UNL     1      34.495  -0.300  17.261  0.00  0.00    +0.000 A 
ATOM     16  C   UNL     1      35.518  -0.029  16.374  0.00  0.00    +0.000 A 
ATOM     17  C   UNL     1      36.114  -0.992  15.591  0.00  0.00    +0.000 A 
BRANCH  12  18
ATOM     18  O   UNL     1      36.251  -3.303  14.919  0.00  0.00    +0.000 OA
BRANCH  18  20
ATOM     19  C   UNL     1      37.900  -4.253  16.425  0.00  0.00    +0.000 C 
ATOM     20  C   UNL     1      36.669  -4.489  15.569  0.00  0.00    +0.000 C 
ENDBRANCH  18  20
ENDBRANCH  12  18
ENDBRANCH   9  17
ENDBRANCH   1  10
BRANCH   2  21
ATOM     21  N   UNL     1      39.630   2.353  14.492  0.00  0.00    +0.000 NA
ATOM     22  C   UNL     1      38.518   3.048  14.195  0.00  0.00    +0.000 C 
ATOM     23  O   UNL     1      37.575   2.582  13.521  0.00  0.00    +0.000 OA
BRANCH  22  24
ATOM     24  C   UNL     1      38.278   4.483  14.646  0.00  0.00    +0.000 C 
BRANCH  24  25
ATOM     25  O   UNL     1      39.525   4.969  15.108  0.00  0.00    +0.000 OA
BRANCH  25  26
ATOM     26  C   UNL     1      39.725   5.350  16.414  0.00  0.00    +0.000 A 
ATOM     27  C   UNL     1      40.804   6.105  16.803  0.00  0.00    +0.000 A 
ATOM     28  C   UNL     1      41.012   6.491  18.111  0.00  0.00    +0.000 A 
ATOM     29  C   UNL     1      40.116   6.116  19.078  0.00  0.00    +0.000 A 
ATOM     30  C   UNL     1      39.028   5.359  18.710  0.00  0.00    +0.000 A 
ATOM     31  C   UNL     1      38.826   4.973  17.379  0.00  0.00    +0.000 A 
ENDBRANCH  25  26
ENDBRANCH  24  25
ENDBRANCH  22  24
ENDBRANCH   2  21
TORSDOF 8
ENDMDL
MODEL 5
REMARK VINA RESULT:      -7.0      2.037      5.402
REMARK  Name = 
REMARK  8 active torsions:
REMARK  status: ('A' for Active; 'I' for Inactive)
REMARK    1  A    between atoms: C_2  and  O_3
REMARK    2  A    between atoms: O_3  and  C_4
REMARK    3  A    between atoms: C_9  and  N_10
REMARK    4  A    between atoms: C_11  and  C_13
REMARK    5  A    between atoms: C_14  and  N_15
REMARK    6  A    between atoms: C_16  and  C_18
REMARK    7  A    between atoms: C_18  and  O_19
REMARK    8  A    between atoms: O_19  and  C_20
REMARK                            x       y       z     vdW  Elec       q    Type
REMARK                         _______ _______ _______ _____ _____    ______ ____
ROOT
ATOM      1  C   UNL     1      40.323  -0.381  14.358  0.00  0.00    +0.000 A 
ATOM      2  C   UNL     1      40.124  -1.665  14.725  0.00  0.00    +0.000 A 
ATOM      3  S   UNL     1      41.713  -2.365  14.376  0.00  0.00    +0.000 S 
ATOM      4  C   UNL     1      42.504  -0.996  13.808  0.00  0.00    +0.000 A 
ATOM      5  C   UNL     1      41.563  -0.024  13.883  0.00  0.00    +0.000 A 
ATOM      6  C   UNL     1      42.213   1.275  13.387  0.00  0.00    +0.000 C 
ATOM      7  C   UNL     1      43.443   0.864  12.653  0.00  0.00    +0.000 C 
ATOM      8  C   UNL     1      43.821  -0.467  13.265  0.00  0.00    +0.000 C 
ENDROOT
BRANCH   1  10
ATOM      9  N   UNL     1      38.393   0.919  15.387  0.00  0.00    +0.000 NA
ATOM     10  C   UNL     1      39.175   0.569  14.268  0.00  0.00    +0.000 C 
ATOM     11  O   UNL     1      38.880   1.077  13.190  0.00  0.00    +0.000 OA
BRANCH   9  17
ATOM     12  C   UNL     1      37.454   3.163  15.581  0.00  0.00    +0.000 A 
ATOM     13  C   UNL     1      36.367   3.988  15.400  0.00  0.00    +0.000 A 
ATOM     14  C   UNL     1      35.160   3.531  14.885  0.00  0.00    +0.000 A 
ATOM     15  C   UNL     1      35.026   2.209  14.536  0.00  0.00    +0.000 A 
ATOM     16  C   UNL     1      36.117   1.384  14.719  0.00  0.00    +0.000 A 
ATOM     17  C   UNL     1      37.318   1.822  15.229  0.00  0.00    +0.000 A 
BRANCH  12  18
ATOM     18  O   UNL     1      38.646   3.638  16.097  0.00  0.00    +0.000 OA
BRANCH  18  20
ATOM     19  C   UNL     1      39.702   5.646  16.958  0.00  0.00    +0.000 C 
ATOM     20  C   UNL     1      38.585   4.628  17.106  0.00  0.00    +0.000 C 
ENDBRANCH  18  20
ENDBRANCH  12  18
ENDBRANCH   9  17
ENDBRANCH   1  10
BRANCH   2  21
ATOM     21  N   UNL     1      39.200  -2.456  15.397  0.00  0.00    +0.000 NA
ATOM     22  C   UNL     1      38.082  -3.113  15.042  0.00  0.00    +0.000 C 
ATOM     23  O   UNL     1      37.608  -3.089  13.887  0.00  0.00    +0.000 OA
BRANCH  22  24
ATOM     24  C   UNL     1      37.266  -3.964  16.005  0.00  0.00    +0.000 C 
BRANCH  24  25
ATOM     25  O   UNL     1      36.076  -3.241  16.266  0.00  0.00    +0.000 OA
BRANCH  25  26
ATOM     26  C   UNL     1      36.028  -2.212  17.178  0.00  0.00    +0.000 A 
ATOM     27  C   UNL     1      36.834  -2.175  18.288  0.00  0.00    +0.000 A 
ATOM     28  C   UNL     1      36.791  -1.147  19.207  0.00  0.00    +0.000 A 
ATOM     29  C   UNL     1      35.914  -0.111  19.023  0.00  0.00    +0.000 A 
ATOM     30  C   UNL     1      35.096  -0.128  17.917  0.00  0.00    +0.000 A 
ATOM     31  C   UNL     1      35.148  -1.177  16.989  0.00  0.00    +0.000 A 
ENDBRANCH  25  26
ENDBRANCH  24  25
ENDBRANCH  22  24
ENDBRANCH   2  21
TORSDOF 8
ENDMDL
MODEL 6
REMARK VINA RESULT:      -6.8      2.787      3.952
REMARK  Name = 
REMARK  8 active torsions:
REMARK  status: ('A' for Active; 'I' for Inactive)
REMARK    1  A    between atoms: C_2  and  O_3
REMARK    2  A    between atoms: O_3  and  C_4
REMARK    3  A    between atoms: C_9  and  N_10
REMARK    4  A    between atoms: C_11  and  C_13
REMARK    5  A    between atoms: C_14  and  N_15
REMARK    6  A    between atoms: C_16  and  C_18
REMARK    7  A    between atoms: C_18  and  O_19
REMARK    8  A    between atoms: O_19  and  C_20
REMARK                            x       y       z     vdW  Elec       q    Type
REMARK                         _______ _______ _______ _____ _____    ______ ____
ROOT
ATOM      1  C   UNL     1      38.907  -0.394  13.361  0.00  0.00    +0.000 A 
ATOM      2  C   UNL     1      38.587   0.857  12.965  0.00  0.00    +0.000 A 
ATOM      3  S   UNL     1      39.095   0.813  11.269  0.00  0.00    +0.000 S 
ATOM      4  C   UNL     1      39.658  -0.767  11.185  0.00  0.00    +0.000 A 
ATOM      5  C   UNL     1      39.462  -1.248  12.436  0.00  0.00    +0.000 A 
ATOM      6  C   UNL     1      39.945  -2.705  12.444  0.00  0.00    +0.000 C 
ATOM      7  C   UNL     1      40.794  -2.861  11.229  0.00  0.00    +0.000 C 
ATOM      8  C   UNL     1      40.279  -1.810  10.271  0.00  0.00    +0.000 C 
ENDROOT
BRANCH   1  10
ATOM      9  N   UNL     1      37.740  -1.394  15.388  0.00  0.00    +0.000 NA
ATOM     10  C   UNL     1      38.860  -0.767  14.805  0.00  0.00    +0.000 C 
ATOM     11  O   UNL     1      39.818  -0.530  15.534  0.00  0.00    +0.000 OA
BRANCH   9  17
ATOM     12  C   UNL     1      37.233  -0.846  17.712  0.00  0.00    +0.000 A 
ATOM     13  C   UNL     1      37.288  -1.225  19.034  0.00  0.00    +0.000 A 
ATOM     14  C   UNL     1      37.845  -2.431  19.443  0.00  0.00    +0.000 A 
ATOM     15  C   UNL     1      38.367  -3.291  18.508  0.00  0.00    +0.000 A 
ATOM     16  C   UNL     1      38.311  -2.909  17.183  0.00  0.00    +0.000 A 
ATOM     17  C   UNL     1      37.762  -1.718  16.763  0.00  0.00    +0.000 A 
BRANCH  12  18
ATOM     18  O   UNL     1      36.674   0.358  17.326  0.00  0.00    +0.000 OA
BRANCH  18  20
ATOM     19  C   UNL     1      34.780   1.697  16.609  0.00  0.00    +0.000 C 
ATOM     20  C   UNL     1      35.265   0.485  17.383  0.00  0.00    +0.000 C 
ENDBRANCH  18  20
ENDBRANCH  12  18
ENDBRANCH   9  17
ENDBRANCH   1  10
BRANCH   2  21
ATOM     21  N   UNL     1      37.882   1.971  13.402  0.00  0.00    +0.000 NA
ATOM     22  C   UNL     1      37.963   2.781  14.472  0.00  0.00    +0.000 C 
ATOM     23  O   UNL     1      38.786   2.619  15.397  0.00  0.00    +0.000 OA
BRANCH  22  24
ATOM     24  C   UNL     1      37.061   3.991  14.681  0.00  0.00    +0.000 C 
BRANCH  24  25
ATOM     25  O   UNL     1      36.891   4.585  13.407  0.00  0.00    +0.000 OA
BRANCH  25  26
ATOM     26  C   UNL     1      35.845   5.434  13.127  0.00  0.00    +0.000 A 
ATOM     27  C   UNL     1      35.674   6.007  11.891  0.00  0.00    +0.000 A 
ATOM     28  C   UNL     1      34.628   6.859  11.603  0.00  0.00    +0.000 A 
ATOM     29  C   UNL     1      33.711   7.159  12.576  0.00  0.00    +0.000 A 
ATOM     30  C   UNL     1      33.864   6.596  13.822  0.00  0.00    +0.000 A 
ATOM     31  C   UNL     1      34.930   5.731  14.104  0.00  0.00    +0.000 A 
ENDBRANCH  25  26
ENDBRANCH  24  25
ENDBRANCH  22  24
ENDBRANCH   2  21
TORSDOF 8
ENDMDL
MODEL 7
REMARK VINA RESULT:      -6.8      3.008      8.012
REMARK  Name = 
REMARK  8 active torsions:
REMARK  status: ('A' for Active; 'I' for Inactive)
REMARK    1  A    between atoms: C_2  and  O_3
REMARK    2  A    between atoms: O_3  and  C_4
REMARK    3  A    between atoms: C_9  and  N_10
REMARK    4  A    between atoms: C_11  and  C_13
REMARK    5  A    between atoms: C_14  and  N_15
REMARK    6  A    between atoms: C_16  and  C_18
REMARK    7  A    between atoms: C_18  and  O_19
REMARK    8  A    between atoms: O_19  and  C_20
REMARK                            x       y       z     vdW  Elec       q    Type
REMARK                         _______ _______ _______ _____ _____    ______ ____
ROOT
ATOM      1  C   UNL     1      37.354   4.125  15.952  0.00  0.00    +0.000 A 
ATOM      2  C   UNL     1      36.662   2.973  16.090  0.00  0.00    +0.000 A 
ATOM      3  S   UNL     1      35.738   2.952  14.580  0.00  0.00    +0.000 S 
ATOM      4  C   UNL     1      36.296   4.379  13.890  0.00  0.00    +0.000 A 
ATOM      5  C   UNL     1      37.171   4.861  14.804  0.00  0.00    +0.000 A 
ATOM      6  C   UNL     1      37.739   6.171  14.242  0.00  0.00    +0.000 C 
ATOM      7  C   UNL     1      36.815   6.582  13.148  0.00  0.00    +0.000 C 
ATOM      8  C   UNL     1      36.187   5.289  12.677  0.00  0.00    +0.000 C 
ENDROOT
BRANCH   1  10
ATOM      9  N   UNL     1      38.602   6.015  17.111  0.00  0.00    +0.000 NA
ATOM     10  C   UNL     1      38.126   4.688  17.099  0.00  0.00    +0.000 C 
ATOM     11  O   UNL     1      38.369   3.991  18.079  0.00  0.00    +0.000 OA
BRANCH   9  17
ATOM     12  C   UNL     1      38.756   7.375  19.131  0.00  0.00    +0.000 A 
ATOM     13  C   UNL     1      39.521   7.789  20.198  0.00  0.00    +0.000 A 
ATOM     14  C   UNL     1      40.824   7.349  20.398  0.00  0.00    +0.000 A 
ATOM     15  C   UNL     1      41.389   6.469  19.509  0.00  0.00    +0.000 A 
ATOM     16  C   UNL     1      40.620   6.056  18.440  0.00  0.00    +0.000 A 
ATOM     17  C   UNL     1      39.328   6.482  18.229  0.00  0.00    +0.000 A 
BRANCH  12  18
ATOM     18  O   UNL     1      37.460   7.824  18.951  0.00  0.00    +0.000 OA
BRANCH  18  20
ATOM     19  C   UNL     1      35.883   9.420  18.027  0.00  0.00    +0.000 C 
ATOM     20  C   UNL     1      37.273   9.179  18.587  0.00  0.00    +0.000 C 
ENDBRANCH  18  20
ENDBRANCH  12  18
ENDBRANCH   9  17
ENDBRANCH   1  10
BRANCH   2  21
ATOM     21  N   UNL     1      36.618   1.841  16.894  0.00  0.00    +0.000 NA
ATOM     22  C   UNL     1      35.635   1.054  17.366  0.00  0.00    +0.000 C 
ATOM     23  O   UNL     1      34.422   1.264  17.150  0.00  0.00    +0.000 OA
BRANCH  22  24
ATOM     24  C   UNL     1      35.884  -0.185  18.215  0.00  0.00    +0.000 C 
BRANCH  24  25
ATOM     25  O   UNL     1      37.283  -0.404  18.198  0.00  0.00    +0.000 OA
BRANCH  25  26
ATOM     26  C   UNL     1      37.834  -1.588  17.765  0.00  0.00    +0.000 A 
ATOM     27  C   UNL     1      37.969  -2.680  18.586  0.00  0.00    +0.000 A 
ATOM     28  C   UNL     1      38.521  -3.871  18.160  0.00  0.00    +0.000 A 
ATOM     29  C   UNL     1      38.960  -3.988  16.867  0.00  0.00    +0.000 A 
ATOM     30  C   UNL     1      38.836  -2.906  16.028  0.00  0.00    +0.000 A 
ATOM     31  C   UNL     1      38.273  -1.702  16.470  0.00  0.00    +0.000 A 
ENDBRANCH  25  26
ENDBRANCH  24  25
ENDBRANCH  22  24
ENDBRANCH   2  21
TORSDOF 8
ENDMDL
MODEL 8
REMARK VINA RESULT:      -6.7     27.421     30.796
REMARK  Name = 
REMARK  8 active torsions:
REMARK  status: ('A' for Active; 'I' for Inactive)
REMARK    1  A    between atoms: C_2  and  O_3
REMARK    2  A    between atoms: O_3  and  C_4
REMARK    3  A    between atoms: C_9  and  N_10
REMARK    4  A    between atoms: C_11  and  C_13
REMARK    5  A    between atoms: C_14  and  N_15
REMARK    6  A    between atoms: C_16  and  C_18
REMARK    7  A    between atoms: C_18  and  O_19
REMARK    8  A    between atoms: O_19  and  C_20
REMARK                            x       y       z     vdW  Elec       q    Type
REMARK                         _______ _______ _______ _____ _____    ______ ____
ROOT
ATOM      1  C   UNL     1      25.327  13.904  41.977  0.00  0.00    +0.000 A 
ATOM      2  C   UNL     1      25.166  14.698  40.897  0.00  0.00    +0.000 A 
ATOM      3  S   UNL     1      23.695  15.578  41.341  0.00  0.00    +0.000 S 
ATOM      4  C   UNL     1      23.401  14.891  42.846  0.00  0.00    +0.000 A 
ATOM      5  C   UNL     1      24.412  14.002  43.000  0.00  0.00    +0.000 A 
ATOM      6  C   UNL     1      24.223  13.332  44.367  0.00  0.00    +0.000 C 
ATOM      7  C   UNL     1      22.817  13.616  44.772  0.00  0.00    +0.000 C 
ATOM      8  C   UNL     1      22.465  14.894  44.043  0.00  0.00    +0.000 C 
ENDROOT
BRANCH   1  10
ATOM      9  N   UNL     1      26.399  11.845  40.937  0.00  0.00    +0.000 NA
ATOM     10  C   UNL     1      26.337  12.805  41.967  0.00  0.00    +0.000 C 
ATOM     11  O   UNL     1      27.153  12.711  42.879  0.00  0.00    +0.000 OA
BRANCH   9  17
ATOM     12  C   UNL     1      27.062   9.552  41.446  0.00  0.00    +0.000 A 
ATOM     13  C   UNL     1      28.067   8.611  41.474  0.00  0.00    +0.000 A 
ATOM     14  C   UNL     1      29.365   8.893  41.068  0.00  0.00    +0.000 A 
ATOM     15  C   UNL     1      29.680  10.152  40.620  0.00  0.00    +0.000 A 
ATOM     16  C   UNL     1      28.671  11.094  40.593  0.00  0.00    +0.000 A 
ATOM     17  C   UNL     1      27.380  10.829  40.992  0.00  0.00    +0.000 A 
BRANCH  12  18
ATOM     18  O   UNL     1      25.776   9.250  41.855  0.00  0.00    +0.000 OA
BRANCH  18  20
ATOM     19  C   UNL     1      24.389   9.754  43.781  0.00  0.00    +0.000 C 
ATOM     20  C   UNL     1      25.563   8.970  43.225  0.00  0.00    +0.000 C 
ENDBRANCH  18  20
ENDBRANCH  12  18
ENDBRANCH   9  17
ENDBRANCH   1  10
BRANCH   2  21
ATOM     21  N   UNL     1      25.850  15.110  39.759  0.00  0.00    +0.000 NA
ATOM     22  C   UNL     1      25.510  15.318  38.475  0.00  0.00    +0.000 C 
ATOM     23  O   UNL     1      24.363  15.115  38.026  0.00  0.00    +0.000 OA
BRANCH  22  24
ATOM     24  C   UNL     1      26.483  15.827  37.421  0.00  0.00    +0.000 C 
BRANCH  24  25
ATOM     25  O   UNL     1      26.407  14.919  36.337  0.00  0.00    +0.000 OA
BRANCH  25  26
ATOM     26  C   UNL     1      25.922  15.288  35.103  0.00  0.00    +0.000 A 
ATOM     27  C   UNL     1      25.918  14.434  34.029  0.00  0.00    +0.000 A 
ATOM     28  C   UNL     1      25.434  14.796  32.789  0.00  0.00    +0.000 A 
ATOM     29  C   UNL     1      24.932  16.057  32.601  0.00  0.00    +0.000 A 
ATOM     30  C   UNL     1      24.927  16.930  33.664  0.00  0.00    +0.000 A 
ATOM     31  C   UNL     1      25.421  16.552  34.919  0.00  0.00    +0.000 A 
ENDBRANCH  25  26
ENDBRANCH  24  25
ENDBRANCH  22  24
ENDBRANCH   2  21
TORSDOF 8
ENDMDL
MODEL 9
REMARK VINA RESULT:      -6.6      2.253      2.522
REMARK  Name = 
REMARK  8 active torsions:
REMARK  status: ('A' for Active; 'I' for Inactive)
REMARK    1  A    between atoms: C_2  and  O_3
REMARK    2  A    between atoms: O_3  and  C_4
REMARK    3  A    between atoms: C_9  and  N_10
REMARK    4  A    between atoms: C_11  and  C_13
REMARK    5  A    between atoms: C_14  and  N_15
REMARK    6  A    between atoms: C_16  and  C_18
REMARK    7  A    between atoms: C_18  and  O_19
REMARK    8  A    between atoms: O_19  and  C_20
REMARK                            x       y       z     vdW  Elec       q    Type
REMARK                         _______ _______ _______ _____ _____    ______ ____
ROOT
ATOM      1  C   UNL     1      38.937   0.350  13.197  0.00  0.00    +0.000 A 
ATOM      2  C   UNL     1      38.688   1.676  13.140  0.00  0.00    +0.000 A 
ATOM      3  S   UNL     1      39.031   2.010  11.434  0.00  0.00    +0.000 S 
ATOM      4  C   UNL     1      39.449   0.464  10.925  0.00  0.00    +0.000 A 
ATOM      5  C   UNL     1      39.330  -0.290  12.044  0.00  0.00    +0.000 A 
ATOM      6  C   UNL     1      39.688  -1.732  11.660  0.00  0.00    +0.000 C 
ATOM      7  C   UNL     1      40.404  -1.643  10.356  0.00  0.00    +0.000 C 
ATOM      8  C   UNL     1      39.893  -0.364   9.731  0.00  0.00    +0.000 C 
ENDROOT
BRANCH   1  10
ATOM      9  N   UNL     1      37.965  -1.213  14.953  0.00  0.00    +0.000 NA
ATOM     10  C   UNL     1      38.992  -0.355  14.511  0.00  0.00    +0.000 C 
ATOM     11  O   UNL     1      39.957  -0.199  15.254  0.00  0.00    +0.000 OA
BRANCH   9  17
ATOM     12  C   UNL     1      37.537  -1.270  17.356  0.00  0.00    +0.000 A 
ATOM     13  C   UNL     1      37.687  -1.942  18.547  0.00  0.00    +0.000 A 
ATOM     14  C   UNL     1      38.354  -3.157  18.640  0.00  0.00    +0.000 A 
ATOM     15  C   UNL     1      38.891  -3.727  17.512  0.00  0.00    +0.000 A 
ATOM     16  C   UNL     1      38.739  -3.051  16.318  0.00  0.00    +0.000 A 
ATOM     17  C   UNL     1      38.081  -1.846  16.211  0.00  0.00    +0.000 A 
BRANCH  12  18
ATOM     18  O   UNL     1      36.869  -0.060  17.285  0.00  0.00    +0.000 OA
BRANCH  18  20
ATOM     19  C   UNL     1      34.882   1.288  16.939  0.00  0.00    +0.000 C 
ATOM     20  C   UNL     1      35.455  -0.085  17.238  0.00  0.00    +0.000 C 
ENDBRANCH  18  20
ENDBRANCH  12  18
ENDBRANCH   9  17
ENDBRANCH   1  10
BRANCH   2  21
ATOM     21  N   UNL     1      38.123   2.693  13.899  0.00  0.00    +0.000 NA
ATOM     22  C   UNL     1      36.865   3.059  14.203  0.00  0.00    +0.000 C 
ATOM     23  O   UNL     1      35.853   2.475  13.763  0.00  0.00    +0.000 OA
BRANCH  22  24
ATOM     24  C   UNL     1      36.529   4.226  15.122  0.00  0.00    +0.000 C 
BRANCH  24  25
ATOM     25  O   UNL     1      37.710   5.001  15.231  0.00  0.00    +0.000 OA
BRANCH  25  26
ATOM     26  C   UNL     1      38.165   5.479  16.438  0.00  0.00    +0.000 A 
ATOM     27  C   UNL     1      38.598   4.649  17.442  0.00  0.00    +0.000 A 
ATOM     28  C   UNL     1      39.055   5.121  18.654  0.00  0.00    +0.000 A 
ATOM     29  C   UNL     1      39.086   6.471  18.888  0.00  0.00    +0.000 A 
ATOM     30  C   UNL     1      38.655   7.321  17.895  0.00  0.00    +0.000 A 
ATOM     31  C   UNL     1      38.193   6.831  16.667  0.00  0.00    +0.000 A 
ENDBRANCH  25  26
ENDBRANCH  24  25
ENDBRANCH  22  24
ENDBRANCH   2  21
TORSDOF 8
ENDMDL
MODEL 10
REMARK VINA RESULT:      -6.6      3.153      7.854
REMARK  Name = 
REMARK  8 active torsions:
REMARK  status: ('A' for Active; 'I' for Inactive)
REMARK    1  A    between atoms: C_2  and  O_3
REMARK    2  A    between atoms: O_3  and  C_4
REMARK    3  A    between atoms: C_9  and  N_10
REMARK    4  A    between atoms: C_11  and  C_13
REMARK    5  A    between atoms: C_14  and  N_15
REMARK    6  A    between atoms: C_16  and  C_18
REMARK    7  A    between atoms: C_18  and  O_19
REMARK    8  A    between atoms: O_19  and  C_20
REMARK                            x       y       z     vdW  Elec       q    Type
REMARK                         _______ _______ _______ _____ _____    ______ ____
ROOT
ATOM      1  C   UNL     1      39.696   5.488  15.352  0.00  0.00    +0.000 A 
ATOM      2  C   UNL     1      38.748   4.708  14.789  0.00  0.00    +0.000 A 
ATOM      3  S   UNL     1      39.637   4.039  13.411  0.00  0.00    +0.000 S 
ATOM      4  C   UNL     1      41.127   4.778  13.652  0.00  0.00    +0.000 A 
ATOM      5  C   UNL     1      40.941   5.526  14.767  0.00  0.00    +0.000 A 
ATOM      6  C   UNL     1      42.269   6.234  15.065  0.00  0.00    +0.000 C 
ATOM      7  C   UNL     1      43.071   6.145  13.812  0.00  0.00    +0.000 C 
ATOM      8  C   UNL     1      42.539   4.916  13.109  0.00  0.00    +0.000 C 
ENDROOT
BRANCH   1  10
ATOM      9  N   UNL     1      38.911   6.010  17.714  0.00  0.00    +0.000 NA
ATOM     10  C   UNL     1      39.343   6.442  16.444  0.00  0.00    +0.000 C 
ATOM     11  O   UNL     1      39.422   7.652  16.254  0.00  0.00    +0.000 OA
BRANCH   9  17
ATOM     12  C   UNL     1      39.379   7.112  19.841  0.00  0.00    +0.000 A 
ATOM     13  C   UNL     1      39.008   8.066  20.762  0.00  0.00    +0.000 A 
ATOM     14  C   UNL     1      37.892   8.875  20.592  0.00  0.00    +0.000 A 
ATOM     15  C   UNL     1      37.114   8.734  19.468  0.00  0.00    +0.000 A 
ATOM     16  C   UNL     1      37.487   7.778  18.547  0.00  0.00    +0.000 A 
ATOM     17  C   UNL     1      38.590   6.968  18.702  0.00  0.00    +0.000 A 
BRANCH  12  18
ATOM     18  O   UNL     1      40.494   6.316  20.030  0.00  0.00    +0.000 OA
BRANCH  18  20
ATOM     19  C   UNL     1      42.699   6.091  21.017  0.00  0.00    +0.000 C 
ATOM     20  C   UNL     1      41.742   6.956  20.219  0.00  0.00    +0.000 C 
ENDBRANCH  18  20
ENDBRANCH  12  18
ENDBRANCH   9  17
ENDBRANCH   1  10
BRANCH   2  21
ATOM     21  N   UNL     1      37.486   4.194  15.058  0.00  0.00    +0.000 NA
ATOM     22  C   UNL     1      36.956   3.461  16.052  0.00  0.00    +0.000 C 
ATOM     23  O   UNL     1      37.618   3.036  17.022  0.00  0.00    +0.000 OA
BRANCH  22  24
ATOM     24  C   UNL     1      35.487   3.065  16.113  0.00  0.00    +0.000 C 
BRANCH  24  25
ATOM     25  O   UNL     1      35.353   1.904  15.312  0.00  0.00    +0.000 OA
BRANCH  25  26
ATOM     26  C   UNL     1      35.439   0.636  15.838  0.00  0.00    +0.000 A 
ATOM     27  C   UNL     1      36.210  -0.346  15.268  0.00  0.00    +0.000 A 
ATOM     28  C   UNL     1      36.301  -1.620  15.789  0.00  0.00    +0.000 A 
ATOM     29  C   UNL     1      35.600  -1.939  16.922  0.00  0.00    +0.000 A 
ATOM     30  C   UNL     1      34.821  -0.970  17.510  0.00  0.00    +0.000 A 
ATOM     31  C   UNL     1      34.736   0.321  16.973  0.00  0.00    +0.000 A 
ENDBRANCH  25  26
ENDBRANCH  24  25
ENDBRANCH  22  24
ENDBRANCH   2  21
TORSDOF 8
ENDMDL
