MODEL 1
REMARK VINA RESULT:      -7.8      0.000      0.000
REMARK  Name = 
REMARK  1 active torsions:
REMARK  status: ('A' for Active; 'I' for Inactive)
REMARK    1  A    between atoms: C_5  and  N_6
REMARK                            x       y       z     vdW  Elec       q    Type
REMARK                         _______ _______ _______ _____ _____    ______ ____
ROOT
ATOM      1  N   UNL     1      14.249  12.303  35.838  0.00  0.00    +0.000 NA
ATOM      2  C   UNL     1      15.292  11.586  36.539  0.00  0.00    +0.000 A 
ATOM      3  N   UNL     1      16.444  11.139  36.063  0.00  0.00    +0.000 NA
ATOM      4  C   UNL     1      17.270  10.511  36.837  0.00  0.00    +0.000 A 
ATOM      5  C   UNL     1      16.905  10.334  38.148  0.00  0.00    +0.000 A 
ATOM      6  S   UNL     1      15.373  11.098  38.172  0.00  0.00    +0.000 S 
ATOM      7  C   UNL     1      17.776   9.631  39.119  0.00  0.00    +0.000 C 
ATOM      8  O   UNL     1      17.225   9.299  40.201  0.00  0.00    +0.000 OA
ATOM      9  C   UNL     1      19.206   9.329  38.845  0.00  0.00    +0.000 C 
ATOM     10  C   UNL     1      19.575  10.181  37.623  0.00  0.00    +0.000 C 
ATOM     11  C   UNL     1      20.972   9.822  37.129  0.00  0.00    +0.000 C 
ATOM     12  C   UNL     1      19.600  11.652  37.984  0.00  0.00    +0.000 C 
ATOM     13  C   UNL     1      18.627   9.933  36.470  0.00  0.00    +0.000 C 
ENDROOT
BRANCH   1  18
ATOM     14  C   UNL     1      14.846  13.399  30.260  0.00  0.00    +0.000 C 
ATOM     15  C   UNL     1      14.680  13.126  31.722  0.00  0.00    +0.000 A 
ATOM     16  C   UNL     1      13.942  13.961  32.539  0.00  0.00    +0.000 A 
ATOM     17  C   UNL     1      13.786  13.712  33.891  0.00  0.00    +0.000 A 
ATOM     18  C   UNL     1      14.363  12.620  34.472  0.00  0.00    +0.000 A 
ATOM     19  C   UNL     1      15.102  11.780  33.667  0.00  0.00    +0.000 A 
ATOM     20  C   UNL     1      15.263  12.019  32.319  0.00  0.00    +0.000 A 
ENDBRANCH   1  18
TORSDOF 1
ENDMDL
MODEL 2
REMARK VINA RESULT:      -7.4      2.303      3.488
REMARK  Name = 
REMARK  1 active torsions:
REMARK  status: ('A' for Active; 'I' for Inactive)
REMARK    1  A    between atoms: C_5  and  N_6
REMARK                            x       y       z     vdW  Elec       q    Type
REMARK                         _______ _______ _______ _____ _____    ______ ____
ROOT
ATOM      1  N   UNL     1      16.953  10.142  36.666  0.00  0.00    +0.000 NA
ATOM      2  C   UNL     1      18.294   9.942  37.172  0.00  0.00    +0.000 A 
ATOM      3  N   UNL     1      19.442  10.041  36.520  0.00  0.00    +0.000 NA
ATOM      4  C   UNL     1      20.561   9.826  37.135  0.00  0.00    +0.000 A 
ATOM      5  C   UNL     1      20.505   9.497  38.465  0.00  0.00    +0.000 A 
ATOM      6  S   UNL     1      18.815   9.522  38.742  0.00  0.00    +0.000 S 
ATOM      7  C   UNL     1      21.725   9.231  39.263  0.00  0.00    +0.000 C 
ATOM      8  O   UNL     1      21.535   8.684  40.380  0.00  0.00    +0.000 OA
ATOM      9  C   UNL     1      23.090   9.580  38.785  0.00  0.00    +0.000 C 
ATOM     10  C   UNL     1      22.874  10.519  37.590  0.00  0.00    +0.000 C 
ATOM     11  C   UNL     1      24.201  10.805  36.895  0.00  0.00    +0.000 C 
ATOM     12  C   UNL     1      22.322  11.852  38.050  0.00  0.00    +0.000 C 
ATOM     13  C   UNL     1      21.965   9.895  36.555  0.00  0.00    +0.000 C 
ENDROOT
BRANCH   1  18
ATOM     14  C   UNL     1      15.840  11.710  31.283  0.00  0.00    +0.000 C 
ATOM     15  C   UNL     1      16.143  11.288  32.686  0.00  0.00    +0.000 A 
ATOM     16  C   UNL     1      17.087  10.319  32.967  0.00  0.00    +0.000 A 
ATOM     17  C   UNL     1      17.370   9.927  34.263  0.00  0.00    +0.000 A 
ATOM     18  C   UNL     1      16.719  10.490  35.323  0.00  0.00    +0.000 A 
ATOM     19  C   UNL     1      15.774  11.457  35.055  0.00  0.00    +0.000 A 
ATOM     20  C   UNL     1      15.486  11.855  33.766  0.00  0.00    +0.000 A 
ENDBRANCH   1  18
TORSDOF 1
ENDMDL
MODEL 3
REMARK VINA RESULT:      -7.3     20.397     23.235
REMARK  Name = 
REMARK  1 active torsions:
REMARK  status: ('A' for Active; 'I' for Inactive)
REMARK    1  A    between atoms: C_5  and  N_6
REMARK                            x       y       z     vdW  Elec       q    Type
REMARK                         _______ _______ _______ _____ _____    ______ ____
ROOT
ATOM      1  N   UNL     1      33.884  -2.079  35.150  0.00  0.00    +0.000 NA
ATOM      2  C   UNL     1      33.755  -3.306  34.394  0.00  0.00    +0.000 A 
ATOM      3  N   UNL     1      33.588  -3.453  33.089  0.00  0.00    +0.000 NA
ATOM      4  C   UNL     1      33.490  -4.637  32.574  0.00  0.00    +0.000 A 
ATOM      5  C   UNL     1      33.567  -5.711  33.424  0.00  0.00    +0.000 A 
ATOM      6  S   UNL     1      33.778  -4.926  34.931  0.00  0.00    +0.000 S 
ATOM      7  C   UNL     1      33.467  -7.107  32.939  0.00  0.00    +0.000 C 
ATOM      8  O   UNL     1      33.283  -7.979  33.828  0.00  0.00    +0.000 OA
ATOM      9  C   UNL     1      33.575  -7.469  31.501  0.00  0.00    +0.000 C 
ATOM     10  C   UNL     1      34.138  -6.219  30.808  0.00  0.00    +0.000 C 
ATOM     11  C   UNL     1      34.124  -6.401  29.294  0.00  0.00    +0.000 C 
ATOM     12  C   UNL     1      35.579  -5.988  31.211  0.00  0.00    +0.000 C 
ATOM     13  C   UNL     1      33.298  -4.997  31.109  0.00  0.00    +0.000 C 
ENDROOT
BRANCH   1  18
ATOM     14  C   UNL     1      33.639   3.129  32.807  0.00  0.00    +0.000 C 
ATOM     15  C   UNL     1      33.708   1.759  33.405  0.00  0.00    +0.000 A 
ATOM     16  C   UNL     1      34.072   0.655  32.658  0.00  0.00    +0.000 A 
ATOM     17  C   UNL     1      34.138  -0.613  33.207  0.00  0.00    +0.000 A 
ATOM     18  C   UNL     1      33.840  -0.820  34.523  0.00  0.00    +0.000 A 
ATOM     19  C   UNL     1      33.475   0.273  35.279  0.00  0.00    +0.000 A 
ATOM     20  C   UNL     1      33.408   1.540  34.740  0.00  0.00    +0.000 A 
ENDBRANCH   1  18
TORSDOF 1
ENDMDL
MODEL 4
REMARK VINA RESULT:      -7.3     19.976     22.842
REMARK  Name = 
REMARK  1 active torsions:
REMARK  status: ('A' for Active; 'I' for Inactive)
REMARK    1  A    between atoms: C_5  and  N_6
REMARK                            x       y       z     vdW  Elec       q    Type
REMARK                         _______ _______ _______ _____ _____    ______ ____
ROOT
ATOM      1  N   UNL     1      33.351  -5.237  33.562  0.00  0.00    +0.000 NA
ATOM      2  C   UNL     1      33.509  -3.903  34.101  0.00  0.00    +0.000 A 
ATOM      3  N   UNL     1      33.794  -2.784  33.453  0.00  0.00    +0.000 NA
ATOM      4  C   UNL     1      33.900  -1.667  34.098  0.00  0.00    +0.000 A 
ATOM      5  C   UNL     1      33.707  -1.694  35.456  0.00  0.00    +0.000 A 
ATOM      6  S   UNL     1      33.381  -3.355  35.712  0.00  0.00    +0.000 S 
ATOM      7  C   UNL     1      33.805  -0.472  36.289  0.00  0.00    +0.000 C 
ATOM      8  O   UNL     1      33.875  -0.666  37.530  0.00  0.00    +0.000 OA
ATOM      9  C   UNL     1      33.821   0.898  35.710  0.00  0.00    +0.000 C 
ATOM     10  C   UNL     1      33.369   0.728  34.252  0.00  0.00    +0.000 C 
ATOM     11  C   UNL     1      33.519   2.043  33.494  0.00  0.00    +0.000 C 
ATOM     12  C   UNL     1      31.904   0.347  34.187  0.00  0.00    +0.000 C 
ATOM     13  C   UNL     1      34.217  -0.293  33.527  0.00  0.00    +0.000 C 
ENDROOT
BRANCH   1  18
ATOM     14  C   UNL     1      33.709  -6.297  27.957  0.00  0.00    +0.000 C 
ATOM     15  C   UNL     1      33.632  -6.019  29.425  0.00  0.00    +0.000 A 
ATOM     16  C   UNL     1      34.768  -5.881  30.200  0.00  0.00    +0.000 A 
ATOM     17  C   UNL     1      34.702  -5.624  31.558  0.00  0.00    +0.000 A 
ATOM     18  C   UNL     1      33.497  -5.498  32.187  0.00  0.00    +0.000 A 
ATOM     19  C   UNL     1      32.357  -5.634  31.425  0.00  0.00    +0.000 A 
ATOM     20  C   UNL     1      32.413  -5.890  30.071  0.00  0.00    +0.000 A 
ENDBRANCH   1  18
TORSDOF 1
ENDMDL
MODEL 5
REMARK VINA RESULT:      -7.0      3.170      4.813
REMARK  Name = 
REMARK  1 active torsions:
REMARK  status: ('A' for Active; 'I' for Inactive)
REMARK    1  A    between atoms: C_5  and  N_6
REMARK                            x       y       z     vdW  Elec       q    Type
REMARK                         _______ _______ _______ _____ _____    ______ ____
ROOT
ATOM      1  N   UNL     1      17.554  10.041  37.074  0.00  0.00    +0.000 NA
ATOM      2  C   UNL     1      18.782  10.712  37.441  0.00  0.00    +0.000 A 
ATOM      3  N   UNL     1      18.959  11.985  37.757  0.00  0.00    +0.000 NA
ATOM      4  C   UNL     1      20.139  12.422  38.063  0.00  0.00    +0.000 A 
ATOM      5  C   UNL     1      21.176  11.524  38.046  0.00  0.00    +0.000 A 
ATOM      6  S   UNL     1      20.365  10.089  37.583  0.00  0.00    +0.000 S 
ATOM      7  C   UNL     1      22.565  11.919  38.380  0.00  0.00    +0.000 C 
ATOM      8  O   UNL     1      23.455  11.086  38.071  0.00  0.00    +0.000 OA
ATOM      9  C   UNL     1      22.898  13.212  39.035  0.00  0.00    +0.000 C 
ATOM     10  C   UNL     1      21.561  13.761  39.555  0.00  0.00    +0.000 C 
ATOM     11  C   UNL     1      21.742  15.178  40.090  0.00  0.00    +0.000 C 
ATOM     12  C   UNL     1      21.047  12.919  40.704  0.00  0.00    +0.000 C 
ATOM     13  C   UNL     1      20.530  13.840  38.451  0.00  0.00    +0.000 C 
ENDROOT
BRANCH   1  18
ATOM     14  C   UNL     1      12.624  12.893  36.593  0.00  0.00    +0.000 C 
ATOM     15  C   UNL     1      13.911  12.143  36.735  0.00  0.00    +0.000 A 
ATOM     16  C   UNL     1      14.274  11.539  37.923  0.00  0.00    +0.000 A 
ATOM     17  C   UNL     1      15.462  10.845  38.059  0.00  0.00    +0.000 A 
ATOM     18  C   UNL     1      16.329  10.730  37.011  0.00  0.00    +0.000 A 
ATOM     19  C   UNL     1      15.978  11.329  35.820  0.00  0.00    +0.000 A 
ATOM     20  C   UNL     1      14.795  12.023  35.675  0.00  0.00    +0.000 A 
ENDBRANCH   1  18
TORSDOF 1
ENDMDL
MODEL 6
REMARK VINA RESULT:      -6.7     19.228     21.485
REMARK  Name = 
REMARK  1 active torsions:
REMARK  status: ('A' for Active; 'I' for Inactive)
REMARK    1  A    between atoms: C_5  and  N_6
REMARK                            x       y       z     vdW  Elec       q    Type
REMARK                         _______ _______ _______ _____ _____    ______ ____
ROOT
ATOM      1  N   UNL     1      32.005  23.640  27.112  0.00  0.00    +0.000 NA
ATOM      2  C   UNL     1      31.053  23.619  26.022  0.00  0.00    +0.000 A 
ATOM      3  N   UNL     1      29.800  23.194  26.035  0.00  0.00    +0.000 NA
ATOM      4  C   UNL     1      29.082  23.249  24.958  0.00  0.00    +0.000 A 
ATOM      5  C   UNL     1      29.668  23.757  23.826  0.00  0.00    +0.000 A 
ATOM      6  S   UNL     1      31.238  24.127  24.403  0.00  0.00    +0.000 S 
ATOM      7  C   UNL     1      28.937  23.864  22.542  0.00  0.00    +0.000 C 
ATOM      8  O   UNL     1      29.649  24.088  21.529  0.00  0.00    +0.000 OA
ATOM      9  C   UNL     1      27.461  23.717  22.442  0.00  0.00    +0.000 C 
ATOM     10  C   UNL     1      26.944  23.811  23.885  0.00  0.00    +0.000 C 
ATOM     11  C   UNL     1      25.454  23.493  23.936  0.00  0.00    +0.000 C 
ATOM     12  C   UNL     1      27.112  25.218  24.422  0.00  0.00    +0.000 C 
ATOM     13  C   UNL     1      27.636  22.812  24.785  0.00  0.00    +0.000 C 
ENDROOT
BRANCH   1  18
ATOM     14  C   UNL     1      30.772  21.562  32.292  0.00  0.00    +0.000 C 
ATOM     15  C   UNL     1      31.084  22.119  30.939  0.00  0.00    +0.000 A 
ATOM     16  C   UNL     1      30.491  23.277  30.473  0.00  0.00    +0.000 A 
ATOM     17  C   UNL     1      30.776  23.795  29.223  0.00  0.00    +0.000 A 
ATOM     18  C   UNL     1      31.665  23.173  28.394  0.00  0.00    +0.000 A 
ATOM     19  C   UNL     1      32.264  22.017  28.847  0.00  0.00    +0.000 A 
ATOM     20  C   UNL     1      31.986  21.493  30.093  0.00  0.00    +0.000 A 
ENDBRANCH   1  18
TORSDOF 1
ENDMDL
MODEL 7
REMARK VINA RESULT:      -6.6     18.259     19.621
REMARK  Name = 
REMARK  1 active torsions:
REMARK  status: ('A' for Active; 'I' for Inactive)
REMARK    1  A    between atoms: C_5  and  N_6
REMARK                            x       y       z     vdW  Elec       q    Type
REMARK                         _______ _______ _______ _____ _____    ______ ____
ROOT
ATOM      1  N   UNL     1      25.977  25.076  25.059  0.00  0.00    +0.000 NA
ATOM      2  C   UNL     1      26.430  24.451  26.283  0.00  0.00    +0.000 A 
ATOM      3  N   UNL     1      27.604  23.891  26.533  0.00  0.00    +0.000 NA
ATOM      4  C   UNL     1      27.844  23.373  27.695  0.00  0.00    +0.000 A 
ATOM      5  C   UNL     1      26.847  23.429  28.636  0.00  0.00    +0.000 A 
ATOM      6  S   UNL     1      25.614  24.238  27.766  0.00  0.00    +0.000 S 
ATOM      7  C   UNL     1      27.017  22.867  29.997  0.00  0.00    +0.000 C 
ATOM      8  O   UNL     1      25.961  22.739  30.667  0.00  0.00    +0.000 OA
ATOM      9  C   UNL     1      28.343  22.474  30.545  0.00  0.00    +0.000 C 
ATOM     10  C   UNL     1      29.376  23.098  29.596  0.00  0.00    +0.000 C 
ATOM     11  C   UNL     1      30.779  22.615  29.948  0.00  0.00    +0.000 C 
ATOM     12  C   UNL     1      29.384  24.607  29.732  0.00  0.00    +0.000 C 
ATOM     13  C   UNL     1      29.123  22.695  28.161  0.00  0.00    +0.000 C 
ENDROOT
BRANCH   1  18
ATOM     14  C   UNL     1      29.408  25.619  20.520  0.00  0.00    +0.000 C 
ATOM     15  C   UNL     1      28.505  25.462  21.703  0.00  0.00    +0.000 A 
ATOM     16  C   UNL     1      27.737  24.328  21.886  0.00  0.00    +0.000 A 
ATOM     17  C   UNL     1      26.901  24.178  22.978  0.00  0.00    +0.000 A 
ATOM     18  C   UNL     1      26.804  25.158  23.924  0.00  0.00    +0.000 A 
ATOM     19  C   UNL     1      27.565  26.294  23.751  0.00  0.00    +0.000 A 
ATOM     20  C   UNL     1      28.401  26.452  22.666  0.00  0.00    +0.000 A 
ENDBRANCH   1  18
TORSDOF 1
ENDMDL
MODEL 8
REMARK VINA RESULT:      -6.5     20.854     23.396
REMARK  Name = 
REMARK  1 active torsions:
REMARK  status: ('A' for Active; 'I' for Inactive)
REMARK    1  A    between atoms: C_5  and  N_6
REMARK                            x       y       z     vdW  Elec       q    Type
REMARK                         _______ _______ _______ _____ _____    ______ ____
ROOT
ATOM      1  N   UNL     1      21.028   1.450  17.777  0.00  0.00    +0.000 NA
ATOM      2  C   UNL     1      20.141   1.764  16.678  0.00  0.00    +0.000 A 
ATOM      3  N   UNL     1      20.312   2.654  15.713  0.00  0.00    +0.000 NA
ATOM      4  C   UNL     1      19.407   2.807  14.799  0.00  0.00    +0.000 A 
ATOM      5  C   UNL     1      18.286   2.020  14.875  0.00  0.00    +0.000 A 
ATOM      6  S   UNL     1      18.620   1.100  16.280  0.00  0.00    +0.000 S 
ATOM      7  C   UNL     1      17.190   2.114  13.881  0.00  0.00    +0.000 C 
ATOM      8  O   UNL     1      16.115   1.545  14.204  0.00  0.00    +0.000 OA
ATOM      9  C   UNL     1      17.338   2.830  12.586  0.00  0.00    +0.000 C 
ATOM     10  C   UNL     1      18.846   3.063  12.420  0.00  0.00    +0.000 C 
ATOM     11  C   UNL     1      19.115   3.954  11.212  0.00  0.00    +0.000 C 
ATOM     12  C   UNL     1      19.566   1.754  12.170  0.00  0.00    +0.000 C 
ATOM     13  C   UNL     1      19.431   3.770  13.623  0.00  0.00    +0.000 C 
ENDROOT
BRANCH   1  18
ATOM     14  C   UNL     1      25.906   4.340  18.499  0.00  0.00    +0.000 C 
ATOM     15  C   UNL     1      24.638   3.570  18.306  0.00  0.00    +0.000 A 
ATOM     16  C   UNL     1      24.645   2.230  17.969  0.00  0.00    +0.000 A 
ATOM     17  C   UNL     1      23.475   1.514  17.790  0.00  0.00    +0.000 A 
ATOM     18  C   UNL     1      22.258   2.113  17.942  0.00  0.00    +0.000 A 
ATOM     19  C   UNL     1      22.238   3.450  18.278  0.00  0.00    +0.000 A 
ATOM     20  C   UNL     1      23.400   4.171  18.459  0.00  0.00    +0.000 A 
ENDBRANCH   1  18
TORSDOF 1
ENDMDL
MODEL 9
REMARK VINA RESULT:      -6.4     18.395     20.119
REMARK  Name = 
REMARK  1 active torsions:
REMARK  status: ('A' for Active; 'I' for Inactive)
REMARK    1  A    between atoms: C_5  and  N_6
REMARK                            x       y       z     vdW  Elec       q    Type
REMARK                         _______ _______ _______ _____ _____    ______ ____
ROOT
ATOM      1  N   UNL     1      25.335  23.901  27.676  0.00  0.00    +0.000 NA
ATOM      2  C   UNL     1      26.305  23.918  26.603  0.00  0.00    +0.000 A 
ATOM      3  N   UNL     1      27.547  24.377  26.626  0.00  0.00    +0.000 NA
ATOM      4  C   UNL     1      28.285  24.313  25.564  0.00  0.00    +0.000 A 
ATOM      5  C   UNL     1      27.734  23.760  24.437  0.00  0.00    +0.000 A 
ATOM      6  S   UNL     1      26.165  23.363  24.995  0.00  0.00    +0.000 S 
ATOM      7  C   UNL     1      28.491  23.638  23.169  0.00  0.00    +0.000 C 
ATOM      8  O   UNL     1      27.804  23.368  22.150  0.00  0.00    +0.000 OA
ATOM      9  C   UNL     1      29.965  23.822  23.091  0.00  0.00    +0.000 C 
ATOM     10  C   UNL     1      30.457  23.780  24.545  0.00  0.00    +0.000 C 
ATOM     11  C   UNL     1      31.937  24.140  24.614  0.00  0.00    +0.000 C 
ATOM     12  C   UNL     1      30.317  22.385  25.117  0.00  0.00    +0.000 C 
ATOM     13  C   UNL     1      29.723  24.784  25.405  0.00  0.00    +0.000 C 
ENDROOT
BRANCH   1  18
ATOM     14  C   UNL     1      26.443  26.165  32.805  0.00  0.00    +0.000 C 
ATOM     15  C   UNL     1      26.162  25.559  31.467  0.00  0.00    +0.000 A 
ATOM     16  C   UNL     1      26.655  24.318  31.112  0.00  0.00    +0.000 A 
ATOM     17  C   UNL     1      26.398  23.753  29.875  0.00  0.00    +0.000 A 
ATOM     18  C   UNL     1      25.638  24.411  28.951  0.00  0.00    +0.000 A 
ATOM     19  C   UNL     1      25.141  25.650  29.293  0.00  0.00    +0.000 A 
ATOM     20  C   UNL     1      25.392  26.220  30.524  0.00  0.00    +0.000 A 
ENDBRANCH   1  18
TORSDOF 1
ENDMDL
MODEL 10
REMARK VINA RESULT:      -6.3      3.943      5.807
REMARK  Name = 
REMARK  1 active torsions:
REMARK  status: ('A' for Active; 'I' for Inactive)
REMARK    1  A    between atoms: C_5  and  N_6
REMARK                            x       y       z     vdW  Elec       q    Type
REMARK                         _______ _______ _______ _____ _____    ______ ____
ROOT
ATOM      1  N   UNL     1      19.389   9.280  38.194  0.00  0.00    +0.000 NA
ATOM      2  C   UNL     1      20.766   9.689  38.365  0.00  0.00    +0.000 A 
ATOM      3  N   UNL     1      21.457  10.566  37.653  0.00  0.00    +0.000 NA
ATOM      4  C   UNL     1      22.693  10.815  37.947  0.00  0.00    +0.000 A 
ATOM      5  C   UNL     1      23.244  10.143  39.008  0.00  0.00    +0.000 A 
ATOM      6  S   UNL     1      21.920   9.184  39.517  0.00  0.00    +0.000 S 
ATOM      7  C   UNL     1      24.649  10.353  39.429  0.00  0.00    +0.000 C 
ATOM      8  O   UNL     1      25.110   9.497  40.228  0.00  0.00    +0.000 OA
ATOM      9  C   UNL     1      25.471  11.495  38.947  0.00  0.00    +0.000 C 
ATOM     10  C   UNL     1      24.475  12.470  38.303  0.00  0.00    +0.000 C 
ATOM     11  C   UNL     1      25.219  13.603  37.604  0.00  0.00    +0.000 C 
ATOM     12  C   UNL     1      23.593  13.106  39.356  0.00  0.00    +0.000 C 
ATOM     13  C   UNL     1      23.634  11.784  37.249  0.00  0.00    +0.000 C 
ENDROOT
BRANCH   1  18
ATOM     14  C   UNL     1      16.189  11.284  33.903  0.00  0.00    +0.000 C 
ATOM     15  C   UNL     1      17.021  10.772  35.036  0.00  0.00    +0.000 A 
ATOM     16  C   UNL     1      17.038  11.398  36.267  0.00  0.00    +0.000 A 
ATOM     17  C   UNL     1      17.806  10.928  37.318  0.00  0.00    +0.000 A 
ATOM     18  C   UNL     1      18.583   9.815  37.173  0.00  0.00    +0.000 A 
ATOM     19  C   UNL     1      18.575   9.182  35.949  0.00  0.00    +0.000 A 
ATOM     20  C   UNL     1      17.812   9.643  34.896  0.00  0.00    +0.000 A 
ENDBRANCH   1  18
TORSDOF 1
ENDMDL
