MODEL 1
REMARK VINA RESULT:      -7.6      0.000      0.000
REMARK  Name = 
REMARK  10 active torsions:
REMARK  status: ('A' for Active; 'I' for Inactive)
REMARK    1  A    between atoms: C_2  and  O_3
REMARK    2  A    between atoms: O_3  and  C_4
REMARK    3  A    between atoms: C_4  and  C_6
REMARK    4  A    between atoms: C_7  and  N_8
REMARK    5  A    between atoms: C_9  and  C_11
REMARK    6  A    between atoms: C_11  and  N_12
REMARK    7  A    between atoms: N_12  and  C_13
REMARK    8  A    between atoms: C_13  and  C_14
REMARK    9  A    between atoms: C_14  and  C_15
REMARK   10  A    between atoms: C_24  and  C_25
REMARK                            x       y       z     vdW  Elec       q    Type
REMARK                         _______ _______ _______ _____ _____    ______ ____
ROOT
ATOM      1  C   UNL     1      37.600  -0.516  15.321  0.00  0.00    +0.000 A 
ATOM      2  C   UNL     1      38.284   0.561  14.827  0.00  0.00    +0.000 A 
ATOM      3  S   UNL     1      39.182  -0.087  13.540  0.00  0.00    +0.000 S 
ATOM      4  C   UNL     1      38.677  -1.712  13.647  0.00  0.00    +0.000 A 
ATOM      5  C   UNL     1      39.078  -2.898  12.793  0.00  0.00    +0.000 C 
ATOM      6  C   UNL     1      37.813  -1.700  14.695  0.00  0.00    +0.000 A 
ENDROOT
BRANCH   6   7
ATOM      7  C   UNL     1      37.142  -2.958  15.119  0.00  0.00    +0.000 A 
ATOM      8  C   UNL     1      37.779  -3.696  16.083  0.00  0.00    +0.000 A 
ATOM      9  C   UNL     1      37.272  -4.896  16.572  0.00  0.00    +0.000 A 
ATOM     10  C   UNL     1      36.066  -5.344  16.046  0.00  0.00    +0.000 A 
ATOM     11  C   UNL     1      35.433  -6.617  16.496  0.00  0.00    +0.000 C 
ATOM     12  C   UNL     1      35.438  -4.592  15.079  0.00  0.00    +0.000 A 
ATOM     13  C   UNL     1      35.960  -3.391  14.598  0.00  0.00    +0.000 A 
ENDBRANCH   6   7
BRANCH   2  14
ATOM     14  N   UNL     1      38.256   1.924  15.283  0.00  0.00    +0.000 NA
ATOM     15  C   UNL     1      37.324   2.844  14.704  0.00  0.00    +0.000 C 
ATOM     16  O   UNL     1      36.570   2.388  13.809  0.00  0.00    +0.000 OA
BRANCH  15  17
ATOM     17  C   UNL     1      37.272   4.274  15.163  0.00  0.00    +0.000 C 
BRANCH  17  18
ATOM     18  N   UNL     1      37.512   4.260  16.592  0.00  0.00    +0.000 NA
BRANCH  18  19
ATOM     19  C   UNL     1      38.556   5.218  16.872  0.00  0.00    +0.000 C 
BRANCH  19  20
ATOM     20  C   UNL     1      38.904   5.142  18.329  0.00  0.00    +0.000 C 
BRANCH  20  21
ATOM     21  C   UNL     1      40.161   5.865  18.610  0.00  0.00    +0.000 A 
ATOM     22  C   UNL     1      40.506   6.273  19.898  0.00  0.00    +0.000 A 
ATOM     23  C   UNL     1      41.688   6.945  20.113  0.00  0.00    +0.000 A 
ATOM     24  C   UNL     1      42.571   7.244  19.101  0.00  0.00    +0.000 A 
ATOM     25  C   UNL     1      42.241   6.845  17.821  0.00  0.00    +0.000 A 
ATOM     26  C   UNL     1      41.055   6.171  17.611  0.00  0.00    +0.000 A 
ENDBRANCH  20  21
ENDBRANCH  19  20
ENDBRANCH  18  19
ENDBRANCH  17  18
ENDBRANCH  15  17
ENDBRANCH   2  14
BRANCH   1  27
ATOM     27  C   UNL     1      36.682  -0.347  16.485  0.00  0.00    +0.000 C 
ATOM     28  O   UNL     1      35.473  -0.092  16.308  0.00  0.00    +0.000 OA
BRANCH  27  29
ATOM     29  O   UNL     1      37.113  -0.461  17.790  0.00  0.00    +0.000 OA
BRANCH  29  31
ATOM     30  C   UNL     1      37.422  -2.067  19.484  0.00  0.00    +0.000 C 
ATOM     31  C   UNL     1      36.407  -1.191  18.778  0.00  0.00    +0.000 C 
ENDBRANCH  29  31
ENDBRANCH  27  29
ENDBRANCH   1  27
TORSDOF 10
ENDMDL
MODEL 2
REMARK VINA RESULT:      -7.6      1.232      1.911
REMARK  Name = 
REMARK  10 active torsions:
REMARK  status: ('A' for Active; 'I' for Inactive)
REMARK    1  A    between atoms: C_2  and  O_3
REMARK    2  A    between atoms: O_3  and  C_4
REMARK    3  A    between atoms: C_4  and  C_6
REMARK    4  A    between atoms: C_7  and  N_8
REMARK    5  A    between atoms: C_9  and  C_11
REMARK    6  A    between atoms: C_11  and  N_12
REMARK    7  A    between atoms: N_12  and  C_13
REMARK    8  A    between atoms: C_13  and  C_14
REMARK    9  A    between atoms: C_14  and  C_15
REMARK   10  A    between atoms: C_24  and  C_25
REMARK                            x       y       z     vdW  Elec       q    Type
REMARK                         _______ _______ _______ _____ _____    ______ ____
ROOT
ATOM      1  C   UNL     1      37.536  -0.655  15.390  0.00  0.00    +0.000 A 
ATOM      2  C   UNL     1      38.253   0.415  14.931  0.00  0.00    +0.000 A 
ATOM      3  S   UNL     1      39.131  -0.221  13.623  0.00  0.00    +0.000 S 
ATOM      4  C   UNL     1      38.575  -1.831  13.679  0.00  0.00    +0.000 A 
ATOM      5  C   UNL     1      38.938  -3.002  12.787  0.00  0.00    +0.000 C 
ATOM      6  C   UNL     1      37.711  -1.825  14.728  0.00  0.00    +0.000 A 
ENDROOT
BRANCH   6   7
ATOM      7  C   UNL     1      37.000  -3.073  15.112  0.00  0.00    +0.000 A 
ATOM      8  C   UNL     1      35.776  -3.283  14.531  0.00  0.00    +0.000 A 
ATOM      9  C   UNL     1      34.996  -4.404  14.800  0.00  0.00    +0.000 A 
ATOM     10  C   UNL     1      35.501  -5.335  15.699  0.00  0.00    +0.000 A 
ATOM     11  C   UNL     1      34.747  -6.570  16.062  0.00  0.00    +0.000 C 
ATOM     12  C   UNL     1      36.731  -5.111  16.275  0.00  0.00    +0.000 A 
ATOM     13  C   UNL     1      37.501  -3.982  15.995  0.00  0.00    +0.000 A 
ENDBRANCH   6   7
BRANCH   2  14
ATOM     14  N   UNL     1      38.269   1.763  15.429  0.00  0.00    +0.000 NA
ATOM     15  C   UNL     1      37.289   2.699  14.965  0.00  0.00    +0.000 C 
ATOM     16  O   UNL     1      36.458   2.271  14.129  0.00  0.00    +0.000 OA
BRANCH  15  17
ATOM     17  C   UNL     1      37.282   4.115  15.471  0.00  0.00    +0.000 C 
BRANCH  17  18
ATOM     18  N   UNL     1      38.528   4.306  16.187  0.00  0.00    +0.000 NA
BRANCH  18  19
ATOM     19  C   UNL     1      38.202   4.634  17.556  0.00  0.00    +0.000 C 
BRANCH  19  20
ATOM     20  C   UNL     1      39.374   5.334  18.177  0.00  0.00    +0.000 C 
BRANCH  20  21
ATOM     21  C   UNL     1      38.939   6.541  18.909  0.00  0.00    +0.000 A 
ATOM     22  C   UNL     1      37.878   7.331  18.468  0.00  0.00    +0.000 A 
ATOM     23  C   UNL     1      37.507   8.447  19.183  0.00  0.00    +0.000 A 
ATOM     24  C   UNL     1      38.143   8.836  20.339  0.00  0.00    +0.000 A 
ATOM     25  C   UNL     1      39.195   8.063  20.787  0.00  0.00    +0.000 A 
ATOM     26  C   UNL     1      39.562   6.944  20.067  0.00  0.00    +0.000 A 
ENDBRANCH  20  21
ENDBRANCH  19  20
ENDBRANCH  18  19
ENDBRANCH  17  18
ENDBRANCH  15  17
ENDBRANCH   2  14
BRANCH   1  27
ATOM     27  C   UNL     1      36.623  -0.494  16.560  0.00  0.00    +0.000 C 
ATOM     28  O   UNL     1      35.399  -0.322  16.390  0.00  0.00    +0.000 OA
BRANCH  27  29
ATOM     29  O   UNL     1      37.076  -0.525  17.862  0.00  0.00    +0.000 OA
BRANCH  29  31
ATOM     30  C   UNL     1      38.091  -2.262  19.087  0.00  0.00    +0.000 C 
ATOM     31  C   UNL     1      36.778  -1.579  18.761  0.00  0.00    +0.000 C 
ENDBRANCH  29  31
ENDBRANCH  27  29
ENDBRANCH   1  27
TORSDOF 10
ENDMDL
MODEL 3
REMARK VINA RESULT:      -7.3      1.952      3.000
REMARK  Name = 
REMARK  10 active torsions:
REMARK  status: ('A' for Active; 'I' for Inactive)
REMARK    1  A    between atoms: C_2  and  O_3
REMARK    2  A    between atoms: O_3  and  C_4
REMARK    3  A    between atoms: C_4  and  C_6
REMARK    4  A    between atoms: C_7  and  N_8
REMARK    5  A    between atoms: C_9  and  C_11
REMARK    6  A    between atoms: C_11  and  N_12
REMARK    7  A    between atoms: N_12  and  C_13
REMARK    8  A    between atoms: C_13  and  C_14
REMARK    9  A    between atoms: C_14  and  C_15
REMARK   10  A    between atoms: C_24  and  C_25
REMARK                            x       y       z     vdW  Elec       q    Type
REMARK                         _______ _______ _______ _____ _____    ______ ____
ROOT
ATOM      1  C   UNL     1      37.001   0.413  15.415  0.00  0.00    +0.000 A 
ATOM      2  C   UNL     1      36.585   1.715  15.354  0.00  0.00    +0.000 A 
ATOM      3  S   UNL     1      35.151   1.723  16.265  0.00  0.00    +0.000 S 
ATOM      4  C   UNL     1      35.102   0.078  16.709  0.00  0.00    +0.000 A 
ATOM      5  C   UNL     1      34.077  -0.658  17.549  0.00  0.00    +0.000 C 
ATOM      6  C   UNL     1      36.218  -0.434  16.127  0.00  0.00    +0.000 A 
ENDROOT
BRANCH   6   7
ATOM      7  C   UNL     1      36.541  -1.878  16.282  0.00  0.00    +0.000 A 
ATOM      8  C   UNL     1      37.265  -2.226  17.393  0.00  0.00    +0.000 A 
ATOM      9  C   UNL     1      37.645  -3.537  17.666  0.00  0.00    +0.000 A 
ATOM     10  C   UNL     1      37.260  -4.517  16.758  0.00  0.00    +0.000 A 
ATOM     11  C   UNL     1      37.615  -5.953  16.951  0.00  0.00    +0.000 C 
ATOM     12  C   UNL     1      36.533  -4.152  15.648  0.00  0.00    +0.000 A 
ATOM     13  C   UNL     1      36.161  -2.833  15.388  0.00  0.00    +0.000 A 
ENDBRANCH   6   7
BRANCH   2  14
ATOM     14  N   UNL     1      37.206   2.822  14.680  0.00  0.00    +0.000 NA
ATOM     15  C   UNL     1      38.048   3.715  15.417  0.00  0.00    +0.000 C 
ATOM     16  O   UNL     1      38.193   3.468  16.639  0.00  0.00    +0.000 OA
BRANCH  15  17
ATOM     17  C   UNL     1      38.711   4.881  14.737  0.00  0.00    +0.000 C 
BRANCH  17  18
ATOM     18  N   UNL     1      38.189   6.079  15.365  0.00  0.00    +0.000 NA
BRANCH  18  19
ATOM     19  C   UNL     1      39.311   6.928  15.691  0.00  0.00    +0.000 C 
BRANCH  19  20
ATOM     20  C   UNL     1      40.481   6.064  16.055  0.00  0.00    +0.000 C 
BRANCH  20  21
ATOM     21  C   UNL     1      40.835   6.228  17.480  0.00  0.00    +0.000 A 
ATOM     22  C   UNL     1      39.884   6.118  18.494  0.00  0.00    +0.000 A 
ATOM     23  C   UNL     1      40.258   6.278  19.809  0.00  0.00    +0.000 A 
ATOM     24  C   UNL     1      41.554   6.549  20.187  0.00  0.00    +0.000 A 
ATOM     25  C   UNL     1      42.505   6.660  19.192  0.00  0.00    +0.000 A 
ATOM     26  C   UNL     1      42.124   6.497  17.876  0.00  0.00    +0.000 A 
ENDBRANCH  20  21
ENDBRANCH  19  20
ENDBRANCH  18  19
ENDBRANCH  17  18
ENDBRANCH  15  17
ENDBRANCH   2  14
BRANCH   1  27
ATOM     27  C   UNL     1      38.254  -0.003  14.719  0.00  0.00    +0.000 C 
ATOM     28  O   UNL     1      38.291  -0.084  13.474  0.00  0.00    +0.000 OA
BRANCH  27  29
ATOM     29  O   UNL     1      39.411  -0.314  15.402  0.00  0.00    +0.000 OA
BRANCH  29  31
ATOM     30  C   UNL     1      40.242  -2.510  15.213  0.00  0.00    +0.000 C 
ATOM     31  C   UNL     1      40.470  -1.061  14.830  0.00  0.00    +0.000 C 
ENDBRANCH  29  31
ENDBRANCH  27  29
ENDBRANCH   1  27
TORSDOF 10
ENDMDL
MODEL 4
REMARK VINA RESULT:      -7.2      1.945      3.323
REMARK  Name = 
REMARK  10 active torsions:
REMARK  status: ('A' for Active; 'I' for Inactive)
REMARK    1  A    between atoms: C_2  and  O_3
REMARK    2  A    between atoms: O_3  and  C_4
REMARK    3  A    between atoms: C_4  and  C_6
REMARK    4  A    between atoms: C_7  and  N_8
REMARK    5  A    between atoms: C_9  and  C_11
REMARK    6  A    between atoms: C_11  and  N_12
REMARK    7  A    between atoms: N_12  and  C_13
REMARK    8  A    between atoms: C_13  and  C_14
REMARK    9  A    between atoms: C_14  and  C_15
REMARK   10  A    between atoms: C_24  and  C_25
REMARK                            x       y       z     vdW  Elec       q    Type
REMARK                         _______ _______ _______ _____ _____    ______ ____
ROOT
ATOM      1  C   UNL     1      36.396  -1.222  15.724  0.00  0.00    +0.000 A 
ATOM      2  C   UNL     1      36.470   0.085  16.119  0.00  0.00    +0.000 A 
ATOM      3  S   UNL     1      35.101   0.288  17.103  0.00  0.00    +0.000 S 
ATOM      4  C   UNL     1      34.456  -1.287  16.999  0.00  0.00    +0.000 A 
ATOM      5  C   UNL     1      33.207  -1.855  17.643  0.00  0.00    +0.000 C 
ATOM      6  C   UNL     1      35.338  -1.931  16.191  0.00  0.00    +0.000 A 
ENDROOT
BRANCH   6   7
ATOM      7  C   UNL     1      35.123  -3.362  15.848  0.00  0.00    +0.000 A 
ATOM      8  C   UNL     1      34.165  -3.627  14.904  0.00  0.00    +0.000 A 
ATOM      9  C   UNL     1      33.852  -4.918  14.487  0.00  0.00    +0.000 A 
ATOM     10  C   UNL     1      34.556  -5.966  15.068  0.00  0.00    +0.000 A 
ATOM     11  C   UNL     1      34.300  -7.388  14.698  0.00  0.00    +0.000 C 
ATOM     12  C   UNL     1      35.515  -5.684  16.015  0.00  0.00    +0.000 A 
ATOM     13  C   UNL     1      35.817  -4.385  16.422  0.00  0.00    +0.000 A 
ENDBRANCH   6   7
BRANCH   2  14
ATOM     14  N   UNL     1      37.468   1.065  15.785  0.00  0.00    +0.000 NA
ATOM     15  C   UNL     1      37.165   2.081  14.822  0.00  0.00    +0.000 C 
ATOM     16  O   UNL     1      36.016   2.050  14.318  0.00  0.00    +0.000 OA
BRANCH  15  17
ATOM     17  C   UNL     1      38.189   3.119  14.455  0.00  0.00    +0.000 C 
BRANCH  17  18
ATOM     18  N   UNL     1      38.889   3.461  15.678  0.00  0.00    +0.000 NA
BRANCH  18  19
ATOM     19  C   UNL     1      38.582   4.837  15.990  0.00  0.00    +0.000 C 
BRANCH  19  20
ATOM     20  C   UNL     1      38.429   4.973  17.476  0.00  0.00    +0.000 C 
BRANCH  20  21
ATOM     21  C   UNL     1      39.605   5.642  18.068  0.00  0.00    +0.000 A 
ATOM     22  C   UNL     1      39.647   6.007  19.414  0.00  0.00    +0.000 A 
ATOM     23  C   UNL     1      40.764   6.630  19.923  0.00  0.00    +0.000 A 
ATOM     24  C   UNL     1      41.870   6.920  19.157  0.00  0.00    +0.000 A 
ATOM     25  C   UNL     1      41.840   6.564  17.823  0.00  0.00    +0.000 A 
ATOM     26  C   UNL     1      40.718   5.939  17.318  0.00  0.00    +0.000 A 
ENDBRANCH  20  21
ENDBRANCH  19  20
ENDBRANCH  18  19
ENDBRANCH  17  18
ENDBRANCH  15  17
ENDBRANCH   2  14
BRANCH   1  27
ATOM     27  C   UNL     1      37.445  -1.792  14.828  0.00  0.00    +0.000 C 
ATOM     28  O   UNL     1      38.403  -2.436  15.303  0.00  0.00    +0.000 OA
BRANCH  27  29
ATOM     29  O   UNL     1      37.411  -1.639  13.458  0.00  0.00    +0.000 OA
BRANCH  29  31
ATOM     30  C   UNL     1      37.556   0.090  11.865  0.00  0.00    +0.000 C 
ATOM     31  C   UNL     1      38.351  -0.855  12.744  0.00  0.00    +0.000 C 
ENDBRANCH  29  31
ENDBRANCH  27  29
ENDBRANCH   1  27
TORSDOF 10
ENDMDL
MODEL 5
REMARK VINA RESULT:      -7.2      1.632      2.199
REMARK  Name = 
REMARK  10 active torsions:
REMARK  status: ('A' for Active; 'I' for Inactive)
REMARK    1  A    between atoms: C_2  and  O_3
REMARK    2  A    between atoms: O_3  and  C_4
REMARK    3  A    between atoms: C_4  and  C_6
REMARK    4  A    between atoms: C_7  and  N_8
REMARK    5  A    between atoms: C_9  and  C_11
REMARK    6  A    between atoms: C_11  and  N_12
REMARK    7  A    between atoms: N_12  and  C_13
REMARK    8  A    between atoms: C_13  and  C_14
REMARK    9  A    between atoms: C_14  and  C_15
REMARK   10  A    between atoms: C_24  and  C_25
REMARK                            x       y       z     vdW  Elec       q    Type
REMARK                         _______ _______ _______ _____ _____    ______ ____
ROOT
ATOM      1  C   UNL     1      37.395   0.003  14.275  0.00  0.00    +0.000 A 
ATOM      2  C   UNL     1      37.529   1.020  13.371  0.00  0.00    +0.000 A 
ATOM      3  S   UNL     1      38.423   0.320  12.107  0.00  0.00    +0.000 S 
ATOM      4  C   UNL     1      38.612  -1.250  12.745  0.00  0.00    +0.000 A 
ATOM      5  C   UNL     1      39.321  -2.448  12.147  0.00  0.00    +0.000 C 
ATOM      6  C   UNL     1      37.964  -1.181  13.937  0.00  0.00    +0.000 A 
ENDROOT
BRANCH   6   7
ATOM      7  C   UNL     1      37.902  -2.376  14.819  0.00  0.00    +0.000 A 
ATOM      8  C   UNL     1      36.902  -3.277  14.557  0.00  0.00    +0.000 A 
ATOM      9  C   UNL     1      36.719  -4.438  15.302  0.00  0.00    +0.000 A 
ATOM     10  C   UNL     1      37.600  -4.672  16.352  0.00  0.00    +0.000 A 
ATOM     11  C   UNL     1      37.493  -5.883  17.216  0.00  0.00    +0.000 C 
ATOM     12  C   UNL     1      38.598  -3.758  16.603  0.00  0.00    +0.000 A 
ATOM     13  C   UNL     1      38.769  -2.598  15.847  0.00  0.00    +0.000 A 
ENDBRANCH   6   7
BRANCH   2  14
ATOM     14  N   UNL     1      37.035   2.367  13.459  0.00  0.00    +0.000 NA
ATOM     15  C   UNL     1      37.891   3.403  13.952  0.00  0.00    +0.000 C 
ATOM     16  O   UNL     1      39.052   3.058  14.285  0.00  0.00    +0.000 OA
BRANCH  15  17
ATOM     17  C   UNL     1      37.401   4.820  14.054  0.00  0.00    +0.000 C 
BRANCH  17  18
ATOM     18  N   UNL     1      37.243   5.104  15.466  0.00  0.00    +0.000 NA
BRANCH  18  19
ATOM     19  C   UNL     1      38.246   6.076  15.834  0.00  0.00    +0.000 C 
BRANCH  19  20
ATOM     20  C   UNL     1      39.139   5.478  16.879  0.00  0.00    +0.000 C 
BRANCH  20  21
ATOM     21  C   UNL     1      39.140   6.301  18.106  0.00  0.00    +0.000 A 
ATOM     22  C   UNL     1      40.072   6.107  19.125  0.00  0.00    +0.000 A 
ATOM     23  C   UNL     1      40.036   6.897  20.251  0.00  0.00    +0.000 A 
ATOM     24  C   UNL     1      39.105   7.895  20.431  0.00  0.00    +0.000 A 
ATOM     25  C   UNL     1      38.176   8.097  19.430  0.00  0.00    +0.000 A 
ATOM     26  C   UNL     1      38.218   7.302  18.302  0.00  0.00    +0.000 A 
ENDBRANCH  20  21
ENDBRANCH  19  20
ENDBRANCH  18  19
ENDBRANCH  17  18
ENDBRANCH  15  17
ENDBRANCH   2  14
BRANCH   1  27
ATOM     27  C   UNL     1      36.653   0.231  15.550  0.00  0.00    +0.000 C 
ATOM     28  O   UNL     1      37.203   0.812  16.508  0.00  0.00    +0.000 OA
BRANCH  27  29
ATOM     29  O   UNL     1      35.350  -0.181  15.732  0.00  0.00    +0.000 OA
BRANCH  29  31
ATOM     30  C   UNL     1      34.646  -1.900  17.180  0.00  0.00    +0.000 C 
ATOM     31  C   UNL     1      34.778  -0.400  17.010  0.00  0.00    +0.000 C 
ENDBRANCH  29  31
ENDBRANCH  27  29
ENDBRANCH   1  27
TORSDOF 10
ENDMDL
MODEL 6
REMARK VINA RESULT:      -7.1      2.397      8.423
REMARK  Name = 
REMARK  10 active torsions:
REMARK  status: ('A' for Active; 'I' for Inactive)
REMARK    1  A    between atoms: C_2  and  O_3
REMARK    2  A    between atoms: O_3  and  C_4
REMARK    3  A    between atoms: C_4  and  C_6
REMARK    4  A    between atoms: C_7  and  N_8
REMARK    5  A    between atoms: C_9  and  C_11
REMARK    6  A    between atoms: C_11  and  N_12
REMARK    7  A    between atoms: N_12  and  C_13
REMARK    8  A    between atoms: C_13  and  C_14
REMARK    9  A    between atoms: C_14  and  C_15
REMARK   10  A    between atoms: C_24  and  C_25
REMARK                            x       y       z     vdW  Elec       q    Type
REMARK                         _______ _______ _______ _____ _____    ______ ____
ROOT
ATOM      1  C   UNL     1      38.606   4.136  15.591  0.00  0.00    +0.000 A 
ATOM      2  C   UNL     1      38.945   3.490  14.434  0.00  0.00    +0.000 A 
ATOM      3  S   UNL     1      40.342   4.305  13.912  0.00  0.00    +0.000 S 
ATOM      4  C   UNL     1      40.474   5.450  15.169  0.00  0.00    +0.000 A 
ATOM      5  C   UNL     1      41.512   6.536  15.370  0.00  0.00    +0.000 C 
ATOM      6  C   UNL     1      39.413   5.159  15.966  0.00  0.00    +0.000 A 
ENDROOT
BRANCH   6   7
ATOM      7  C   UNL     1      39.171   5.954  17.200  0.00  0.00    +0.000 A 
ATOM      8  C   UNL     1      38.354   7.048  17.071  0.00  0.00    +0.000 A 
ATOM      9  C   UNL     1      38.044   7.886  18.138  0.00  0.00    +0.000 A 
ATOM     10  C   UNL     1      38.597   7.580  19.376  0.00  0.00    +0.000 A 
ATOM     11  C   UNL     1      38.332   8.412  20.585  0.00  0.00    +0.000 C 
ATOM     12  C   UNL     1      39.415   6.479  19.489  0.00  0.00    +0.000 A 
ATOM     13  C   UNL     1      39.718   5.648  18.410  0.00  0.00    +0.000 A 
ENDBRANCH   6   7
BRANCH   2  14
ATOM     14  N   UNL     1      38.283   2.383  13.800  0.00  0.00    +0.000 NA
ATOM     15  C   UNL     1      38.696   1.046  14.103  0.00  0.00    +0.000 C 
ATOM     16  O   UNL     1      39.636   0.923  14.926  0.00  0.00    +0.000 OA
BRANCH  15  17
ATOM     17  C   UNL     1      38.020  -0.130  13.455  0.00  0.00    +0.000 C 
BRANCH  17  18
ATOM     18  N   UNL     1      38.594  -1.319  14.053  0.00  0.00    +0.000 NA
BRANCH  18  19
ATOM     19  C   UNL     1      37.506  -2.132  14.545  0.00  0.00    +0.000 C 
BRANCH  19  20
ATOM     20  C   UNL     1      37.826  -2.573  15.943  0.00  0.00    +0.000 C 
BRANCH  20  21
ATOM     21  C   UNL     1      37.058  -1.789  16.932  0.00  0.00    +0.000 A 
ATOM     22  C   UNL     1      37.495  -1.627  18.246  0.00  0.00    +0.000 A 
ATOM     23  C   UNL     1      36.747  -0.888  19.134  0.00  0.00    +0.000 A 
ATOM     24  C   UNL     1      35.560  -0.284  18.787  0.00  0.00    +0.000 A 
ATOM     25  C   UNL     1      35.116  -0.437  17.488  0.00  0.00    +0.000 A 
ATOM     26  C   UNL     1      35.871  -1.178  16.602  0.00  0.00    +0.000 A 
ENDBRANCH  20  21
ENDBRANCH  19  20
ENDBRANCH  18  19
ENDBRANCH  17  18
ENDBRANCH  15  17
ENDBRANCH   2  14
BRANCH   1  27
ATOM     27  C   UNL     1      37.405   3.701  16.364  0.00  0.00    +0.000 C 
ATOM     28  O   UNL     1      37.533   3.143  17.472  0.00  0.00    +0.000 OA
BRANCH  27  29
ATOM     29  O   UNL     1      36.120   3.889  15.901  0.00  0.00    +0.000 OA
BRANCH  29  31
ATOM     30  C   UNL     1      35.040   2.189  14.680  0.00  0.00    +0.000 C 
ATOM     31  C   UNL     1      35.106   2.906  16.013  0.00  0.00    +0.000 C 
ENDBRANCH  29  31
ENDBRANCH  27  29
ENDBRANCH   1  27
TORSDOF 10
ENDMDL
MODEL 7
REMARK VINA RESULT:      -6.9      1.784      2.392
REMARK  Name = 
REMARK  10 active torsions:
REMARK  status: ('A' for Active; 'I' for Inactive)
REMARK    1  A    between atoms: C_2  and  O_3
REMARK    2  A    between atoms: O_3  and  C_4
REMARK    3  A    between atoms: C_4  and  C_6
REMARK    4  A    between atoms: C_7  and  N_8
REMARK    5  A    between atoms: C_9  and  C_11
REMARK    6  A    between atoms: C_11  and  N_12
REMARK    7  A    between atoms: N_12  and  C_13
REMARK    8  A    between atoms: C_13  and  C_14
REMARK    9  A    between atoms: C_14  and  C_15
REMARK   10  A    between atoms: C_24  and  C_25
REMARK                            x       y       z     vdW  Elec       q    Type
REMARK                         _______ _______ _______ _____ _____    ______ ____
ROOT
ATOM      1  C   UNL     1      38.116   0.776  15.029  0.00  0.00    +0.000 A 
ATOM      2  C   UNL     1      38.583   1.939  14.482  0.00  0.00    +0.000 A 
ATOM      3  S   UNL     1      40.124   1.521  13.901  0.00  0.00    +0.000 S 
ATOM      4  C   UNL     1      40.151  -0.121  14.359  0.00  0.00    +0.000 A 
ATOM      5  C   UNL     1      41.241  -1.154  14.158  0.00  0.00    +0.000 C 
ATOM      6  C   UNL     1      38.944  -0.296  14.959  0.00  0.00    +0.000 A 
ENDROOT
BRANCH   6   7
ATOM      7  C   UNL     1      38.574  -1.626  15.510  0.00  0.00    +0.000 A 
ATOM      8  C   UNL     1      37.817  -2.434  14.701  0.00  0.00    +0.000 A 
ATOM      9  C   UNL     1      37.392  -3.702  15.086  0.00  0.00    +0.000 A 
ATOM     10  C   UNL     1      37.766  -4.147  16.349  0.00  0.00    +0.000 A 
ATOM     11  C   UNL     1      37.364  -5.488  16.863  0.00  0.00    +0.000 C 
ATOM     12  C   UNL     1      38.527  -3.325  17.149  0.00  0.00    +0.000 A 
ATOM     13  C   UNL     1      38.943  -2.055  16.749  0.00  0.00    +0.000 A 
ENDBRANCH   6   7
BRANCH   2  14
ATOM     14  N   UNL     1      37.933   3.219  14.411  0.00  0.00    +0.000 NA
ATOM     15  C   UNL     1      38.112   4.163  15.473  0.00  0.00    +0.000 C 
ATOM     16  O   UNL     1      38.847   3.801  16.425  0.00  0.00    +0.000 OA
BRANCH  15  17
ATOM     17  C   UNL     1      37.445   5.509  15.423  0.00  0.00    +0.000 C 
BRANCH  17  18
ATOM     18  N   UNL     1      38.422   6.437  14.891  0.00  0.00    +0.000 NA
BRANCH  18  19
ATOM     19  C   UNL     1      38.168   7.730  15.483  0.00  0.00    +0.000 C 
BRANCH  19  20
ATOM     20  C   UNL     1      39.443   8.247  16.081  0.00  0.00    +0.000 C 
BRANCH  20  21
ATOM     21  C   UNL     1      39.702   7.621  17.393  0.00  0.00    +0.000 A 
ATOM     22  C   UNL     1      38.835   7.786  18.474  0.00  0.00    +0.000 A 
ATOM     23  C   UNL     1      39.116   7.184  19.679  0.00  0.00    +0.000 A 
ATOM     24  C   UNL     1      40.234   6.409  19.883  0.00  0.00    +0.000 A 
ATOM     25  C   UNL     1      41.101   6.238  18.821  0.00  0.00    +0.000 A 
ATOM     26  C   UNL     1      40.814   6.843  17.614  0.00  0.00    +0.000 A 
ENDBRANCH  20  21
ENDBRANCH  19  20
ENDBRANCH  18  19
ENDBRANCH  17  18
ENDBRANCH  15  17
ENDBRANCH   2  14
BRANCH   1  27
ATOM     27  C   UNL     1      36.762   0.737  15.657  0.00  0.00    +0.000 C 
ATOM     28  O   UNL     1      35.743   0.576  14.956  0.00  0.00    +0.000 OA
BRANCH  27  29
ATOM     29  O   UNL     1      36.573   0.878  17.015  0.00  0.00    +0.000 OA
BRANCH  29  31
ATOM     30  C   UNL     1      35.592  -0.984  18.072  0.00  0.00    +0.000 C 
ATOM     31  C   UNL     1      35.391   0.465  17.679  0.00  0.00    +0.000 C 
ENDBRANCH  29  31
ENDBRANCH  27  29
ENDBRANCH   1  27
TORSDOF 10
ENDMDL
MODEL 8
REMARK VINA RESULT:      -6.6     26.361     29.356
REMARK  Name = 
REMARK  10 active torsions:
REMARK  status: ('A' for Active; 'I' for Inactive)
REMARK    1  A    between atoms: C_2  and  O_3
REMARK    2  A    between atoms: O_3  and  C_4
REMARK    3  A    between atoms: C_4  and  C_6
REMARK    4  A    between atoms: C_7  and  N_8
REMARK    5  A    between atoms: C_9  and  C_11
REMARK    6  A    between atoms: C_11  and  N_12
REMARK    7  A    between atoms: N_12  and  C_13
REMARK    8  A    between atoms: C_13  and  C_14
REMARK    9  A    between atoms: C_14  and  C_15
REMARK   10  A    between atoms: C_24  and  C_25
REMARK                            x       y       z     vdW  Elec       q    Type
REMARK                         _______ _______ _______ _____ _____    ______ ____
ROOT
ATOM      1  C   UNL     1      27.588  11.337  42.035  0.00  0.00    +0.000 A 
ATOM      2  C   UNL     1      27.520  12.670  41.738  0.00  0.00    +0.000 A 
ATOM      3  S   UNL     1      27.636  13.427  43.254  0.00  0.00    +0.000 S 
ATOM      4  C   UNL     1      27.770  12.043  44.240  0.00  0.00    +0.000 A 
ATOM      5  C   UNL     1      27.914  11.949  45.745  0.00  0.00    +0.000 C 
ATOM      6  C   UNL     1      27.720  11.020  43.347  0.00  0.00    +0.000 A 
ENDROOT
BRANCH   6   7
ATOM      7  C   UNL     1      27.807   9.614  43.822  0.00  0.00    +0.000 A 
ATOM      8  C   UNL     1      29.067   9.107  44.006  0.00  0.00    +0.000 A 
ATOM      9  C   UNL     1      29.302   7.806  44.442  0.00  0.00    +0.000 A 
ATOM     10  C   UNL     1      28.194   7.006  44.695  0.00  0.00    +0.000 A 
ATOM     11  C   UNL     1      28.330   5.596  45.163  0.00  0.00    +0.000 C 
ATOM     12  C   UNL     1      26.934   7.529  44.506  0.00  0.00    +0.000 A 
ATOM     13  C   UNL     1      26.716   8.835  44.068  0.00  0.00    +0.000 A 
ENDBRANCH   6   7
BRANCH   2  14
ATOM     14  N   UNL     1      27.381  13.294  40.450  0.00  0.00    +0.000 NA
ATOM     15  C   UNL     1      26.117  13.844  40.064  0.00  0.00    +0.000 C 
ATOM     16  O   UNL     1      25.184  13.742  40.898  0.00  0.00    +0.000 OA
BRANCH  15  17
ATOM     17  C   UNL     1      25.945  14.503  38.724  0.00  0.00    +0.000 C 
BRANCH  17  18
ATOM     18  N   UNL     1      27.118  15.328  38.514  0.00  0.00    +0.000 NA
BRANCH  18  19
ATOM     19  C   UNL     1      27.200  15.624  37.103  0.00  0.00    +0.000 C 
BRANCH  19  20
ATOM     20  C   UNL     1      25.907  16.243  36.663  0.00  0.00    +0.000 C 
BRANCH  20  21
ATOM     21  C   UNL     1      25.645  15.959  35.237  0.00  0.00    +0.000 A 
ATOM     22  C   UNL     1      25.855  14.696  34.684  0.00  0.00    +0.000 A 
ATOM     23  C   UNL     1      25.597  14.477  33.350  0.00  0.00    +0.000 A 
ATOM     24  C   UNL     1      25.132  15.462  32.510  0.00  0.00    +0.000 A 
ATOM     25  C   UNL     1      24.920  16.717  33.044  0.00  0.00    +0.000 A 
ATOM     26  C   UNL     1      25.179  16.931  34.383  0.00  0.00    +0.000 A 
ENDBRANCH  20  21
ENDBRANCH  19  20
ENDBRANCH  18  19
ENDBRANCH  17  18
ENDBRANCH  15  17
ENDBRANCH   2  14
BRANCH   1  27
ATOM     27  C   UNL     1      27.518  10.324  40.941  0.00  0.00    +0.000 C 
ATOM     28  O   UNL     1      26.453   9.717  40.707  0.00  0.00    +0.000 OA
BRANCH  27  29
ATOM     29  O   UNL     1      28.603  10.012  40.150  0.00  0.00    +0.000 OA
BRANCH  29  31
ATOM     30  C   UNL     1      30.843  10.098  40.872  0.00  0.00    +0.000 C 
ATOM     31  C   UNL     1      29.667   9.186  40.586  0.00  0.00    +0.000 C 
ENDBRANCH  29  31
ENDBRANCH  27  29
ENDBRANCH   1  27
TORSDOF 10
ENDMDL
MODEL 9
REMARK VINA RESULT:      -6.5      2.932      9.692
REMARK  Name = 
REMARK  10 active torsions:
REMARK  status: ('A' for Active; 'I' for Inactive)
REMARK    1  A    between atoms: C_2  and  O_3
REMARK    2  A    between atoms: O_3  and  C_4
REMARK    3  A    between atoms: C_4  and  C_6
REMARK    4  A    between atoms: C_7  and  N_8
REMARK    5  A    between atoms: C_9  and  C_11
REMARK    6  A    between atoms: C_11  and  N_12
REMARK    7  A    between atoms: N_12  and  C_13
REMARK    8  A    between atoms: C_13  and  C_14
REMARK    9  A    between atoms: C_14  and  C_15
REMARK   10  A    between atoms: C_24  and  C_25
REMARK                            x       y       z     vdW  Elec       q    Type
REMARK                         _______ _______ _______ _____ _____    ______ ____
ROOT
ATOM      1  C   UNL     1      39.906   6.382  17.109  0.00  0.00    +0.000 A 
ATOM      2  C   UNL     1      39.424   5.875  15.933  0.00  0.00    +0.000 A 
ATOM      3  S   UNL     1      40.782   5.866  14.912  0.00  0.00    +0.000 S 
ATOM      4  C   UNL     1      41.938   6.503  15.991  0.00  0.00    +0.000 A 
ATOM      5  C   UNL     1      43.410   6.782  15.762  0.00  0.00    +0.000 C 
ATOM      6  C   UNL     1      41.223   6.706  17.128  0.00  0.00    +0.000 A 
ENDROOT
BRANCH   6   7
ATOM      7  C   UNL     1      41.888   7.268  18.333  0.00  0.00    +0.000 A 
ATOM      8  C   UNL     1      42.369   6.363  19.244  0.00  0.00    +0.000 A 
ATOM      9  C   UNL     1      43.009   6.743  20.420  0.00  0.00    +0.000 A 
ATOM     10  C   UNL     1      43.155   8.104  20.658  0.00  0.00    +0.000 A 
ATOM     11  C   UNL     1      43.823   8.622  21.888  0.00  0.00    +0.000 C 
ATOM     12  C   UNL     1      42.667   9.001  19.735  0.00  0.00    +0.000 A 
ATOM     13  C   UNL     1      42.027   8.604  18.561  0.00  0.00    +0.000 A 
ENDBRANCH   6   7
BRANCH   2  14
ATOM     14  N   UNL     1      38.087   5.449  15.624  0.00  0.00    +0.000 NA
ATOM     15  C   UNL     1      37.711   4.085  15.846  0.00  0.00    +0.000 C 
ATOM     16  O   UNL     1      38.599   3.328  16.309  0.00  0.00    +0.000 OA
BRANCH  15  17
ATOM     17  C   UNL     1      36.318   3.613  15.533  0.00  0.00    +0.000 C 
BRANCH  17  18
ATOM     18  N   UNL     1      35.969   2.646  16.555  0.00  0.00    +0.000 NA
BRANCH  18  19
ATOM     19  C   UNL     1      35.465   1.467  15.889  0.00  0.00    +0.000 C 
BRANCH  19  20
ATOM     20  C   UNL     1      34.931   0.520  16.923  0.00  0.00    +0.000 C 
BRANCH  20  21
ATOM     21  C   UNL     1      36.008  -0.336  17.460  0.00  0.00    +0.000 A 
ATOM     22  C   UNL     1      36.924  -0.980  16.629  0.00  0.00    +0.000 A 
ATOM     23  C   UNL     1      37.911  -1.769  17.174  0.00  0.00    +0.000 A 
ATOM     24  C   UNL     1      38.047  -1.962  18.530  0.00  0.00    +0.000 A 
ATOM     25  C   UNL     1      37.146  -1.330  19.364  0.00  0.00    +0.000 A 
ATOM     26  C   UNL     1      36.159  -0.540  18.812  0.00  0.00    +0.000 A 
ENDBRANCH  20  21
ENDBRANCH  19  20
ENDBRANCH  18  19
ENDBRANCH  17  18
ENDBRANCH  15  17
ENDBRANCH   2  14
BRANCH   1  27
ATOM     27  C   UNL     1      38.994   6.550  18.279  0.00  0.00    +0.000 C 
ATOM     28  O   UNL     1      39.001   5.721  19.212  0.00  0.00    +0.000 OA
BRANCH  27  29
ATOM     29  O   UNL     1      38.115   7.607  18.385  0.00  0.00    +0.000 OA
BRANCH  29  31
ATOM     30  C   UNL     1      37.659   8.784  20.374  0.00  0.00    +0.000 C 
ATOM     31  C   UNL     1      38.427   8.808  19.068  0.00  0.00    +0.000 C 
ENDBRANCH  29  31
ENDBRANCH  27  29
ENDBRANCH   1  27
TORSDOF 10
ENDMDL
MODEL 10
REMARK VINA RESULT:      -6.4      3.533      4.781
REMARK  Name = 
REMARK  10 active torsions:
REMARK  status: ('A' for Active; 'I' for Inactive)
REMARK    1  A    between atoms: C_2  and  O_3
REMARK    2  A    between atoms: O_3  and  C_4
REMARK    3  A    between atoms: C_4  and  C_6
REMARK    4  A    between atoms: C_7  and  N_8
REMARK    5  A    between atoms: C_9  and  C_11
REMARK    6  A    between atoms: C_11  and  N_12
REMARK    7  A    between atoms: N_12  and  C_13
REMARK    8  A    between atoms: C_13  and  C_14
REMARK    9  A    between atoms: C_14  and  C_15
REMARK   10  A    between atoms: C_24  and  C_25
REMARK                            x       y       z     vdW  Elec       q    Type
REMARK                         _______ _______ _______ _____ _____    ______ ____
ROOT
ATOM      1  C   UNL     1      37.215   1.127  14.218  0.00  0.00    +0.000 A 
ATOM      2  C   UNL     1      37.239   2.193  13.360  0.00  0.00    +0.000 A 
ATOM      3  S   UNL     1      38.118   1.616  12.026  0.00  0.00    +0.000 S 
ATOM      4  C   UNL     1      38.440   0.034  12.575  0.00  0.00    +0.000 A 
ATOM      5  C   UNL     1      39.199  -1.083  11.888  0.00  0.00    +0.000 C 
ATOM      6  C   UNL     1      37.845   0.003  13.796  0.00  0.00    +0.000 A 
ENDROOT
BRANCH   6   7
ATOM      7  C   UNL     1      37.903  -1.234  14.619  0.00  0.00    +0.000 A 
ATOM      8  C   UNL     1      38.893  -1.293  15.566  0.00  0.00    +0.000 A 
ATOM      9  C   UNL     1      39.071  -2.390  16.404  0.00  0.00    +0.000 A 
ATOM     10  C   UNL     1      38.194  -3.459  16.256  0.00  0.00    +0.000 A 
ATOM     11  C   UNL     1      38.296  -4.685  17.099  0.00  0.00    +0.000 C 
ATOM     12  C   UNL     1      37.205  -3.385  15.301  0.00  0.00    +0.000 A 
ATOM     13  C   UNL     1      37.040  -2.278  14.467  0.00  0.00    +0.000 A 
ENDBRANCH   6   7
BRANCH   2  14
ATOM     14  N   UNL     1      36.662   3.497  13.537  0.00  0.00    +0.000 NA
ATOM     15  C   UNL     1      37.454   4.551  14.095  0.00  0.00    +0.000 C 
ATOM     16  O   UNL     1      38.636   4.259  14.404  0.00  0.00    +0.000 OA
BRANCH  15  17
ATOM     17  C   UNL     1      36.876   5.925  14.290  0.00  0.00    +0.000 C 
BRANCH  17  18
ATOM     18  N   UNL     1      35.439   5.793  14.149  0.00  0.00    +0.000 NA
BRANCH  18  19
ATOM     19  C   UNL     1      34.957   6.961  13.450  0.00  0.00    +0.000 C 
BRANCH  19  20
ATOM     20  C   UNL     1      33.607   7.325  13.990  0.00  0.00    +0.000 C 
BRANCH  20  21
ATOM     21  C   UNL     1      33.682   8.545  14.820  0.00  0.00    +0.000 A 
ATOM     22  C   UNL     1      33.325   8.545  16.168  0.00  0.00    +0.000 A 
ATOM     23  C   UNL     1      33.411   9.705  16.903  0.00  0.00    +0.000 A 
ATOM     24  C   UNL     1      33.840  10.897  16.366  0.00  0.00    +0.000 A 
ATOM     25  C   UNL     1      34.196  10.911  15.032  0.00  0.00    +0.000 A 
ATOM     26  C   UNL     1      34.109   9.744  14.300  0.00  0.00    +0.000 A 
ENDBRANCH  20  21
ENDBRANCH  19  20
ENDBRANCH  18  19
ENDBRANCH  17  18
ENDBRANCH  15  17
ENDBRANCH   2  14
BRANCH   1  27
ATOM     27  C   UNL     1      36.519   1.244  15.533  0.00  0.00    +0.000 C 
ATOM     28  O   UNL     1      37.086   1.788  16.503  0.00  0.00    +0.000 OA
BRANCH  27  29
ATOM     29  O   UNL     1      35.243   0.765  15.741  0.00  0.00    +0.000 OA
BRANCH  29  31
ATOM     30  C   UNL     1      35.150  -0.942  17.360  0.00  0.00    +0.000 C 
ATOM     31  C   UNL     1      34.725   0.474  17.027  0.00  0.00    +0.000 C 
ENDBRANCH  29  31
ENDBRANCH  27  29
ENDBRANCH   1  27
TORSDOF 10
ENDMDL
