MODEL 1
REMARK VINA RESULT:      -8.1      0.000      0.000
REMARK  Name = 
REMARK  8 active torsions:
REMARK  status: ('A' for Active; 'I' for Inactive)
REMARK    1  A    between atoms: C_2  and  C_3
REMARK    2  A    between atoms: C_3  and  C_5
REMARK    3  A    between atoms: C_8  and  N_9
REMARK    4  A    between atoms: C_10  and  C_12
REMARK    5  A    between atoms: C_12  and  O_13
REMARK    6  A    between atoms: O_13  and  C_14
REMARK    7  A    between atoms: C_14  and  C_16
REMARK    8  A    between atoms: C_21  and  C_22
REMARK                            x       y       z     vdW  Elec       q    Type
REMARK                         _______ _______ _______ _____ _____    ______ ____
ROOT
ATOM      1  O   UNL     1      37.888   1.529  15.426  0.00  0.00    +0.000 OA
ENDROOT
BRANCH   1   2
ATOM      2  C   UNL     1      36.886   0.750  14.927  0.00  0.00    +0.000 C 
ATOM      3  O   UNL     1      36.456   0.949  13.764  0.00  0.00    +0.000 OA
BRANCH   2   4
ATOM      4  C   UNL     1      36.278  -0.321  15.696  0.00  0.00    +0.000 A 
ATOM      5  C   UNL     1      35.108  -0.027  16.433  0.00  0.00    +0.000 A 
ATOM      6  C   UNL     1      34.505  -0.959  17.222  0.00  0.00    +0.000 A 
ATOM      7  C   UNL     1      35.063  -2.209  17.292  0.00  0.00    +0.000 A 
ATOM      8  C   UNL     1      36.194  -2.547  16.600  0.00  0.00    +0.000 A 
ATOM      9  C   UNL     1      36.795  -1.584  15.798  0.00  0.00    +0.000 A 
BRANCH   9  10
ATOM     10  C   UNL     1      37.972  -1.945  15.003  0.00  0.00    +0.000 A 
ATOM     11  C   UNL     1      39.253  -1.859  15.528  0.00  0.00    +0.000 A 
ATOM     12  C   UNL     1      40.336  -2.253  14.776  0.00  0.00    +0.000 A 
ATOM     13  C   UNL     1      40.229  -2.743  13.493  0.00  0.00    +0.000 A 
ATOM     14  C   UNL     1      41.428  -3.157  12.717  0.00  0.00    +0.000 C 
ATOM     15  C   UNL     1      38.956  -2.831  12.966  0.00  0.00    +0.000 A 
ATOM     16  C   UNL     1      37.868  -2.437  13.718  0.00  0.00    +0.000 A 
ENDBRANCH   9  10
ENDBRANCH   2   4
ENDBRANCH   1   2
BRANCH   1  17
ATOM     17  C   UNL     1      38.143   2.815  14.913  0.00  0.00    +0.000 C 
BRANCH  17  19
ATOM     18  N   UNL     1      39.010   4.886  16.142  0.00  0.00    +0.000 NA
ATOM     19  C   UNL     1      38.163   3.744  16.064  0.00  0.00    +0.000 C 
ATOM     20  O   UNL     1      37.403   3.573  17.079  0.00  0.00    +0.000 OA
BRANCH  18  24
ATOM     21  C   UNL     1      38.902   7.445  19.518  0.00  0.00    +0.000 A 
ATOM     22  C   UNL     1      39.717   6.338  19.523  0.00  0.00    +0.000 A 
ATOM     23  C   UNL     1      39.754   5.486  18.401  0.00  0.00    +0.000 A 
ATOM     24  C   UNL     1      38.978   5.754  17.298  0.00  0.00    +0.000 A 
ATOM     25  C   UNL     1      38.181   6.869  17.336  0.00  0.00    +0.000 A 
ATOM     26  C   UNL     1      38.158   7.704  18.461  0.00  0.00    +0.000 A 
BRANCH  21  27
ATOM     27  C   UNL     1      38.987   8.282  20.849  0.00  0.00    +0.000 C 
ATOM     28  C   UNL     1      40.165   9.346  20.340  0.00  0.00    +0.000 C 
BRANCH  27  30
ATOM     29  C   UNL     1      38.389  10.670  20.862  0.00  0.00    +0.000 C 
ATOM     30  C   UNL     1      37.779   9.329  20.430  0.00  0.00    +0.000 C 
ENDBRANCH  27  30
ENDBRANCH  21  27
ENDBRANCH  18  24
ENDBRANCH  17  19
ENDBRANCH   1  17
TORSDOF 8
ENDMDL
MODEL 2
REMARK VINA RESULT:      -8.1      1.637      2.225
REMARK  Name = 
REMARK  8 active torsions:
REMARK  status: ('A' for Active; 'I' for Inactive)
REMARK    1  A    between atoms: C_2  and  C_3
REMARK    2  A    between atoms: C_3  and  C_5
REMARK    3  A    between atoms: C_8  and  N_9
REMARK    4  A    between atoms: C_10  and  C_12
REMARK    5  A    between atoms: C_12  and  O_13
REMARK    6  A    between atoms: O_13  and  C_14
REMARK    7  A    between atoms: C_14  and  C_16
REMARK    8  A    between atoms: C_21  and  C_22
REMARK                            x       y       z     vdW  Elec       q    Type
REMARK                         _______ _______ _______ _____ _____    ______ ____
ROOT
ATOM      1  O   UNL     1      37.599   0.575  15.859  0.00  0.00    +0.000 OA
ENDROOT
BRANCH   1   2
ATOM      2  C   UNL     1      36.858  -0.439  16.393  0.00  0.00    +0.000 C 
ATOM      3  O   UNL     1      35.642  -0.547  16.105  0.00  0.00    +0.000 OA
BRANCH   2   4
ATOM      4  C   UNL     1      37.426  -1.418  17.303  0.00  0.00    +0.000 A 
ATOM      5  C   UNL     1      37.018  -1.380  18.657  0.00  0.00    +0.000 A 
ATOM      6  C   UNL     1      37.540  -2.228  19.585  0.00  0.00    +0.000 A 
ATOM      7  C   UNL     1      38.485  -3.134  19.180  0.00  0.00    +0.000 A 
ATOM      8  C   UNL     1      38.915  -3.213  17.882  0.00  0.00    +0.000 A 
ATOM      9  C   UNL     1      38.371  -2.342  16.947  0.00  0.00    +0.000 A 
BRANCH   9  10
ATOM     10  C   UNL     1      38.774  -2.452  15.543  0.00  0.00    +0.000 A 
ATOM     11  C   UNL     1      37.948  -3.041  14.598  0.00  0.00    +0.000 A 
ATOM     12  C   UNL     1      38.329  -3.086  13.277  0.00  0.00    +0.000 A 
ATOM     13  C   UNL     1      39.519  -2.566  12.815  0.00  0.00    +0.000 A 
ATOM     14  C   UNL     1      39.891  -2.637  11.377  0.00  0.00    +0.000 C 
ATOM     15  C   UNL     1      40.345  -1.978  13.752  0.00  0.00    +0.000 A 
ATOM     16  C   UNL     1      39.964  -1.932  15.078  0.00  0.00    +0.000 A 
ENDBRANCH   9  10
ENDBRANCH   2   4
ENDBRANCH   1   2
BRANCH   1  17
ATOM     17  C   UNL     1      36.998   1.614  15.124  0.00  0.00    +0.000 C 
BRANCH  17  19
ATOM     18  N   UNL     1      38.376   3.581  16.009  0.00  0.00    +0.000 NA
ATOM     19  C   UNL     1      37.156   2.853  15.916  0.00  0.00    +0.000 C 
ATOM     20  O   UNL     1      36.183   3.356  16.578  0.00  0.00    +0.000 OA
BRANCH  18  24
ATOM     21  C   UNL     1      38.620   7.129  18.313  0.00  0.00    +0.000 A 
ATOM     22  C   UNL     1      38.934   5.918  18.884  0.00  0.00    +0.000 A 
ATOM     23  C   UNL     1      38.854   4.737  18.118  0.00  0.00    +0.000 A 
ATOM     24  C   UNL     1      38.462   4.786  16.802  0.00  0.00    +0.000 A 
ATOM     25  C   UNL     1      38.158   6.015  16.274  0.00  0.00    +0.000 A 
ATOM     26  C   UNL     1      38.244   7.178  17.051  0.00  0.00    +0.000 A 
BRANCH  21  27
ATOM     27  C   UNL     1      38.765   8.339  19.310  0.00  0.00    +0.000 C 
ATOM     28  C   UNL     1      39.715   7.557  20.434  0.00  0.00    +0.000 C 
BRANCH  27  30
ATOM     29  C   UNL     1      41.170   8.763  19.620  0.00  0.00    +0.000 C 
ATOM     30  C   UNL     1      40.086   8.982  18.554  0.00  0.00    +0.000 C 
ENDBRANCH  27  30
ENDBRANCH  21  27
ENDBRANCH  18  24
ENDBRANCH  17  19
ENDBRANCH   1  17
TORSDOF 8
ENDMDL
MODEL 3
REMARK VINA RESULT:      -8.0      1.769      2.712
REMARK  Name = 
REMARK  8 active torsions:
REMARK  status: ('A' for Active; 'I' for Inactive)
REMARK    1  A    between atoms: C_2  and  C_3
REMARK    2  A    between atoms: C_3  and  C_5
REMARK    3  A    between atoms: C_8  and  N_9
REMARK    4  A    between atoms: C_10  and  C_12
REMARK    5  A    between atoms: C_12  and  O_13
REMARK    6  A    between atoms: O_13  and  C_14
REMARK    7  A    between atoms: C_14  and  C_16
REMARK    8  A    between atoms: C_21  and  C_22
REMARK                            x       y       z     vdW  Elec       q    Type
REMARK                         _______ _______ _______ _____ _____    ______ ____
ROOT
ATOM      1  O   UNL     1      36.229   0.425  16.439  0.00  0.00    +0.000 OA
ENDROOT
BRANCH   1   2
ATOM      2  C   UNL     1      36.729  -0.819  16.690  0.00  0.00    +0.000 C 
ATOM      3  O   UNL     1      37.564  -0.985  17.612  0.00  0.00    +0.000 OA
BRANCH   2   4
ATOM      4  C   UNL     1      36.332  -1.985  15.920  0.00  0.00    +0.000 A 
ATOM      5  C   UNL     1      35.002  -2.446  16.052  0.00  0.00    +0.000 A 
ATOM      6  C   UNL     1      34.564  -3.562  15.406  0.00  0.00    +0.000 A 
ATOM      7  C   UNL     1      35.450  -4.243  14.613  0.00  0.00    +0.000 A 
ATOM      8  C   UNL     1      36.748  -3.840  14.450  0.00  0.00    +0.000 A 
ATOM      9  C   UNL     1      37.178  -2.699  15.115  0.00  0.00    +0.000 A 
BRANCH   9  10
ATOM     10  C   UNL     1      38.546  -2.218  14.905  0.00  0.00    +0.000 A 
ATOM     11  C   UNL     1      39.633  -2.854  15.487  0.00  0.00    +0.000 A 
ATOM     12  C   UNL     1      40.911  -2.412  15.232  0.00  0.00    +0.000 A 
ATOM     13  C   UNL     1      41.192  -1.344  14.408  0.00  0.00    +0.000 A 
ATOM     14  C   UNL     1      42.590  -0.901  14.160  0.00  0.00    +0.000 C 
ATOM     15  C   UNL     1      40.114  -0.709  13.825  0.00  0.00    +0.000 A 
ATOM     16  C   UNL     1      38.831  -1.149  14.080  0.00  0.00    +0.000 A 
ENDBRANCH   9  10
ENDBRANCH   2   4
ENDBRANCH   1   2
BRANCH   1  17
ATOM     17  C   UNL     1      36.615   1.154  15.298  0.00  0.00    +0.000 C 
BRANCH  17  19
ATOM     18  N   UNL     1      37.003   3.283  16.666  0.00  0.00    +0.000 NA
ATOM     19  C   UNL     1      37.457   2.277  15.767  0.00  0.00    +0.000 C 
ATOM     20  O   UNL     1      38.671   2.411  15.384  0.00  0.00    +0.000 OA
BRANCH  18  24
ATOM     21  C   UNL     1      39.571   6.432  17.870  0.00  0.00    +0.000 A 
ATOM     22  C   UNL     1      39.319   5.387  18.728  0.00  0.00    +0.000 A 
ATOM     23  C   UNL     1      38.465   4.340  18.328  0.00  0.00    +0.000 A 
ATOM     24  C   UNL     1      37.880   4.354  17.084  0.00  0.00    +0.000 A 
ATOM     25  C   UNL     1      38.160   5.415  16.261  0.00  0.00    +0.000 A 
ATOM     26  C   UNL     1      39.012   6.447  16.677  0.00  0.00    +0.000 A 
BRANCH  21  27
ATOM     27  C   UNL     1      40.544   7.510  18.478  0.00  0.00    +0.000 C 
ATOM     28  C   UNL     1      40.052   7.351  20.062  0.00  0.00    +0.000 C 
BRANCH  27  30
ATOM     29  C   UNL     1      42.529   6.581  17.356  0.00  0.00    +0.000 C 
ATOM     30  C   UNL     1      41.797   6.455  18.700  0.00  0.00    +0.000 C 
ENDBRANCH  27  30
ENDBRANCH  21  27
ENDBRANCH  18  24
ENDBRANCH  17  19
ENDBRANCH   1  17
TORSDOF 8
ENDMDL
MODEL 4
REMARK VINA RESULT:      -7.9      1.419      2.161
REMARK  Name = 
REMARK  8 active torsions:
REMARK  status: ('A' for Active; 'I' for Inactive)
REMARK    1  A    between atoms: C_2  and  C_3
REMARK    2  A    between atoms: C_3  and  C_5
REMARK    3  A    between atoms: C_8  and  N_9
REMARK    4  A    between atoms: C_10  and  C_12
REMARK    5  A    between atoms: C_12  and  O_13
REMARK    6  A    between atoms: O_13  and  C_14
REMARK    7  A    between atoms: C_14  and  C_16
REMARK    8  A    between atoms: C_21  and  C_22
REMARK                            x       y       z     vdW  Elec       q    Type
REMARK                         _______ _______ _______ _____ _____    ______ ____
ROOT
ATOM      1  O   UNL     1      37.611   2.031  14.013  0.00  0.00    +0.000 OA
ENDROOT
BRANCH   1   2
ATOM      2  C   UNL     1      36.770   0.957  13.975  0.00  0.00    +0.000 C 
ATOM      3  O   UNL     1      36.337   0.538  12.874  0.00  0.00    +0.000 OA
BRANCH   2   4
ATOM      4  C   UNL     1      36.341   0.264  15.177  0.00  0.00    +0.000 A 
ATOM      5  C   UNL     1      35.266   0.814  15.912  0.00  0.00    +0.000 A 
ATOM      6  C   UNL     1      34.836   0.256  17.077  0.00  0.00    +0.000 A 
ATOM      7  C   UNL     1      35.475  -0.866  17.535  0.00  0.00    +0.000 A 
ATOM      8  C   UNL     1      36.521  -1.440  16.862  0.00  0.00    +0.000 A 
ATOM      9  C   UNL     1      36.946  -0.859  15.674  0.00  0.00    +0.000 A 
BRANCH   9  10
ATOM     10  C   UNL     1      38.023  -1.493  14.910  0.00  0.00    +0.000 A 
ATOM     11  C   UNL     1      37.753  -2.391  13.888  0.00  0.00    +0.000 A 
ATOM     12  C   UNL     1      38.782  -2.933  13.153  0.00  0.00    +0.000 A 
ATOM     13  C   UNL     1      40.109  -2.632  13.372  0.00  0.00    +0.000 A 
ATOM     14  C   UNL     1      41.189  -3.242  12.552  0.00  0.00    +0.000 C 
ATOM     15  C   UNL     1      40.383  -1.737  14.388  0.00  0.00    +0.000 A 
ATOM     16  C   UNL     1      39.352  -1.193  15.127  0.00  0.00    +0.000 A 
ENDBRANCH   9  10
ENDBRANCH   2   4
ENDBRANCH   1   2
BRANCH   1  17
ATOM     17  C   UNL     1      37.156   3.329  13.717  0.00  0.00    +0.000 C 
BRANCH  17  19
ATOM     18  N   UNL     1      38.743   3.840  15.659  0.00  0.00    +0.000 NA
ATOM     19  C   UNL     1      37.734   4.234  14.734  0.00  0.00    +0.000 C 
ATOM     20  O   UNL     1      37.355   5.451  14.844  0.00  0.00    +0.000 OA
BRANCH  18  24
ATOM     21  C   UNL     1      40.291   6.593  18.484  0.00  0.00    +0.000 A 
ATOM     22  C   UNL     1      39.291   5.725  18.851  0.00  0.00    +0.000 A 
ATOM     23  C   UNL     1      38.775   4.809  17.912  0.00  0.00    +0.000 A 
ATOM     24  C   UNL     1      39.266   4.777  16.629  0.00  0.00    +0.000 A 
ATOM     25  C   UNL     1      40.263   5.661  16.306  0.00  0.00    +0.000 A 
ATOM     26  C   UNL     1      40.763   6.564  17.254  0.00  0.00    +0.000 A 
BRANCH  21  27
ATOM     27  C   UNL     1      40.746   7.543  19.654  0.00  0.00    +0.000 C 
ATOM     28  C   UNL     1      39.286   7.581  20.458  0.00  0.00    +0.000 C 
BRANCH  27  30
ATOM     29  C   UNL     1      42.826   6.526  20.492  0.00  0.00    +0.000 C 
ATOM     30  C   UNL     1      41.309   6.321  20.613  0.00  0.00    +0.000 C 
ENDBRANCH  27  30
ENDBRANCH  21  27
ENDBRANCH  18  24
ENDBRANCH  17  19
ENDBRANCH   1  17
TORSDOF 8
ENDMDL
MODEL 5
REMARK VINA RESULT:      -7.6      1.618      3.993
REMARK  Name = 
REMARK  8 active torsions:
REMARK  status: ('A' for Active; 'I' for Inactive)
REMARK    1  A    between atoms: C_2  and  C_3
REMARK    2  A    between atoms: C_3  and  C_5
REMARK    3  A    between atoms: C_8  and  N_9
REMARK    4  A    between atoms: C_10  and  C_12
REMARK    5  A    between atoms: C_12  and  O_13
REMARK    6  A    between atoms: O_13  and  C_14
REMARK    7  A    between atoms: C_14  and  C_16
REMARK    8  A    between atoms: C_21  and  C_22
REMARK                            x       y       z     vdW  Elec       q    Type
REMARK                         _______ _______ _______ _____ _____    ______ ____
ROOT
ATOM      1  O   UNL     1      38.293   1.683  12.749  0.00  0.00    +0.000 OA
ENDROOT
BRANCH   1   2
ATOM      2  C   UNL     1      37.870   0.524  12.165  0.00  0.00    +0.000 C 
ATOM      3  O   UNL     1      36.703   0.439  11.711  0.00  0.00    +0.000 OA
BRANCH   2   4
ATOM      4  C   UNL     1      38.727  -0.642  12.046  0.00  0.00    +0.000 A 
ATOM      5  C   UNL     1      39.621  -0.700  10.952  0.00  0.00    +0.000 A 
ATOM      6  C   UNL     1      40.422  -1.780  10.737  0.00  0.00    +0.000 A 
ATOM      7  C   UNL     1      40.345  -2.830  11.615  0.00  0.00    +0.000 A 
ATOM      8  C   UNL     1      39.498  -2.826  12.690  0.00  0.00    +0.000 A 
ATOM      9  C   UNL     1      38.689  -1.715  12.895  0.00  0.00    +0.000 A 
BRANCH   9  10
ATOM     10  C   UNL     1      37.820  -1.667  14.074  0.00  0.00    +0.000 A 
ATOM     11  C   UNL     1      38.121  -0.860  15.162  0.00  0.00    +0.000 A 
ATOM     12  C   UNL     1      37.262  -0.795  16.234  0.00  0.00    +0.000 A 
ATOM     13  C   UNL     1      36.082  -1.504  16.302  0.00  0.00    +0.000 A 
ATOM     14  C   UNL     1      35.183  -1.403  17.483  0.00  0.00    +0.000 C 
ATOM     15  C   UNL     1      35.778  -2.308  15.222  0.00  0.00    +0.000 A 
ATOM     16  C   UNL     1      36.638  -2.374  14.145  0.00  0.00    +0.000 A 
ENDBRANCH   9  10
ENDBRANCH   2   4
ENDBRANCH   1   2
BRANCH   1  17
ATOM     17  C   UNL     1      37.390   2.554  13.386  0.00  0.00    +0.000 C 
BRANCH  17  19
ATOM     18  N   UNL     1      37.882   4.415  15.075  0.00  0.00    +0.000 NA
ATOM     19  C   UNL     1      38.079   3.095  14.579  0.00  0.00    +0.000 C 
ATOM     20  O   UNL     1      38.911   2.391  15.251  0.00  0.00    +0.000 OA
BRANCH  18  24
ATOM     21  C   UNL     1      39.936   5.765  18.526  0.00  0.00    +0.000 A 
ATOM     22  C   UNL     1      40.385   6.124  17.278  0.00  0.00    +0.000 A 
ATOM     23  C   UNL     1      39.702   5.675  16.129  0.00  0.00    +0.000 A 
ATOM     24  C   UNL     1      38.589   4.879  16.247  0.00  0.00    +0.000 A 
ATOM     25  C   UNL     1      38.176   4.545  17.512  0.00  0.00    +0.000 A 
ATOM     26  C   UNL     1      38.869   5.002  18.642  0.00  0.00    +0.000 A 
BRANCH  21  27
ATOM     27  C   UNL     1      40.815   6.353  19.693  0.00  0.00    +0.000 C 
ATOM     28  C   UNL     1      42.163   6.694  18.773  0.00  0.00    +0.000 C 
BRANCH  27  30
ATOM     29  C   UNL     1      39.077   7.880  20.531  0.00  0.00    +0.000 C 
ATOM     30  C   UNL     1      40.243   7.894  19.532  0.00  0.00    +0.000 C 
ENDBRANCH  27  30
ENDBRANCH  21  27
ENDBRANCH  18  24
ENDBRANCH  17  19
ENDBRANCH   1  17
TORSDOF 8
ENDMDL
MODEL 6
REMARK VINA RESULT:      -7.4      1.347      3.753
REMARK  Name = 
REMARK  8 active torsions:
REMARK  status: ('A' for Active; 'I' for Inactive)
REMARK    1  A    between atoms: C_2  and  C_3
REMARK    2  A    between atoms: C_3  and  C_5
REMARK    3  A    between atoms: C_8  and  N_9
REMARK    4  A    between atoms: C_10  and  C_12
REMARK    5  A    between atoms: C_12  and  O_13
REMARK    6  A    between atoms: O_13  and  C_14
REMARK    7  A    between atoms: C_14  and  C_16
REMARK    8  A    between atoms: C_21  and  C_22
REMARK                            x       y       z     vdW  Elec       q    Type
REMARK                         _______ _______ _______ _____ _____    ______ ____
ROOT
ATOM      1  O   UNL     1      38.388   1.408  15.151  0.00  0.00    +0.000 OA
ENDROOT
BRANCH   1   2
ATOM      2  C   UNL     1      38.497   0.310  14.348  0.00  0.00    +0.000 C 
ATOM      3  O   UNL     1      37.875   0.264  13.259  0.00  0.00    +0.000 OA
BRANCH   2   4
ATOM      4  C   UNL     1      39.316  -0.835  14.706  0.00  0.00    +0.000 A 
ATOM      5  C   UNL     1      40.657  -0.858  14.258  0.00  0.00    +0.000 A 
ATOM      6  C   UNL     1      41.476  -1.917  14.505  0.00  0.00    +0.000 A 
ATOM      7  C   UNL     1      40.970  -2.980  15.207  0.00  0.00    +0.000 A 
ATOM      8  C   UNL     1      39.680  -3.009  15.665  0.00  0.00    +0.000 A 
ATOM      9  C   UNL     1      38.858  -1.919  15.405  0.00  0.00    +0.000 A 
BRANCH   9  10
ATOM     10  C   UNL     1      37.494  -1.906  15.939  0.00  0.00    +0.000 A 
ATOM     11  C   UNL     1      37.151  -1.119  17.028  0.00  0.00    +0.000 A 
ATOM     12  C   UNL     1      35.851  -1.087  17.477  0.00  0.00    +0.000 A 
ATOM     13  C   UNL     1      34.832  -1.810  16.896  0.00  0.00    +0.000 A 
ATOM     14  C   UNL     1      33.440  -1.745  17.415  0.00  0.00    +0.000 C 
ATOM     15  C   UNL     1      35.168  -2.594  15.810  0.00  0.00    +0.000 A 
ATOM     16  C   UNL     1      36.471  -2.628  15.358  0.00  0.00    +0.000 A 
ENDBRANCH   9  10
ENDBRANCH   2   4
ENDBRANCH   1   2
BRANCH   1  17
ATOM     17  C   UNL     1      37.303   2.296  15.035  0.00  0.00    +0.000 C 
BRANCH  17  19
ATOM     18  N   UNL     1      38.794   4.172  15.934  0.00  0.00    +0.000 NA
ATOM     19  C   UNL     1      37.576   3.434  15.939  0.00  0.00    +0.000 C 
ATOM     20  O   UNL     1      36.714   3.833  16.798  0.00  0.00    +0.000 OA
BRANCH  18  24
ATOM     21  C   UNL     1      39.385   7.391  18.626  0.00  0.00    +0.000 A 
ATOM     22  C   UNL     1      39.251   7.639  17.280  0.00  0.00    +0.000 A 
ATOM     23  C   UNL     1      39.054   6.569  16.384  0.00  0.00    +0.000 A 
ATOM     24  C   UNL     1      38.995   5.276  16.846  0.00  0.00    +0.000 A 
ATOM     25  C   UNL     1      39.134   5.075  18.195  0.00  0.00    +0.000 A 
ATOM     26  C   UNL     1      39.328   6.153  19.071  0.00  0.00    +0.000 A 
BRANCH  21  27
ATOM     27  C   UNL     1      39.596   8.699  19.477  0.00  0.00    +0.000 C 
ATOM     28  C   UNL     1      38.661   8.241  20.779  0.00  0.00    +0.000 C 
BRANCH  27  30
ATOM     29  C   UNL     1      42.036   9.026  19.503  0.00  0.00    +0.000 C 
ATOM     30  C   UNL     1      40.978   8.165  20.208  0.00  0.00    +0.000 C 
ENDBRANCH  27  30
ENDBRANCH  21  27
ENDBRANCH  18  24
ENDBRANCH  17  19
ENDBRANCH   1  17
TORSDOF 8
ENDMDL
MODEL 7
REMARK VINA RESULT:      -7.3     23.716     26.344
REMARK  Name = 
REMARK  8 active torsions:
REMARK  status: ('A' for Active; 'I' for Inactive)
REMARK    1  A    between atoms: C_2  and  C_3
REMARK    2  A    between atoms: C_3  and  C_5
REMARK    3  A    between atoms: C_8  and  N_9
REMARK    4  A    between atoms: C_10  and  C_12
REMARK    5  A    between atoms: C_12  and  O_13
REMARK    6  A    between atoms: O_13  and  C_14
REMARK    7  A    between atoms: C_14  and  C_16
REMARK    8  A    between atoms: C_21  and  C_22
REMARK                            x       y       z     vdW  Elec       q    Type
REMARK                         _______ _______ _______ _____ _____    ______ ____
ROOT
ATOM      1  O   UNL     1      26.367  18.807  35.548  0.00  0.00    +0.000 OA
ENDROOT
BRANCH   1   2
ATOM      2  C   UNL     1      25.243  18.130  35.176  0.00  0.00    +0.000 C 
ATOM      3  O   UNL     1      24.110  18.588  35.462  0.00  0.00    +0.000 OA
BRANCH   2   4
ATOM      4  C   UNL     1      25.299  16.873  34.450  0.00  0.00    +0.000 A 
ATOM      5  C   UNL     1      25.102  16.906  33.050  0.00  0.00    +0.000 A 
ATOM      6  C   UNL     1      25.087  15.768  32.302  0.00  0.00    +0.000 A 
ATOM      7  C   UNL     1      25.268  14.569  32.941  0.00  0.00    +0.000 A 
ATOM      8  C   UNL     1      25.463  14.481  34.293  0.00  0.00    +0.000 A 
ATOM      9  C   UNL     1      25.477  15.652  35.040  0.00  0.00    +0.000 A 
BRANCH   9  10
ATOM     10  C   UNL     1      25.745  15.581  36.479  0.00  0.00    +0.000 A 
ATOM     11  C   UNL     1      24.713  15.506  37.404  0.00  0.00    +0.000 A 
ATOM     12  C   UNL     1      24.993  15.390  38.745  0.00  0.00    +0.000 A 
ATOM     13  C   UNL     1      26.275  15.341  39.249  0.00  0.00    +0.000 A 
ATOM     14  C   UNL     1      26.532  15.215  40.709  0.00  0.00    +0.000 C 
ATOM     15  C   UNL     1      27.306  15.415  38.333  0.00  0.00    +0.000 A 
ATOM     16  C   UNL     1      27.027  15.532  36.986  0.00  0.00    +0.000 A 
ENDBRANCH   9  10
ENDBRANCH   2   4
ENDBRANCH   1   2
BRANCH   1  17
ATOM     17  C   UNL     1      27.412  19.050  34.638  0.00  0.00    +0.000 C 
BRANCH  17  19
ATOM     18  N   UNL     1      28.851  16.985  34.173  0.00  0.00    +0.000 NA
ATOM     19  C   UNL     1      28.505  18.111  34.972  0.00  0.00    +0.000 C 
ATOM     20  O   UNL     1      29.221  18.259  36.023  0.00  0.00    +0.000 OA
BRANCH  18  24
ATOM     21  C   UNL     1      32.037  14.424  35.292  0.00  0.00    +0.000 A 
ATOM     22  C   UNL     1      30.751  14.126  35.677  0.00  0.00    +0.000 A 
ATOM     23  C   UNL     1      29.691  14.977  35.304  0.00  0.00    +0.000 A 
ATOM     24  C   UNL     1      29.933  16.106  34.559  0.00  0.00    +0.000 A 
ATOM     25  C   UNL     1      31.230  16.365  34.198  0.00  0.00    +0.000 A 
ATOM     26  C   UNL     1      32.271  15.506  34.578  0.00  0.00    +0.000 A 
BRANCH  21  27
ATOM     27  C   UNL     1      33.092  13.368  35.793  0.00  0.00    +0.000 C 
ATOM     28  C   UNL     1      33.611  14.223  37.127  0.00  0.00    +0.000 C 
BRANCH  27  30
ATOM     29  C   UNL     1      32.930  11.898  37.760  0.00  0.00    +0.000 C 
ATOM     30  C   UNL     1      32.008  12.506  36.693  0.00  0.00    +0.000 C 
ENDBRANCH  27  30
ENDBRANCH  21  27
ENDBRANCH  18  24
ENDBRANCH  17  19
ENDBRANCH   1  17
TORSDOF 8
ENDMDL
MODEL 8
REMARK VINA RESULT:      -7.3      3.409      9.721
REMARK  Name = 
REMARK  8 active torsions:
REMARK  status: ('A' for Active; 'I' for Inactive)
REMARK    1  A    between atoms: C_2  and  C_3
REMARK    2  A    between atoms: C_3  and  C_5
REMARK    3  A    between atoms: C_8  and  N_9
REMARK    4  A    between atoms: C_10  and  C_12
REMARK    5  A    between atoms: C_12  and  O_13
REMARK    6  A    between atoms: O_13  and  C_14
REMARK    7  A    between atoms: C_14  and  C_16
REMARK    8  A    between atoms: C_21  and  C_22
REMARK                            x       y       z     vdW  Elec       q    Type
REMARK                         _______ _______ _______ _____ _____    ______ ____
ROOT
ATOM      1  O   UNL     1      42.529   7.225  17.095  0.00  0.00    +0.000 OA
ENDROOT
BRANCH   1   2
ATOM      2  C   UNL     1      43.378   7.784  18.006  0.00  0.00    +0.000 C 
ATOM      3  O   UNL     1      43.843   8.933  17.807  0.00  0.00    +0.000 OA
BRANCH   2   4
ATOM      4  C   UNL     1      43.778   7.094  19.219  0.00  0.00    +0.000 A 
ATOM      5  C   UNL     1      45.114   6.643  19.316  0.00  0.00    +0.000 A 
ATOM      6  C   UNL     1      45.557   5.943  20.397  0.00  0.00    +0.000 A 
ATOM      7  C   UNL     1      44.669   5.676  21.406  0.00  0.00    +0.000 A 
ATOM      8  C   UNL     1      43.365   6.090  21.364  0.00  0.00    +0.000 A 
ATOM      9  C   UNL     1      42.930   6.805  20.254  0.00  0.00    +0.000 A 
BRANCH   9  10
ATOM     10  C   UNL     1      41.555   7.308  20.219  0.00  0.00    +0.000 A 
ATOM     11  C   UNL     1      41.275   8.659  20.366  0.00  0.00    +0.000 A 
ATOM     12  C   UNL     1      39.978   9.111  20.278  0.00  0.00    +0.000 A 
ATOM     13  C   UNL     1      38.902   8.281  20.044  0.00  0.00    +0.000 A 
ATOM     14  C   UNL     1      37.516   8.814  19.955  0.00  0.00    +0.000 C 
ATOM     15  C   UNL     1      39.176   6.936  19.895  0.00  0.00    +0.000 A 
ATOM     16  C   UNL     1      40.476   6.481  19.984  0.00  0.00    +0.000 A 
ENDBRANCH   9  10
ENDBRANCH   2   4
ENDBRANCH   1   2
BRANCH   1  17
ATOM     17  C   UNL     1      41.534   7.987  16.456  0.00  0.00    +0.000 C 
BRANCH  17  19
ATOM     18  N   UNL     1      40.365   5.721  16.233  0.00  0.00    +0.000 NA
ATOM     19  C   UNL     1      40.326   7.137  16.371  0.00  0.00    +0.000 C 
ATOM     20  O   UNL     1      39.148   7.636  16.419  0.00  0.00    +0.000 OA
BRANCH  18  24
ATOM     21  C   UNL     1      36.788   3.463  15.983  0.00  0.00    +0.000 A 
ATOM     22  C   UNL     1      37.340   3.737  17.212  0.00  0.00    +0.000 A 
ATOM     23  C   UNL     1      38.530   4.489  17.296  0.00  0.00    +0.000 A 
ATOM     24  C   UNL     1      39.144   4.950  16.156  0.00  0.00    +0.000 A 
ATOM     25  C   UNL     1      38.559   4.652  14.953  0.00  0.00    +0.000 A 
ATOM     26  C   UNL     1      37.375   3.904  14.890  0.00  0.00    +0.000 A 
BRANCH  21  27
ATOM     27  C   UNL     1      35.464   2.616  16.076  0.00  0.00    +0.000 C 
ATOM     28  C   UNL     1      34.543   3.577  15.073  0.00  0.00    +0.000 C 
BRANCH  27  30
ATOM     29  C   UNL     1      36.236   0.327  15.606  0.00  0.00    +0.000 C 
ATOM     30  C   UNL     1      35.862   1.601  14.835  0.00  0.00    +0.000 C 
ENDBRANCH  27  30
ENDBRANCH  21  27
ENDBRANCH  18  24
ENDBRANCH  17  19
ENDBRANCH   1  17
TORSDOF 8
ENDMDL
MODEL 9
REMARK VINA RESULT:      -7.0      6.050      9.172
REMARK  Name = 
REMARK  8 active torsions:
REMARK  status: ('A' for Active; 'I' for Inactive)
REMARK    1  A    between atoms: C_2  and  C_3
REMARK    2  A    between atoms: C_3  and  C_5
REMARK    3  A    between atoms: C_8  and  N_9
REMARK    4  A    between atoms: C_10  and  C_12
REMARK    5  A    between atoms: C_12  and  O_13
REMARK    6  A    between atoms: O_13  and  C_14
REMARK    7  A    between atoms: C_14  and  C_16
REMARK    8  A    between atoms: C_21  and  C_22
REMARK                            x       y       z     vdW  Elec       q    Type
REMARK                         _______ _______ _______ _____ _____    ______ ____
ROOT
ATOM      1  O   UNL     1      40.979  10.135  19.699  0.00  0.00    +0.000 OA
ENDROOT
BRANCH   1   2
ATOM      2  C   UNL     1      41.998   9.293  19.361  0.00  0.00    +0.000 C 
ATOM      3  O   UNL     1      42.530   9.374  18.227  0.00  0.00    +0.000 OA
BRANCH   2   4
ATOM      4  C   UNL     1      42.504   8.283  20.274  0.00  0.00    +0.000 A 
ATOM      5  C   UNL     1      43.399   8.694  21.289  0.00  0.00    +0.000 A 
ATOM      6  C   UNL     1      43.960   7.803  22.152  0.00  0.00    +0.000 A 
ATOM      7  C   UNL     1      43.638   6.478  22.018  0.00  0.00    +0.000 A 
ATOM      8  C   UNL     1      42.778   6.026  21.054  0.00  0.00    +0.000 A 
ATOM      9  C   UNL     1      42.213   6.949  20.182  0.00  0.00    +0.000 A 
BRANCH   9  10
ATOM     10  C   UNL     1      41.244   6.492  19.183  0.00  0.00    +0.000 A 
ATOM     11  C   UNL     1      39.943   6.163  19.535  0.00  0.00    +0.000 A 
ATOM     12  C   UNL     1      39.039   5.785  18.569  0.00  0.00    +0.000 A 
ATOM     13  C   UNL     1      39.351   5.710  17.229  0.00  0.00    +0.000 A 
ATOM     14  C   UNL     1      38.341   5.297  16.218  0.00  0.00    +0.000 C 
ATOM     15  C   UNL     1      40.644   6.038  16.873  0.00  0.00    +0.000 A 
ATOM     16  C   UNL     1      41.553   6.416  17.840  0.00  0.00    +0.000 A 
ENDBRANCH   9  10
ENDBRANCH   2   4
ENDBRANCH   1   2
BRANCH   1  17
ATOM     17  C   UNL     1      39.933   9.720  20.544  0.00  0.00    +0.000 C 
BRANCH  17  19
ATOM     18  N   UNL     1      38.601  10.093  18.390  0.00  0.00    +0.000 NA
ATOM     19  C   UNL     1      38.737   9.537  19.693  0.00  0.00    +0.000 C 
ATOM     20  O   UNL     1      37.731   8.851  20.088  0.00  0.00    +0.000 OA
BRANCH  18  24
ATOM     21  C   UNL     1      35.077   9.469  16.121  0.00  0.00    +0.000 A 
ATOM     22  C   UNL     1      36.197   8.713  15.868  0.00  0.00    +0.000 A 
ATOM     23  C   UNL     1      37.370   8.920  16.622  0.00  0.00    +0.000 A 
ATOM     24  C   UNL     1      37.403   9.874  17.611  0.00  0.00    +0.000 A 
ATOM     25  C   UNL     1      36.263  10.604  17.829  0.00  0.00    +0.000 A 
ATOM     26  C   UNL     1      35.106  10.383  17.069  0.00  0.00    +0.000 A 
BRANCH  21  27
ATOM     27  C   UNL     1      33.862   9.105  15.188  0.00  0.00    +0.000 C 
ATOM     28  C   UNL     1      34.080  10.338  14.088  0.00  0.00    +0.000 C 
BRANCH  27  30
ATOM     29  C   UNL     1      33.623   7.035  13.877  0.00  0.00    +0.000 C 
ATOM     30  C   UNL     1      34.718   8.043  14.256  0.00  0.00    +0.000 C 
ENDBRANCH  27  30
ENDBRANCH  21  27
ENDBRANCH  18  24
ENDBRANCH  17  19
ENDBRANCH   1  17
TORSDOF 8
ENDMDL
MODEL 10
REMARK VINA RESULT:      -6.9      2.177      9.525
REMARK  Name = 
REMARK  8 active torsions:
REMARK  status: ('A' for Active; 'I' for Inactive)
REMARK    1  A    between atoms: C_2  and  C_3
REMARK    2  A    between atoms: C_3  and  C_5
REMARK    3  A    between atoms: C_8  and  N_9
REMARK    4  A    between atoms: C_10  and  C_12
REMARK    5  A    between atoms: C_12  and  O_13
REMARK    6  A    between atoms: O_13  and  C_14
REMARK    7  A    between atoms: C_14  and  C_16
REMARK    8  A    between atoms: C_21  and  C_22
REMARK                            x       y       z     vdW  Elec       q    Type
REMARK                         _______ _______ _______ _____ _____    ______ ____
ROOT
ATOM      1  O   UNL     1      39.373   5.952  16.779  0.00  0.00    +0.000 OA
ENDROOT
BRANCH   1   2
ATOM      2  C   UNL     1      39.096   6.017  18.113  0.00  0.00    +0.000 C 
ATOM      3  O   UNL     1      39.094   4.970  18.805  0.00  0.00    +0.000 OA
BRANCH   2   4
ATOM      4  C   UNL     1      38.795   7.270  18.783  0.00  0.00    +0.000 A 
ATOM      5  C   UNL     1      37.470   7.759  18.710  0.00  0.00    +0.000 A 
ATOM      6  C   UNL     1      37.115   8.950  19.265  0.00  0.00    +0.000 A 
ATOM      7  C   UNL     1      38.080   9.681  19.907  0.00  0.00    +0.000 A 
ATOM      8  C   UNL     1      39.377   9.254  20.007  0.00  0.00    +0.000 A 
ATOM      9  C   UNL     1      39.722   8.035  19.436  0.00  0.00    +0.000 A 
BRANCH   9  10
ATOM     10  C   UNL     1      41.091   7.534  19.586  0.00  0.00    +0.000 A 
ATOM     11  C   UNL     1      42.099   7.914  18.713  0.00  0.00    +0.000 A 
ATOM     12  C   UNL     1      43.386   7.468  18.906  0.00  0.00    +0.000 A 
ATOM     13  C   UNL     1      43.752   6.642  19.947  0.00  0.00    +0.000 A 
ATOM     14  C   UNL     1      45.157   6.185  20.117  0.00  0.00    +0.000 C 
ATOM     15  C   UNL     1      42.752   6.262  20.819  0.00  0.00    +0.000 A 
ATOM     16  C   UNL     1      41.460   6.707  20.627  0.00  0.00    +0.000 A 
ENDBRANCH   9  10
ENDBRANCH   2   4
ENDBRANCH   1   2
BRANCH   1  17
ATOM     17  C   UNL     1      38.352   5.779  15.826  0.00  0.00    +0.000 C 
BRANCH  17  19
ATOM     18  N   UNL     1      36.627   3.888  15.860  0.00  0.00    +0.000 NA
ATOM     19  C   UNL     1      37.974   4.349  15.851  0.00  0.00    +0.000 C 
ATOM     20  O   UNL     1      38.856   3.421  15.864  0.00  0.00    +0.000 OA
BRANCH  18  24
ATOM     21  C   UNL     1      35.756  -0.258  15.907  0.00  0.00    +0.000 A 
ATOM     22  C   UNL     1      35.553   0.497  17.038  0.00  0.00    +0.000 A 
ATOM     23  C   UNL     1      35.842   1.877  17.023  0.00  0.00    +0.000 A 
ATOM     24  C   UNL     1      36.328   2.474  15.884  0.00  0.00    +0.000 A 
ATOM     25  C   UNL     1      36.515   1.683  14.781  0.00  0.00    +0.000 A 
ATOM     26  C   UNL     1      36.221   0.312  14.815  0.00  0.00    +0.000 A 
BRANCH  21  27
ATOM     27  C   UNL     1      35.381  -1.775  16.101  0.00  0.00    +0.000 C 
ATOM     28  C   UNL     1      36.770  -2.410  15.434  0.00  0.00    +0.000 C 
BRANCH  27  30
ATOM     29  C   UNL     1      37.081  -2.947  17.440  0.00  0.00    +0.000 C 
ATOM     30  C   UNL     1      35.998  -1.875  17.630  0.00  0.00    +0.000 C 
ENDBRANCH  27  30
ENDBRANCH  21  27
ENDBRANCH  18  24
ENDBRANCH  17  19
ENDBRANCH   1  17
TORSDOF 8
ENDMDL
