MODEL 1
REMARK VINA RESULT:      -8.1      0.000      0.000
REMARK  Name = 
REMARK  6 active torsions:
REMARK  status: ('A' for Active; 'I' for Inactive)
REMARK    1  A    between atoms: C_2  and  C_3
REMARK    2  A    between atoms: C_4  and  N_5
REMARK    3  A    between atoms: N_5  and  C_6
REMARK    4  A    between atoms: C_6  and  C_7
REMARK    5  A    between atoms: N_25  and  C_26
REMARK    6  A    between atoms: C_26  and  C_27
REMARK                            x       y       z     vdW  Elec       q    Type
REMARK                         _______ _______ _______ _____ _____    ______ ____
ROOT
ATOM      1  C   UNL     1      39.352   2.989  14.542  0.00  0.00    +0.000 A 
ATOM      2  C   UNL     1      38.340   3.421  15.372  0.00  0.00    +0.000 A 
ATOM      3  N   UNL     1      37.486   2.539  15.908  0.00  0.00    +0.000 NA
ATOM      4  C   UNL     1      37.586   1.200  15.657  0.00  0.00    +0.000 A 
ATOM      5  N   UNL     1      36.670   0.283  16.237  0.00  0.00    +0.000 N 
ATOM      6  C   UNL     1      35.617   0.745  17.101  0.00  0.00    +0.000 C 
ATOM      7  C   UNL     1      35.261  -0.385  18.043  0.00  0.00    +0.000 C 
ATOM      8  C   UNL     1      36.493  -1.197  18.415  0.00  0.00    +0.000 C 
ATOM      9  C   UNL     1      37.112  -1.877  17.235  0.00  0.00    +0.000 C 
ATOM     10  C   UNL     1      36.797  -1.127  15.955  0.00  0.00    +0.000 C 
ATOM     11  C   UNL     1      38.597   0.732  14.825  0.00  0.00    +0.000 A 
ATOM     12  C   UNL     1      39.470   1.636  14.275  0.00  0.00    +0.000 A 
ATOM     13  C   UNL     1      40.565   1.147  13.376  0.00  0.00    +0.000 C 
ATOM     14  C   UNL     1      40.887  -0.265  13.813  0.00  0.00    +0.000 C 
ATOM     15  N   UNL     1      39.709  -1.079  13.683  0.00  0.00    +0.000 NA
ATOM     16  C   UNL     1      38.660  -0.727  14.586  0.00  0.00    +0.000 C 
ENDROOT
BRANCH   1  18
ATOM     17  N   UNL     1      41.059   4.615  13.436  0.00  0.00    +0.000 NA
ATOM     18  C   UNL     1      40.298   3.880  13.937  0.00  0.00    +0.000 C 
ENDBRANCH   1  18
BRANCH   2  19
ATOM     19  N   UNL     1      38.258   4.820  15.617  0.00  0.00    +0.000 NA
BRANCH  19  20
ATOM     20  C   UNL     1      38.004   5.247  16.977  0.00  0.00    +0.000 C 
BRANCH  20  21
ATOM     21  C   UNL     1      39.277   5.686  17.591  0.00  0.00    +0.000 A 
ATOM     22  C   UNL     1      40.402   6.008  16.898  0.00  0.00    +0.000 A 
ATOM     23  C   UNL     1      41.574   6.412  17.473  0.00  0.00    +0.000 A 
ATOM     24  C   UNL     1      41.604   6.496  18.864  0.00  0.00    +0.000 A 
ATOM     25  C   UNL     1      40.479   6.176  19.593  0.00  0.00    +0.000 A 
ATOM     26  C   UNL     1      39.314   5.771  18.979  0.00  0.00    +0.000 A 
ENDBRANCH  20  21
ENDBRANCH  19  20
ENDBRANCH   2  19
BRANCH  15  27
ATOM     27  C   UNL     1      39.990  -2.481  13.678  0.00  0.00    +0.000 C 
BRANCH  27  28
ATOM     28  C   UNL     1      40.592  -2.822  12.350  0.00  0.00    +0.000 A 
ATOM     29  C   UNL     1      39.885  -2.514  11.201  0.00  0.00    +0.000 A 
ATOM     30  C   UNL     1      40.458  -2.837   9.984  0.00  0.00    +0.000 A 
ATOM     31  C   UNL     1      41.690  -3.448   9.871  0.00  0.00    +0.000 A 
ATOM     32  C   UNL     1      42.398  -3.757  11.022  0.00  0.00    +0.000 A 
ATOM     33  C   UNL     1      41.824  -3.432  12.234  0.00  0.00    +0.000 A 
ENDBRANCH  27  28
ENDBRANCH  15  27
TORSDOF 6
ENDMDL
MODEL 2
REMARK VINA RESULT:      -7.8      1.914      2.580
REMARK  Name = 
REMARK  6 active torsions:
REMARK  status: ('A' for Active; 'I' for Inactive)
REMARK    1  A    between atoms: C_2  and  C_3
REMARK    2  A    between atoms: C_4  and  N_5
REMARK    3  A    between atoms: N_5  and  C_6
REMARK    4  A    between atoms: C_6  and  C_7
REMARK    5  A    between atoms: N_25  and  C_26
REMARK    6  A    between atoms: C_26  and  C_27
REMARK                            x       y       z     vdW  Elec       q    Type
REMARK                         _______ _______ _______ _____ _____    ______ ____
ROOT
ATOM      1  C   UNL     1      39.554   3.009  14.035  0.00  0.00    +0.000 A 
ATOM      2  C   UNL     1      38.429   3.646  14.511  0.00  0.00    +0.000 A 
ATOM      3  N   UNL     1      37.469   2.945  15.128  0.00  0.00    +0.000 NA
ATOM      4  C   UNL     1      37.568   1.594  15.305  0.00  0.00    +0.000 A 
ATOM      5  N   UNL     1      36.538   0.871  15.962  0.00  0.00    +0.000 N 
ATOM      6  C   UNL     1      35.368   1.546  16.455  0.00  0.00    +0.000 C 
ATOM      7  C   UNL     1      34.820   0.738  17.613  0.00  0.00    +0.000 C 
ATOM      8  C   UNL     1      35.944   0.099  18.415  0.00  0.00    +0.000 C 
ATOM      9  C   UNL     1      36.733  -0.887  17.614  0.00  0.00    +0.000 C 
ATOM     10  C   UNL     1      36.667  -0.557  16.136  0.00  0.00    +0.000 C 
ATOM     11  C   UNL     1      38.691   0.922  14.837  0.00  0.00    +0.000 A 
ATOM     12  C   UNL     1      39.675   1.640  14.204  0.00  0.00    +0.000 A 
ATOM     13  C   UNL     1      40.892   0.930  13.694  0.00  0.00    +0.000 C 
ATOM     14  C   UNL     1      41.089  -0.281  14.577  0.00  0.00    +0.000 C 
ATOM     15  N   UNL     1      39.925  -1.122  14.491  0.00  0.00    +0.000 NA
ATOM     16  C   UNL     1      38.749  -0.541  15.054  0.00  0.00    +0.000 C 
ENDROOT
BRANCH   1  18
ATOM     17  N   UNL     1      41.479   4.265  12.809  0.00  0.00    +0.000 NA
ATOM     18  C   UNL     1      40.618   3.701  13.367  0.00  0.00    +0.000 C 
ENDBRANCH   1  18
BRANCH   2  19
ATOM     19  N   UNL     1      38.351   5.053  14.315  0.00  0.00    +0.000 NA
BRANCH  19  20
ATOM     20  C   UNL     1      37.831   5.853  15.405  0.00  0.00    +0.000 C 
BRANCH  20  21
ATOM     21  C   UNL     1      38.855   5.941  16.469  0.00  0.00    +0.000 A 
ATOM     22  C   UNL     1      40.159   6.268  16.265  0.00  0.00    +0.000 A 
ATOM     23  C   UNL     1      41.099   6.347  17.255  0.00  0.00    +0.000 A 
ATOM     24  C   UNL     1      40.677   6.074  18.556  0.00  0.00    +0.000 A 
ATOM     25  C   UNL     1      39.362   5.741  18.792  0.00  0.00    +0.000 A 
ATOM     26  C   UNL     1      38.441   5.670  17.769  0.00  0.00    +0.000 A 
ENDBRANCH  20  21
ENDBRANCH  19  20
ENDBRANCH   2  19
BRANCH  15  27
ATOM     27  C   UNL     1      40.159  -2.456  14.949  0.00  0.00    +0.000 C 
BRANCH  27  28
ATOM     28  C   UNL     1      38.834  -3.145  15.049  0.00  0.00    +0.000 A 
ATOM     29  C   UNL     1      37.990  -3.126  13.952  0.00  0.00    +0.000 A 
ATOM     30  C   UNL     1      36.770  -3.768  14.064  0.00  0.00    +0.000 A 
ATOM     31  C   UNL     1      36.365  -4.418  15.212  0.00  0.00    +0.000 A 
ATOM     32  C   UNL     1      37.209  -4.437  16.310  0.00  0.00    +0.000 A 
ATOM     33  C   UNL     1      38.426  -3.796  16.195  0.00  0.00    +0.000 A 
ENDBRANCH  27  28
ENDBRANCH  15  27
TORSDOF 6
ENDMDL
MODEL 3
REMARK VINA RESULT:      -7.7      3.755      7.445
REMARK  Name = 
REMARK  6 active torsions:
REMARK  status: ('A' for Active; 'I' for Inactive)
REMARK    1  A    between atoms: C_2  and  C_3
REMARK    2  A    between atoms: C_4  and  N_5
REMARK    3  A    between atoms: N_5  and  C_6
REMARK    4  A    between atoms: C_6  and  C_7
REMARK    5  A    between atoms: N_25  and  C_26
REMARK    6  A    between atoms: C_26  and  C_27
REMARK                            x       y       z     vdW  Elec       q    Type
REMARK                         _______ _______ _______ _____ _____    ______ ____
ROOT
ATOM      1  C   UNL     1      36.683   0.399  15.880  0.00  0.00    +0.000 A 
ATOM      2  C   UNL     1      37.448  -0.590  16.458  0.00  0.00    +0.000 A 
ATOM      3  N   UNL     1      38.595  -0.976  15.883  0.00  0.00    +0.000 NA
ATOM      4  C   UNL     1      39.042  -0.411  14.723  0.00  0.00    +0.000 A 
ATOM      5  N   UNL     1      40.261  -0.835  14.131  0.00  0.00    +0.000 N 
ATOM      6  C   UNL     1      41.052  -1.869  14.743  0.00  0.00    +0.000 C 
ATOM      7  C   UNL     1      42.493  -1.653  14.332  0.00  0.00    +0.000 C 
ATOM      8  C   UNL     1      42.813  -0.171  14.215  0.00  0.00    +0.000 C 
ATOM      9  C   UNL     1      42.017   0.507  13.146  0.00  0.00    +0.000 C 
ATOM     10  C   UNL     1      40.710  -0.223  12.904  0.00  0.00    +0.000 C 
ATOM     11  C   UNL     1      38.292   0.590  14.115  0.00  0.00    +0.000 A 
ATOM     12  C   UNL     1      37.117   0.984  14.703  0.00  0.00    +0.000 A 
ATOM     13  C   UNL     1      36.298   2.062  14.060  0.00  0.00    +0.000 C 
ATOM     14  C   UNL     1      37.263   2.943  13.298  0.00  0.00    +0.000 C 
ATOM     15  N   UNL     1      37.943   2.151  12.309  0.00  0.00    +0.000 NA
ATOM     16  C   UNL     1      38.820   1.168  12.858  0.00  0.00    +0.000 C 
ENDROOT
BRANCH   1  18
ATOM     17  N   UNL     1      34.444   1.237  16.915  0.00  0.00    +0.000 NA
ATOM     18  C   UNL     1      35.446   0.858  16.443  0.00  0.00    +0.000 C 
ENDBRANCH   1  18
BRANCH   2  19
ATOM     19  N   UNL     1      36.961  -1.161  17.666  0.00  0.00    +0.000 NA
BRANCH  19  20
ATOM     20  C   UNL     1      37.005  -2.604  17.790  0.00  0.00    +0.000 C 
BRANCH  20  21
ATOM     21  C   UNL     1      36.140  -3.204  16.750  0.00  0.00    +0.000 A 
ATOM     22  C   UNL     1      34.829  -2.897  16.561  0.00  0.00    +0.000 A 
ATOM     23  C   UNL     1      34.036  -3.457  15.597  0.00  0.00    +0.000 A 
ATOM     24  C   UNL     1      34.627  -4.402  14.759  0.00  0.00    +0.000 A 
ATOM     25  C   UNL     1      35.953  -4.732  14.927  0.00  0.00    +0.000 A 
ATOM     26  C   UNL     1      36.722  -4.148  15.911  0.00  0.00    +0.000 A 
ENDBRANCH  20  21
ENDBRANCH  19  20
ENDBRANCH   2  19
BRANCH  15  27
ATOM     27  C   UNL     1      38.561   2.936  11.286  0.00  0.00    +0.000 C 
BRANCH  27  28
ATOM     28  C   UNL     1      37.666   2.912  10.087  0.00  0.00    +0.000 A 
ATOM     29  C   UNL     1      37.609   1.761   9.321  0.00  0.00    +0.000 A 
ATOM     30  C   UNL     1      36.775   1.759   8.217  0.00  0.00    +0.000 A 
ATOM     31  C   UNL     1      36.008   2.845   7.853  0.00  0.00    +0.000 A 
ATOM     32  C   UNL     1      36.065   3.999   8.618  0.00  0.00    +0.000 A 
ATOM     33  C   UNL     1      36.897   3.997   9.719  0.00  0.00    +0.000 A 
ENDBRANCH  27  28
ENDBRANCH  15  27
TORSDOF 6
ENDMDL
MODEL 4
REMARK VINA RESULT:      -7.7      1.802      2.428
REMARK  Name = 
REMARK  6 active torsions:
REMARK  status: ('A' for Active; 'I' for Inactive)
REMARK    1  A    between atoms: C_2  and  C_3
REMARK    2  A    between atoms: C_4  and  N_5
REMARK    3  A    between atoms: N_5  and  C_6
REMARK    4  A    between atoms: C_6  and  C_7
REMARK    5  A    between atoms: N_25  and  C_26
REMARK    6  A    between atoms: C_26  and  C_27
REMARK                            x       y       z     vdW  Elec       q    Type
REMARK                         _______ _______ _______ _____ _____    ______ ____
ROOT
ATOM      1  C   UNL     1      39.672   4.408  14.694  0.00  0.00    +0.000 A 
ATOM      2  C   UNL     1      38.737   4.784  15.633  0.00  0.00    +0.000 A 
ATOM      3  N   UNL     1      37.682   3.996  15.883  0.00  0.00    +0.000 NA
ATOM      4  C   UNL     1      37.498   2.812  15.228  0.00  0.00    +0.000 A 
ATOM      5  N   UNL     1      36.372   1.994  15.509  0.00  0.00    +0.000 N 
ATOM      6  C   UNL     1      35.402   2.395  16.491  0.00  0.00    +0.000 C 
ATOM      7  C   UNL     1      34.754   1.142  17.042  0.00  0.00    +0.000 C 
ATOM      8  C   UNL     1      35.755  -0.001  17.123  0.00  0.00    +0.000 C 
ATOM      9  C   UNL     1      36.272  -0.409  15.780  0.00  0.00    +0.000 C 
ATOM     10  C   UNL     1      36.201   0.747  14.802  0.00  0.00    +0.000 C 
ATOM     11  C   UNL     1      38.425   2.405  14.274  0.00  0.00    +0.000 A 
ATOM     12  C   UNL     1      39.505   3.212  14.018  0.00  0.00    +0.000 A 
ATOM     13  C   UNL     1      40.513   2.787  12.993  0.00  0.00    +0.000 C 
ATOM     14  C   UNL     1      40.492   1.275  12.965  0.00  0.00    +0.000 C 
ATOM     15  N   UNL     1      39.172   0.829  12.608  0.00  0.00    +0.000 NA
ATOM     16  C   UNL     1      38.179   1.115  13.593  0.00  0.00    +0.000 C 
ENDROOT
BRANCH   1  18
ATOM     17  N   UNL     1      41.761   5.861  14.135  0.00  0.00    +0.000 NA
ATOM     18  C   UNL     1      40.824   5.204  14.379  0.00  0.00    +0.000 C 
ENDBRANCH   1  18
BRANCH   2  19
ATOM     19  N   UNL     1      38.951   6.020  16.302  0.00  0.00    +0.000 NA
BRANCH  19  20
ATOM     20  C   UNL     1      38.800   6.037  17.742  0.00  0.00    +0.000 C 
BRANCH  20  21
ATOM     21  C   UNL     1      40.125   6.253  18.364  0.00  0.00    +0.000 A 
ATOM     22  C   UNL     1      41.286   6.425  17.677  0.00  0.00    +0.000 A 
ATOM     23  C   UNL     1      42.506   6.624  18.260  0.00  0.00    +0.000 A 
ATOM     24  C   UNL     1      42.549   6.650  19.653  0.00  0.00    +0.000 A 
ATOM     25  C   UNL     1      41.388   6.478  20.376  0.00  0.00    +0.000 A 
ATOM     26  C   UNL     1      40.175   6.279  19.754  0.00  0.00    +0.000 A 
ENDBRANCH  20  21
ENDBRANCH  19  20
ENDBRANCH   2  19
BRANCH  15  27
ATOM     27  C   UNL     1      39.138  -0.530  12.164  0.00  0.00    +0.000 C 
BRANCH  27  28
ATOM     28  C   UNL     1      39.516  -1.400  13.322  0.00  0.00    +0.000 A 
ATOM     29  C   UNL     1      40.851  -1.493  13.676  0.00  0.00    +0.000 A 
ATOM     30  C   UNL     1      41.179  -2.302  14.749  0.00  0.00    +0.000 A 
ATOM     31  C   UNL     1      40.242  -3.012  15.470  0.00  0.00    +0.000 A 
ATOM     32  C   UNL     1      38.906  -2.919  15.115  0.00  0.00    +0.000 A 
ATOM     33  C   UNL     1      38.581  -2.111  14.045  0.00  0.00    +0.000 A 
ENDBRANCH  27  28
ENDBRANCH  15  27
TORSDOF 6
ENDMDL
MODEL 5
REMARK VINA RESULT:      -7.6      2.449      3.256
REMARK  Name = 
REMARK  6 active torsions:
REMARK  status: ('A' for Active; 'I' for Inactive)
REMARK    1  A    between atoms: C_2  and  C_3
REMARK    2  A    between atoms: C_4  and  N_5
REMARK    3  A    between atoms: N_5  and  C_6
REMARK    4  A    between atoms: C_6  and  C_7
REMARK    5  A    between atoms: N_25  and  C_26
REMARK    6  A    between atoms: C_26  and  C_27
REMARK                            x       y       z     vdW  Elec       q    Type
REMARK                         _______ _______ _______ _____ _____    ______ ____
ROOT
ATOM      1  C   UNL     1      39.134   4.458  15.510  0.00  0.00    +0.000 A 
ATOM      2  C   UNL     1      38.241   4.424  16.559  0.00  0.00    +0.000 A 
ATOM      3  N   UNL     1      37.309   3.464  16.617  0.00  0.00    +0.000 NA
ATOM      4  C   UNL     1      37.210   2.499  15.656  0.00  0.00    +0.000 A 
ATOM      5  N   UNL     1      36.213   1.491  15.739  0.00  0.00    +0.000 N 
ATOM      6  C   UNL     1      35.287   1.465  16.838  0.00  0.00    +0.000 C 
ATOM      7  C   UNL     1      34.837   0.032  17.030  0.00  0.00    +0.000 C 
ATOM      8  C   UNL     1      35.966  -0.942  16.730  0.00  0.00    +0.000 C 
ATOM      9  C   UNL     1      36.415  -0.881  15.305  0.00  0.00    +0.000 C 
ATOM     10  C   UNL     1      36.130   0.483  14.708  0.00  0.00    +0.000 C 
ATOM     11  C   UNL     1      38.096   2.506  14.584  0.00  0.00    +0.000 A 
ATOM     12  C   UNL     1      39.051   3.490  14.524  0.00  0.00    +0.000 A 
ATOM     13  C   UNL     1      40.013   3.511  13.375  0.00  0.00    +0.000 C 
ATOM     14  C   UNL     1      40.166   2.080  12.911  0.00  0.00    +0.000 C 
ATOM     15  N   UNL     1      38.881   1.579  12.500  0.00  0.00    +0.000 NA
ATOM     16  C   UNL     1      37.946   1.439  13.570  0.00  0.00    +0.000 C 
ENDROOT
BRANCH   1  18
ATOM     17  N   UNL     1      40.992   6.268  15.273  0.00  0.00    +0.000 NA
ATOM     18  C   UNL     1      40.155   5.458  15.387  0.00  0.00    +0.000 C 
ENDBRANCH   1  18
BRANCH   2  19
ATOM     19  N   UNL     1      38.366   5.439  17.547  0.00  0.00    +0.000 NA
BRANCH  19  20
ATOM     20  C   UNL     1      39.056   5.098  18.774  0.00  0.00    +0.000 C 
BRANCH  20  21
ATOM     21  C   UNL     1      39.794   6.285  19.259  0.00  0.00    +0.000 A 
ATOM     22  C   UNL     1      39.242   7.303  19.972  0.00  0.00    +0.000 A 
ATOM     23  C   UNL     1      39.932   8.397  20.416  0.00  0.00    +0.000 A 
ATOM     24  C   UNL     1      41.291   8.459  20.111  0.00  0.00    +0.000 A 
ATOM     25  C   UNL     1      41.877   7.442  19.390  0.00  0.00    +0.000 A 
ATOM     26  C   UNL     1      41.151   6.354  18.957  0.00  0.00    +0.000 A 
ENDBRANCH  20  21
ENDBRANCH  19  20
ENDBRANCH   2  19
BRANCH  15  27
ATOM     27  C   UNL     1      38.968   0.409  11.682  0.00  0.00    +0.000 C 
BRANCH  27  28
ATOM     28  C   UNL     1      38.553   0.789  10.295  0.00  0.00    +0.000 A 
ATOM     29  C   UNL     1      39.412   0.516   9.245  0.00  0.00    +0.000 A 
ATOM     30  C   UNL     1      39.010   0.875   7.971  0.00  0.00    +0.000 A 
ATOM     31  C   UNL     1      37.802   1.486   7.708  0.00  0.00    +0.000 A 
ATOM     32  C   UNL     1      36.941   1.760   8.759  0.00  0.00    +0.000 A 
ATOM     33  C   UNL     1      37.345   1.401  10.029  0.00  0.00    +0.000 A 
ENDBRANCH  27  28
ENDBRANCH  15  27
TORSDOF 6
ENDMDL
MODEL 6
REMARK VINA RESULT:      -7.3      2.298      4.654
REMARK  Name = 
REMARK  6 active torsions:
REMARK  status: ('A' for Active; 'I' for Inactive)
REMARK    1  A    between atoms: C_2  and  C_3
REMARK    2  A    between atoms: C_4  and  N_5
REMARK    3  A    between atoms: N_5  and  C_6
REMARK    4  A    between atoms: C_6  and  C_7
REMARK    5  A    between atoms: N_25  and  C_26
REMARK    6  A    between atoms: C_26  and  C_27
REMARK                            x       y       z     vdW  Elec       q    Type
REMARK                         _______ _______ _______ _____ _____    ______ ____
ROOT
ATOM      1  C   UNL     1      40.575   0.680  14.092  0.00  0.00    +0.000 A 
ATOM      2  C   UNL     1      39.945   1.894  13.929  0.00  0.00    +0.000 A 
ATOM      3  N   UNL     1      38.636   2.012  14.188  0.00  0.00    +0.000 NA
ATOM      4  C   UNL     1      37.890   0.952  14.618  0.00  0.00    +0.000 A 
ATOM      5  N   UNL     1      36.504   1.100  14.887  0.00  0.00    +0.000 N 
ATOM      6  C   UNL     1      35.856   2.372  14.713  0.00  0.00    +0.000 C 
ATOM      7  C   UNL     1      34.664   2.417  15.647  0.00  0.00    +0.000 C 
ATOM      8  C   UNL     1      34.960   1.683  16.947  0.00  0.00    +0.000 C 
ATOM      9  C   UNL     1      35.215   0.225  16.739  0.00  0.00    +0.000 C 
ATOM     10  C   UNL     1      35.739  -0.037  15.340  0.00  0.00    +0.000 C 
ATOM     11  C   UNL     1      38.498  -0.287  14.794  0.00  0.00    +0.000 A 
ATOM     12  C   UNL     1      39.838  -0.408  14.527  0.00  0.00    +0.000 A 
ATOM     13  C   UNL     1      40.507  -1.737  14.711  0.00  0.00    +0.000 C 
ATOM     14  C   UNL     1      39.734  -2.466  15.787  0.00  0.00    +0.000 C 
ATOM     15  N   UNL     1      38.370  -2.629  15.359  0.00  0.00    +0.000 NA
ATOM     16  C   UNL     1      37.645  -1.403  15.260  0.00  0.00    +0.000 C 
ENDROOT
BRANCH   1  18
ATOM     17  N   UNL     1      43.114   0.320  13.634  0.00  0.00    +0.000 NA
ATOM     18  C   UNL     1      41.973   0.486  13.833  0.00  0.00    +0.000 C 
ENDBRANCH   1  18
BRANCH   2  19
ATOM     19  N   UNL     1      40.743   2.982  13.481  0.00  0.00    +0.000 NA
BRANCH  19  20
ATOM     20  C   UNL     1      40.114   4.284  13.396  0.00  0.00    +0.000 C 
BRANCH  20  21
ATOM     21  C   UNL     1      40.471   5.072  14.597  0.00  0.00    +0.000 A 
ATOM     22  C   UNL     1      39.705   5.171  15.716  0.00  0.00    +0.000 A 
ATOM     23  C   UNL     1      40.043   5.901  16.821  0.00  0.00    +0.000 A 
ATOM     24  C   UNL     1      41.258   6.584  16.784  0.00  0.00    +0.000 A 
ATOM     25  C   UNL     1      42.055   6.503  15.663  0.00  0.00    +0.000 A 
ATOM     26  C   UNL     1      41.682   5.757  14.566  0.00  0.00    +0.000 A 
ENDBRANCH  20  21
ENDBRANCH  19  20
ENDBRANCH   2  19
BRANCH  15  27
ATOM     27  C   UNL     1      37.666  -3.633  16.093  0.00  0.00    +0.000 C 
BRANCH  27  28
ATOM     28  C   UNL     1      37.839  -3.341  17.551  0.00  0.00    +0.000 A 
ATOM     29  C   UNL     1      38.684  -4.145  18.295  0.00  0.00    +0.000 A 
ATOM     30  C   UNL     1      38.830  -3.858  19.641  0.00  0.00    +0.000 A 
ATOM     31  C   UNL     1      38.175  -2.816  20.263  0.00  0.00    +0.000 A 
ATOM     32  C   UNL     1      37.328  -2.011  19.518  0.00  0.00    +0.000 A 
ATOM     33  C   UNL     1      37.185  -2.299  18.176  0.00  0.00    +0.000 A 
ENDBRANCH  27  28
ENDBRANCH  15  27
TORSDOF 6
ENDMDL
MODEL 7
REMARK VINA RESULT:      -7.3      2.590      3.653
REMARK  Name = 
REMARK  6 active torsions:
REMARK  status: ('A' for Active; 'I' for Inactive)
REMARK    1  A    between atoms: C_2  and  C_3
REMARK    2  A    between atoms: C_4  and  N_5
REMARK    3  A    between atoms: N_5  and  C_6
REMARK    4  A    between atoms: C_6  and  C_7
REMARK    5  A    between atoms: N_25  and  C_26
REMARK    6  A    between atoms: C_26  and  C_27
REMARK                            x       y       z     vdW  Elec       q    Type
REMARK                         _______ _______ _______ _____ _____    ______ ____
ROOT
ATOM      1  C   UNL     1      37.093   2.287  13.832  0.00  0.00    +0.000 A 
ATOM      2  C   UNL     1      36.697   2.864  15.019  0.00  0.00    +0.000 A 
ATOM      3  N   UNL     1      36.412   2.094  16.078  0.00  0.00    +0.000 NA
ATOM      4  C   UNL     1      36.502   0.733  16.022  0.00  0.00    +0.000 A 
ATOM      5  N   UNL     1      36.195  -0.063  17.157  0.00  0.00    +0.000 N 
ATOM      6  C   UNL     1      35.782   0.549  18.391  0.00  0.00    +0.000 C 
ATOM      7  C   UNL     1      36.161  -0.386  19.521  0.00  0.00    +0.000 C 
ATOM      8  C   UNL     1      37.467  -1.107  19.220  0.00  0.00    +0.000 C 
ATOM      9  C   UNL     1      37.371  -1.994  18.020  0.00  0.00    +0.000 C 
ATOM     10  C   UNL     1      36.298  -1.501  17.070  0.00  0.00    +0.000 C 
ATOM     11  C   UNL     1      36.899   0.121  14.838  0.00  0.00    +0.000 A 
ATOM     12  C   UNL     1      37.191   0.909  13.753  0.00  0.00    +0.000 A 
ATOM     13  C   UNL     1      37.621   0.264  12.470  0.00  0.00    +0.000 C 
ATOM     14  C   UNL     1      38.294  -1.038  12.843  0.00  0.00    +0.000 C 
ATOM     15  N   UNL     1      37.355  -1.868  13.550  0.00  0.00    +0.000 NA
ATOM     16  C   UNL     1      36.981  -1.357  14.829  0.00  0.00    +0.000 C 
ENDROOT
BRANCH   1  18
ATOM     17  N   UNL     1      37.679   3.665  11.700  0.00  0.00    +0.000 NA
ATOM     18  C   UNL     1      37.413   3.053  12.662  0.00  0.00    +0.000 C 
ENDBRANCH   1  18
BRANCH   2  19
ATOM     19  N   UNL     1      36.612   4.283  15.053  0.00  0.00    +0.000 NA
BRANCH  19  20
ATOM     20  C   UNL     1      37.849   5.030  14.962  0.00  0.00    +0.000 C 
BRANCH  20  21
ATOM     21  C   UNL     1      38.193   5.558  16.301  0.00  0.00    +0.000 A 
ATOM     22  C   UNL     1      38.077   6.861  16.674  0.00  0.00    +0.000 A 
ATOM     23  C   UNL     1      38.398   7.340  17.913  0.00  0.00    +0.000 A 
ATOM     24  C   UNL     1      38.872   6.421  18.847  0.00  0.00    +0.000 A 
ATOM     25  C   UNL     1      39.000   5.094  18.498  0.00  0.00    +0.000 A 
ATOM     26  C   UNL     1      38.669   4.646  17.238  0.00  0.00    +0.000 A 
ENDBRANCH  20  21
ENDBRANCH  19  20
ENDBRANCH   2  19
BRANCH  15  27
ATOM     27  C   UNL     1      37.741  -3.244  13.592  0.00  0.00    +0.000 C 
BRANCH  27  28
ATOM     28  C   UNL     1      36.762  -3.967  14.466  0.00  0.00    +0.000 A 
ATOM     29  C   UNL     1      35.419  -3.923  14.138  0.00  0.00    +0.000 A 
ATOM     30  C   UNL     1      34.531  -4.597  14.957  0.00  0.00    +0.000 A 
ATOM     31  C   UNL     1      34.927  -5.302  16.075  0.00  0.00    +0.000 A 
ATOM     32  C   UNL     1      36.272  -5.345  16.404  0.00  0.00    +0.000 A 
ATOM     33  C   UNL     1      37.155  -4.673  15.584  0.00  0.00    +0.000 A 
ENDBRANCH  27  28
ENDBRANCH  15  27
TORSDOF 6
ENDMDL
MODEL 8
REMARK VINA RESULT:      -7.3      3.552      6.765
REMARK  Name = 
REMARK  6 active torsions:
REMARK  status: ('A' for Active; 'I' for Inactive)
REMARK    1  A    between atoms: C_2  and  C_3
REMARK    2  A    between atoms: C_4  and  N_5
REMARK    3  A    between atoms: N_5  and  C_6
REMARK    4  A    between atoms: C_6  and  C_7
REMARK    5  A    between atoms: N_25  and  C_26
REMARK    6  A    between atoms: C_26  and  C_27
REMARK                            x       y       z     vdW  Elec       q    Type
REMARK                         _______ _______ _______ _____ _____    ______ ____
ROOT
ATOM      1  C   UNL     1      36.160   2.588  14.455  0.00  0.00    +0.000 A 
ATOM      2  C   UNL     1      37.068   2.609  13.420  0.00  0.00    +0.000 A 
ATOM      3  N   UNL     1      37.961   1.619  13.288  0.00  0.00    +0.000 NA
ATOM      4  C   UNL     1      38.003   0.569  14.161  0.00  0.00    +0.000 A 
ATOM      5  N   UNL     1      38.959  -0.469  14.002  0.00  0.00    +0.000 N 
ATOM      6  C   UNL     1      39.902  -0.437  12.918  0.00  0.00    +0.000 C 
ATOM      7  C   UNL     1      40.296  -1.865  12.604  0.00  0.00    +0.000 C 
ATOM      8  C   UNL     1      39.122  -2.813  12.801  0.00  0.00    +0.000 C 
ATOM      9  C   UNL     1      38.652  -2.860  14.219  0.00  0.00    +0.000 C 
ATOM     10  C   UNL     1      38.982  -1.567  14.939  0.00  0.00    +0.000 C 
ATOM     11  C   UNL     1      37.099   0.519  15.217  0.00  0.00    +0.000 A 
ATOM     12  C   UNL     1      36.185   1.533  15.352  0.00  0.00    +0.000 A 
ATOM     13  C   UNL     1      35.204   1.493  16.484  0.00  0.00    +0.000 C 
ATOM     14  C   UNL     1      34.985   0.034  16.817  0.00  0.00    +0.000 C 
ATOM     15  N   UNL     1      36.241  -0.556  17.199  0.00  0.00    +0.000 NA
ATOM     16  C   UNL     1      37.188  -0.640  16.134  0.00  0.00    +0.000 C 
ENDROOT
BRANCH   1  18
ATOM     17  N   UNL     1      34.366   4.444  14.808  0.00  0.00    +0.000 NA
ATOM     18  C   UNL     1      35.178   3.615  14.653  0.00  0.00    +0.000 C 
ENDBRANCH   1  18
BRANCH   2  19
ATOM     19  N   UNL     1      37.003   3.712  12.525  0.00  0.00    +0.000 NA
BRANCH  19  20
ATOM     20  C   UNL     1      37.960   3.750  11.438  0.00  0.00    +0.000 C 
BRANCH  20  21
ATOM     21  C   UNL     1      37.248   3.524  10.160  0.00  0.00    +0.000 A 
ATOM     22  C   UNL     1      36.486   4.452   9.523  0.00  0.00    +0.000 A 
ATOM     23  C   UNL     1      35.831   4.234   8.342  0.00  0.00    +0.000 A 
ATOM     24  C   UNL     1      35.965   2.973   7.764  0.00  0.00    +0.000 A 
ATOM     25  C   UNL     1      36.731   2.013   8.387  0.00  0.00    +0.000 A 
ATOM     26  C   UNL     1      37.377   2.266   9.578  0.00  0.00    +0.000 A 
ENDBRANCH  20  21
ENDBRANCH  19  20
ENDBRANCH   2  19
BRANCH  15  27
ATOM     27  C   UNL     1      36.091  -1.788  17.907  0.00  0.00    +0.000 C 
BRANCH  27  28
ATOM     28  C   UNL     1      35.842  -2.868  16.900  0.00  0.00    +0.000 A 
ATOM     29  C   UNL     1      36.671  -3.976  16.894  0.00  0.00    +0.000 A 
ATOM     30  C   UNL     1      36.424  -4.962  15.955  0.00  0.00    +0.000 A 
ATOM     31  C   UNL     1      35.398  -4.886  15.037  0.00  0.00    +0.000 A 
ATOM     32  C   UNL     1      34.569  -3.776  15.042  0.00  0.00    +0.000 A 
ATOM     33  C   UNL     1      34.817  -2.794  15.979  0.00  0.00    +0.000 A 
ENDBRANCH  27  28
ENDBRANCH  15  27
TORSDOF 6
ENDMDL
MODEL 9
REMARK VINA RESULT:      -7.2      3.500      6.558
REMARK  Name = 
REMARK  6 active torsions:
REMARK  status: ('A' for Active; 'I' for Inactive)
REMARK    1  A    between atoms: C_2  and  C_3
REMARK    2  A    between atoms: C_4  and  N_5
REMARK    3  A    between atoms: N_5  and  C_6
REMARK    4  A    between atoms: C_6  and  C_7
REMARK    5  A    between atoms: N_25  and  C_26
REMARK    6  A    between atoms: C_26  and  C_27
REMARK                            x       y       z     vdW  Elec       q    Type
REMARK                         _______ _______ _______ _____ _____    ______ ____
ROOT
ATOM      1  C   UNL     1      38.505  -1.010  14.661  0.00  0.00    +0.000 A 
ATOM      2  C   UNL     1      37.820   0.094  14.200  0.00  0.00    +0.000 A 
ATOM      3  N   UNL     1      38.490   1.133  13.684  0.00  0.00    +0.000 NA
ATOM      4  C   UNL     1      39.853   1.137  13.596  0.00  0.00    +0.000 A 
ATOM      5  N   UNL     1      40.541   2.250  13.044  0.00  0.00    +0.000 N 
ATOM      6  C   UNL     1      39.817   3.396  12.567  0.00  0.00    +0.000 C 
ATOM      7  C   UNL     1      40.658   4.063  11.497  0.00  0.00    +0.000 C 
ATOM      8  C   UNL     1      41.427   3.032  10.685  0.00  0.00    +0.000 C 
ATOM      9  C   UNL     1      42.412   2.268  11.510  0.00  0.00    +0.000 C 
ATOM     10  C   UNL     1      41.983   2.228  12.963  0.00  0.00    +0.000 C 
ATOM     11  C   UNL     1      40.572   0.038  14.052  0.00  0.00    +0.000 A 
ATOM     12  C   UNL     1      39.887  -1.026  14.581  0.00  0.00    +0.000 A 
ATOM     13  C   UNL     1      40.648  -2.218  15.077  0.00  0.00    +0.000 C 
ATOM     14  C   UNL     1      41.926  -2.283  14.270  0.00  0.00    +0.000 C 
ATOM     15  N   UNL     1      42.673  -1.070  14.474  0.00  0.00    +0.000 NA
ATOM     16  C   UNL     1      42.047   0.093  13.934  0.00  0.00    +0.000 C 
ENDROOT
BRANCH   1  18
ATOM     17  N   UNL     1      37.319  -3.085  15.698  0.00  0.00    +0.000 NA
ATOM     18  C   UNL     1      37.849  -2.155  15.224  0.00  0.00    +0.000 C 
ENDBRANCH   1  18
BRANCH   2  19
ATOM     19  N   UNL     1      36.402   0.065  14.303  0.00  0.00    +0.000 NA
BRANCH  19  20
ATOM     20  C   UNL     1      35.772   1.051  15.156  0.00  0.00    +0.000 C 
BRANCH  20  21
ATOM     21  C   UNL     1      35.676   0.510  16.530  0.00  0.00    +0.000 A 
ATOM     22  C   UNL     1      36.273   1.058  17.622  0.00  0.00    +0.000 A 
ATOM     23  C   UNL     1      36.179   0.551  18.889  0.00  0.00    +0.000 A 
ATOM     24  C   UNL     1      35.416  -0.604  19.057  0.00  0.00    +0.000 A 
ATOM     25  C   UNL     1      34.800  -1.180  17.968  0.00  0.00    +0.000 A 
ATOM     26  C   UNL     1      34.917  -0.643  16.705  0.00  0.00    +0.000 A 
ENDBRANCH  20  21
ENDBRANCH  19  20
ENDBRANCH   2  19
BRANCH  15  27
ATOM     27  C   UNL     1      44.048  -1.186  14.099  0.00  0.00    +0.000 C 
BRANCH  27  28
ATOM     28  C   UNL     1      44.860  -1.265  15.354  0.00  0.00    +0.000 A 
ATOM     29  C   UNL     1      45.071  -0.109  16.084  0.00  0.00    +0.000 A 
ATOM     30  C   UNL     1      45.824  -0.203  17.240  0.00  0.00    +0.000 A 
ATOM     31  C   UNL     1      46.368  -1.388  17.689  0.00  0.00    +0.000 A 
ATOM     32  C   UNL     1      46.157  -2.547  16.958  0.00  0.00    +0.000 A 
ATOM     33  C   UNL     1      45.405  -2.450  15.805  0.00  0.00    +0.000 A 
ENDBRANCH  27  28
ENDBRANCH  15  27
TORSDOF 6
ENDMDL
MODEL 10
REMARK VINA RESULT:      -7.2      3.094      5.335
REMARK  Name = 
REMARK  6 active torsions:
REMARK  status: ('A' for Active; 'I' for Inactive)
REMARK    1  A    between atoms: C_2  and  C_3
REMARK    2  A    between atoms: C_4  and  N_5
REMARK    3  A    between atoms: N_5  and  C_6
REMARK    4  A    between atoms: C_6  and  C_7
REMARK    5  A    between atoms: N_25  and  C_26
REMARK    6  A    between atoms: C_26  and  C_27
REMARK                            x       y       z     vdW  Elec       q    Type
REMARK                         _______ _______ _______ _____ _____    ______ ____
ROOT
ATOM      1  C   UNL     1      40.770  -0.665  14.460  0.00  0.00    +0.000 A 
ATOM      2  C   UNL     1      40.557   0.594  13.942  0.00  0.00    +0.000 A 
ATOM      3  N   UNL     1      39.347   1.161  14.030  0.00  0.00    +0.000 NA
ATOM      4  C   UNL     1      38.297   0.525  14.627  0.00  0.00    +0.000 A 
ATOM      5  N   UNL     1      37.022   1.146  14.709  0.00  0.00    +0.000 N 
ATOM      6  C   UNL     1      36.811   2.460  14.165  0.00  0.00    +0.000 C 
ATOM      7  C   UNL     1      35.675   3.103  14.933  0.00  0.00    +0.000 C 
ATOM      8  C   UNL     1      35.698   2.684  16.395  0.00  0.00    +0.000 C 
ATOM      9  C   UNL     1      35.485   1.215  16.577  0.00  0.00    +0.000 C 
ATOM     10  C   UNL     1      35.928   0.450  15.345  0.00  0.00    +0.000 C 
ATOM     11  C   UNL     1      38.479  -0.747  15.160  0.00  0.00    +0.000 A 
ATOM     12  C   UNL     1      39.719  -1.328  15.070  0.00  0.00    +0.000 A 
ATOM     13  C   UNL     1      39.931  -2.698  15.640  0.00  0.00    +0.000 C 
ATOM     14  C   UNL     1      38.946  -2.853  16.776  0.00  0.00    +0.000 C 
ATOM     15  N   UNL     1      37.609  -2.708  16.264  0.00  0.00    +0.000 NA
ATOM     16  C   UNL     1      37.309  -1.393  15.796  0.00  0.00    +0.000 C 
ENDROOT
BRANCH   1  18
ATOM     17  N   UNL     1      43.079  -1.866  14.365  0.00  0.00    +0.000 NA
ATOM     18  C   UNL     1      42.040  -1.329  14.400  0.00  0.00    +0.000 C 
ENDBRANCH   1  18
BRANCH   2  19
ATOM     19  N   UNL     1      41.667   1.236  13.326  0.00  0.00    +0.000 NA
BRANCH  19  20
ATOM     20  C   UNL     1      41.387   2.214  12.296  0.00  0.00    +0.000 C 
BRANCH  20  21
ATOM     21  C   UNL     1      41.901   3.532  12.729  0.00  0.00    +0.000 A 
ATOM     22  C   UNL     1      43.134   4.020  12.430  0.00  0.00    +0.000 A 
ATOM     23  C   UNL     1      43.601   5.240  12.835  0.00  0.00    +0.000 A 
ATOM     24  C   UNL     1      42.744   6.025  13.603  0.00  0.00    +0.000 A 
ATOM     25  C   UNL     1      41.488   5.557  13.922  0.00  0.00    +0.000 A 
ATOM     26  C   UNL     1      41.050   4.322  13.497  0.00  0.00    +0.000 A 
ENDBRANCH  20  21
ENDBRANCH  19  20
ENDBRANCH   2  19
BRANCH  15  27
ATOM     27  C   UNL     1      36.609  -3.225  17.145  0.00  0.00    +0.000 C 
BRANCH  27  28
ATOM     28  C   UNL     1      35.645  -4.023  16.323  0.00  0.00    +0.000 A 
ATOM     29  C   UNL     1      34.535  -3.386  15.795  0.00  0.00    +0.000 A 
ATOM     30  C   UNL     1      33.656  -4.141  15.039  0.00  0.00    +0.000 A 
ATOM     31  C   UNL     1      33.838  -5.486  14.795  0.00  0.00    +0.000 A 
ATOM     32  C   UNL     1      34.948  -6.124  15.324  0.00  0.00    +0.000 A 
ATOM     33  C   UNL     1      35.824  -5.369  16.076  0.00  0.00    +0.000 A 
ENDBRANCH  27  28
ENDBRANCH  15  27
TORSDOF 6
ENDMDL
