MODEL 1
REMARK VINA RESULT:      -7.7      0.000      0.000
REMARK  Name = 
REMARK  6 active torsions:
REMARK  status: ('A' for Active; 'I' for Inactive)
REMARK    1  A    between atoms: C_6  and  N_7
REMARK    2  A    between atoms: N_7  and  C_8
REMARK    3  A    between atoms: C_9  and  S_10
REMARK    4  A    between atoms: S_10  and  C_11
REMARK    5  A    between atoms: N_19  and  C_20
REMARK    6  A    between atoms: C_23  and  C_24
REMARK                            x       y       z     vdW  Elec       q    Type
REMARK                         _______ _______ _______ _____ _____    ______ ____
ROOT
ATOM      1  C   UNL     1      38.531   2.488  14.296  0.00  0.00    +0.000 C 
ATOM      2  C   UNL     1      37.458   2.109  14.998  0.00  0.00    +0.000 C 
ATOM      3  C   UNL     1      37.233   3.022  16.114  0.00  0.00    +0.000 C 
ATOM      4  O   UNL     1      36.310   2.961  16.977  0.00  0.00    +0.000 OA
ATOM      5  N   UNL     1      38.258   3.999  16.047  0.00  0.00    +0.000 N 
ATOM      6  C   UNL     1      39.070   3.682  14.926  0.00  0.00    +0.000 C 
ATOM      7  O   UNL     1      40.091   4.277  14.488  0.00  0.00    +0.000 OA
ENDROOT
BRANCH   5   8
ATOM      8  C   UNL     1      38.447   5.109  16.934  0.00  0.00    +0.000 A 
ATOM      9  C   UNL     1      38.976   4.967  18.197  0.00  0.00    +0.000 A 
ATOM     10  C   UNL     1      39.169   6.024  19.064  0.00  0.00    +0.000 A 
ATOM     11  C   UNL     1      38.817   7.278  18.647  0.00  0.00    +0.000 A 
ATOM     12  C   UNL     1      38.286   7.467  17.396  0.00  0.00    +0.000 A 
ATOM     13  C   UNL     1      38.100   6.402  16.542  0.00  0.00    +0.000 A 
BRANCH  11  14
ATOM     14  C   UNL     1      38.984   8.484  19.496  0.00  0.00    +0.000 C 
ATOM     15  C   UNL     1      40.207   8.270  20.378  0.00  0.00    +0.000 C 
ATOM     16  C   UNL     1      37.802   8.717  20.409  0.00  0.00    +0.000 C 
ENDBRANCH  11  14
ENDBRANCH   5   8
BRANCH   1  17
ATOM     17  N   UNL     1      38.980   1.791  13.157  0.00  0.00    +0.000 NA
BRANCH  17  23
ATOM     18  C   UNL     1      40.145  -2.605  11.229  0.00  0.00    +0.000 C 
ATOM     19  C   UNL     1      40.353  -1.560  12.288  0.00  0.00    +0.000 A 
ATOM     20  C   UNL     1      41.278  -1.744  13.294  0.00  0.00    +0.000 A 
ATOM     21  C   UNL     1      41.469  -0.770  14.280  0.00  0.00    +0.000 A 
ATOM     22  C   UNL     1      40.703   0.371  14.206  0.00  0.00    +0.000 A 
ATOM     23  C   UNL     1      39.766   0.604  13.221  0.00  0.00    +0.000 A 
ATOM     24  C   UNL     1      39.621  -0.393  12.275  0.00  0.00    +0.000 A 
ATOM     25  C   UNL     1      38.618  -0.169  11.203  0.00  0.00    +0.000 C 
ENDBRANCH  17  23
ENDBRANCH   1  17
BRANCH   2  26
ATOM     26  S   UNL     1      36.409   0.695  14.652  0.00  0.00    +0.000 S 
BRANCH  26  27
ATOM     27  C   UNL     1      37.227  -0.825  15.023  0.00  0.00    +0.000 A 
ATOM     28  C   UNL     1      37.058  -1.912  14.161  0.00  0.00    +0.000 A 
ATOM     29  C   UNL     1      37.683  -3.118  14.416  0.00  0.00    +0.000 A 
ATOM     30  C   UNL     1      38.474  -3.220  15.537  0.00  0.00    +0.000 A 
ATOM     31  C   UNL     1      38.648  -2.138  16.403  0.00  0.00    +0.000 A 
ATOM     32  C   UNL     1      38.011  -0.936  16.130  0.00  0.00    +0.000 A 
ENDBRANCH  26  27
ENDBRANCH   2  26
TORSDOF 6
ENDMDL
MODEL 2
REMARK VINA RESULT:      -7.6      3.445      8.294
REMARK  Name = 
REMARK  6 active torsions:
REMARK  status: ('A' for Active; 'I' for Inactive)
REMARK    1  A    between atoms: C_6  and  N_7
REMARK    2  A    between atoms: N_7  and  C_8
REMARK    3  A    between atoms: C_9  and  S_10
REMARK    4  A    between atoms: S_10  and  C_11
REMARK    5  A    between atoms: N_19  and  C_20
REMARK    6  A    between atoms: C_23  and  C_24
REMARK                            x       y       z     vdW  Elec       q    Type
REMARK                         _______ _______ _______ _____ _____    ______ ____
ROOT
ATOM      1  C   UNL     1      37.967   5.323  16.274  0.00  0.00    +0.000 C 
ATOM      2  C   UNL     1      37.478   5.306  15.030  0.00  0.00    +0.000 C 
ATOM      3  C   UNL     1      36.848   4.020  14.750  0.00  0.00    +0.000 C 
ATOM      4  O   UNL     1      36.287   3.662  13.675  0.00  0.00    +0.000 OA
ATOM      5  N   UNL     1      36.988   3.239  15.925  0.00  0.00    +0.000 N 
ATOM      6  C   UNL     1      37.679   4.033  16.879  0.00  0.00    +0.000 C 
ATOM      7  O   UNL     1      38.020   3.746  18.058  0.00  0.00    +0.000 OA
ENDROOT
BRANCH   5   8
ATOM      8  C   UNL     1      36.519   1.901  16.129  0.00  0.00    +0.000 A 
ATOM      9  C   UNL     1      37.159   0.802  15.602  0.00  0.00    +0.000 A 
ATOM     10  C   UNL     1      36.723  -0.495  15.790  0.00  0.00    +0.000 A 
ATOM     11  C   UNL     1      35.599  -0.700  16.540  0.00  0.00    +0.000 A 
ATOM     12  C   UNL     1      34.927   0.366  17.086  0.00  0.00    +0.000 A 
ATOM     13  C   UNL     1      35.375   1.654  16.889  0.00  0.00    +0.000 A 
BRANCH  11  14
ATOM     14  C   UNL     1      35.045  -2.051  16.808  0.00  0.00    +0.000 C 
ATOM     15  C   UNL     1      35.142  -2.860  15.521  0.00  0.00    +0.000 C 
ATOM     16  C   UNL     1      33.589  -2.010  17.210  0.00  0.00    +0.000 C 
ENDBRANCH  11  14
ENDBRANCH   5   8
BRANCH   1  17
ATOM     17  N   UNL     1      38.626   6.444  16.818  0.00  0.00    +0.000 NA
BRANCH  17  23
ATOM     18  C   UNL     1      42.230   6.516  20.194  0.00  0.00    +0.000 C 
ATOM     19  C   UNL     1      41.807   6.506  18.753  0.00  0.00    +0.000 A 
ATOM     20  C   UNL     1      42.742   6.522  17.739  0.00  0.00    +0.000 A 
ATOM     21  C   UNL     1      42.346   6.513  16.398  0.00  0.00    +0.000 A 
ATOM     22  C   UNL     1      40.996   6.488  16.131  0.00  0.00    +0.000 A 
ATOM     23  C   UNL     1      40.021   6.471  17.108  0.00  0.00    +0.000 A 
ATOM     24  C   UNL     1      40.472   6.480  18.414  0.00  0.00    +0.000 A 
ATOM     25  C   UNL     1      39.444   6.463  19.486  0.00  0.00    +0.000 C 
ENDBRANCH  17  23
ENDBRANCH   1  17
BRANCH   2  26
ATOM     26  S   UNL     1      37.555   6.648  13.841  0.00  0.00    +0.000 S 
BRANCH  26  27
ATOM     27  C   UNL     1      36.030   6.833  12.972  0.00  0.00    +0.000 A 
ATOM     28  C   UNL     1      34.850   6.998  13.704  0.00  0.00    +0.000 A 
ATOM     29  C   UNL     1      33.636   7.146  13.060  0.00  0.00    +0.000 A 
ATOM     30  C   UNL     1      33.619   7.129  11.685  0.00  0.00    +0.000 A 
ATOM     31  C   UNL     1      34.793   6.965  10.947  0.00  0.00    +0.000 A 
ATOM     32  C   UNL     1      36.002   6.816  11.612  0.00  0.00    +0.000 A 
ENDBRANCH  26  27
ENDBRANCH   2  26
TORSDOF 6
ENDMDL
MODEL 3
REMARK VINA RESULT:      -7.5      3.156      5.725
REMARK  Name = 
REMARK  6 active torsions:
REMARK  status: ('A' for Active; 'I' for Inactive)
REMARK    1  A    between atoms: C_6  and  N_7
REMARK    2  A    between atoms: N_7  and  C_8
REMARK    3  A    between atoms: C_9  and  S_10
REMARK    4  A    between atoms: S_10  and  C_11
REMARK    5  A    between atoms: N_19  and  C_20
REMARK    6  A    between atoms: C_23  and  C_24
REMARK                            x       y       z     vdW  Elec       q    Type
REMARK                         _______ _______ _______ _____ _____    ______ ____
ROOT
ATOM      1  C   UNL     1      36.934   3.644  15.371  0.00  0.00    +0.000 C 
ATOM      2  C   UNL     1      37.401   4.474  14.433  0.00  0.00    +0.000 C 
ATOM      3  C   UNL     1      38.460   5.315  14.981  0.00  0.00    +0.000 C 
ATOM      4  O   UNL     1      39.118   6.208  14.373  0.00  0.00    +0.000 OA
ATOM      5  N   UNL     1      38.612   4.939  16.339  0.00  0.00    +0.000 N 
ATOM      6  C   UNL     1      37.673   3.904  16.596  0.00  0.00    +0.000 C 
ATOM      7  O   UNL     1      37.456   3.272  17.665  0.00  0.00    +0.000 OA
ENDROOT
BRANCH   5   8
ATOM      8  C   UNL     1      39.538   5.485  17.285  0.00  0.00    +0.000 A 
ATOM      9  C   UNL     1      40.786   5.939  16.924  0.00  0.00    +0.000 A 
ATOM     10  C   UNL     1      41.691   6.471  17.820  0.00  0.00    +0.000 A 
ATOM     11  C   UNL     1      41.329   6.554  19.136  0.00  0.00    +0.000 A 
ATOM     12  C   UNL     1      40.094   6.114  19.543  0.00  0.00    +0.000 A 
ATOM     13  C   UNL     1      39.202   5.585  18.636  0.00  0.00    +0.000 A 
BRANCH  11  14
ATOM     14  C   UNL     1      42.222   7.111  20.183  0.00  0.00    +0.000 C 
ATOM     15  C   UNL     1      43.422   7.742  19.488  0.00  0.00    +0.000 C 
ATOM     16  C   UNL     1      42.748   6.049  21.120  0.00  0.00    +0.000 C 
ENDBRANCH  11  14
ENDBRANCH   5   8
BRANCH   1  17
ATOM     17  N   UNL     1      35.908   2.712  15.120  0.00  0.00    +0.000 NA
BRANCH  17  23
ATOM     18  C   UNL     1      35.201  -1.851  16.874  0.00  0.00    +0.000 C 
ATOM     19  C   UNL     1      35.797  -0.940  15.839  0.00  0.00    +0.000 A 
ATOM     20  C   UNL     1      36.542  -1.446  14.794  0.00  0.00    +0.000 A 
ATOM     21  C   UNL     1      37.097  -0.596  13.831  0.00  0.00    +0.000 A 
ATOM     22  C   UNL     1      36.872   0.755  13.967  0.00  0.00    +0.000 A 
ATOM     23  C   UNL     1      36.134   1.310  14.992  0.00  0.00    +0.000 A 
ATOM     24  C   UNL     1      35.611   0.423  15.912  0.00  0.00    +0.000 A 
ATOM     25  C   UNL     1      34.813   0.994  17.028  0.00  0.00    +0.000 C 
ENDBRANCH  17  23
ENDBRANCH   1  17
BRANCH   2  26
ATOM     26  S   UNL     1      36.843   4.573  12.730  0.00  0.00    +0.000 S 
BRANCH  26  27
ATOM     27  C   UNL     1      35.527   5.734  12.545  0.00  0.00    +0.000 A 
ATOM     28  C   UNL     1      34.713   6.014  13.646  0.00  0.00    +0.000 A 
ATOM     29  C   UNL     1      33.672   6.918  13.542  0.00  0.00    +0.000 A 
ATOM     30  C   UNL     1      33.460   7.534  12.330  0.00  0.00    +0.000 A 
ATOM     31  C   UNL     1      34.269   7.259  11.226  0.00  0.00    +0.000 A 
ATOM     32  C   UNL     1      35.308   6.347  11.351  0.00  0.00    +0.000 A 
ENDBRANCH  26  27
ENDBRANCH   2  26
TORSDOF 6
ENDMDL
MODEL 4
REMARK VINA RESULT:      -7.5      3.243      8.663
REMARK  Name = 
REMARK  6 active torsions:
REMARK  status: ('A' for Active; 'I' for Inactive)
REMARK    1  A    between atoms: C_6  and  N_7
REMARK    2  A    between atoms: N_7  and  C_8
REMARK    3  A    between atoms: C_9  and  S_10
REMARK    4  A    between atoms: S_10  and  C_11
REMARK    5  A    between atoms: N_19  and  C_20
REMARK    6  A    between atoms: C_23  and  C_24
REMARK                            x       y       z     vdW  Elec       q    Type
REMARK                         _______ _______ _______ _____ _____    ______ ____
ROOT
ATOM      1  C   UNL     1      37.982   5.585  16.387  0.00  0.00    +0.000 C 
ATOM      2  C   UNL     1      37.373   5.679  15.200  0.00  0.00    +0.000 C 
ATOM      3  C   UNL     1      36.722   4.418  14.863  0.00  0.00    +0.000 C 
ATOM      4  O   UNL     1      36.059   4.156  13.818  0.00  0.00    +0.000 OA
ATOM      5  N   UNL     1      36.977   3.532  15.940  0.00  0.00    +0.000 N 
ATOM      6  C   UNL     1      37.757   4.241  16.893  0.00  0.00    +0.000 C 
ATOM      7  O   UNL     1      38.212   3.848  18.000  0.00  0.00    +0.000 OA
ENDROOT
BRANCH   5   8
ATOM      8  C   UNL     1      36.533   2.175  16.061  0.00  0.00    +0.000 A 
ATOM      9  C   UNL     1      37.070   1.149  15.317  0.00  0.00    +0.000 A 
ATOM     10  C   UNL     1      36.658  -0.164  15.422  0.00  0.00    +0.000 A 
ATOM     11  C   UNL     1      35.664  -0.463  16.313  0.00  0.00    +0.000 A 
ATOM     12  C   UNL     1      35.099   0.528  17.077  0.00  0.00    +0.000 A 
ATOM     13  C   UNL     1      35.522   1.834  16.960  0.00  0.00    +0.000 A 
BRANCH  11  14
ATOM     14  C   UNL     1      35.147  -1.841  16.509  0.00  0.00    +0.000 C 
ATOM     15  C   UNL     1      33.849  -1.745  17.300  0.00  0.00    +0.000 C 
ATOM     16  C   UNL     1      36.098  -2.708  17.301  0.00  0.00    +0.000 C 
ENDBRANCH  11  14
ENDBRANCH   5   8
BRANCH   1  17
ATOM     17  N   UNL     1      38.688   6.658  16.967  0.00  0.00    +0.000 NA
BRANCH  17  23
ATOM     18  C   UNL     1      42.245   6.538  20.392  0.00  0.00    +0.000 C 
ATOM     19  C   UNL     1      41.841   6.546  18.945  0.00  0.00    +0.000 A 
ATOM     20  C   UNL     1      42.789   6.506  17.944  0.00  0.00    +0.000 A 
ATOM     21  C   UNL     1      42.411   6.515  16.598  0.00  0.00    +0.000 A 
ATOM     22  C   UNL     1      41.065   6.565  16.313  0.00  0.00    +0.000 A 
ATOM     23  C   UNL     1      40.079   6.607  17.276  0.00  0.00    +0.000 A 
ATOM     24  C   UNL     1      40.511   6.595  18.588  0.00  0.00    +0.000 A 
ATOM     25  C   UNL     1      39.470   6.640  19.646  0.00  0.00    +0.000 C 
ENDBRANCH  17  23
ENDBRANCH   1  17
BRANCH   2  26
ATOM     26  S   UNL     1      37.330   7.127  14.141  0.00  0.00    +0.000 S 
BRANCH  26  27
ATOM     27  C   UNL     1      36.025   8.224  14.596  0.00  0.00    +0.000 A 
ATOM     28  C   UNL     1      36.347   9.458  15.168  0.00  0.00    +0.000 A 
ATOM     29  C   UNL     1      35.353  10.345  15.537  0.00  0.00    +0.000 A 
ATOM     30  C   UNL     1      34.043   9.984  15.325  0.00  0.00    +0.000 A 
ATOM     31  C   UNL     1      33.713   8.753  14.753  0.00  0.00    +0.000 A 
ATOM     32  C   UNL     1      34.726   7.875  14.392  0.00  0.00    +0.000 A 
ENDBRANCH  26  27
ENDBRANCH   2  26
TORSDOF 6
ENDMDL
MODEL 5
REMARK VINA RESULT:      -7.4      3.217      8.987
REMARK  Name = 
REMARK  6 active torsions:
REMARK  status: ('A' for Active; 'I' for Inactive)
REMARK    1  A    between atoms: C_6  and  N_7
REMARK    2  A    between atoms: N_7  and  C_8
REMARK    3  A    between atoms: C_9  and  S_10
REMARK    4  A    between atoms: S_10  and  C_11
REMARK    5  A    between atoms: N_19  and  C_20
REMARK    6  A    between atoms: C_23  and  C_24
REMARK                            x       y       z     vdW  Elec       q    Type
REMARK                         _______ _______ _______ _____ _____    ______ ____
ROOT
ATOM      1  C   UNL     1      37.960   5.394  15.975  0.00  0.00    +0.000 C 
ATOM      2  C   UNL     1      37.243   5.419  14.847  0.00  0.00    +0.000 C 
ATOM      3  C   UNL     1      36.519   4.163  14.679  0.00  0.00    +0.000 C 
ATOM      4  O   UNL     1      35.749   3.847  13.726  0.00  0.00    +0.000 OA
ATOM      5  N   UNL     1      36.848   3.356  15.797  0.00  0.00    +0.000 N 
ATOM      6  C   UNL     1      37.740   4.105  16.610  0.00  0.00    +0.000 C 
ATOM      7  O   UNL     1      38.287   3.784  17.699  0.00  0.00    +0.000 OA
ENDROOT
BRANCH   5   8
ATOM      8  C   UNL     1      36.372   2.033  16.072  0.00  0.00    +0.000 A 
ATOM      9  C   UNL     1      36.927   0.911  15.500  0.00  0.00    +0.000 A 
ATOM     10  C   UNL     1      36.484  -0.372  15.756  0.00  0.00    +0.000 A 
ATOM     11  C   UNL     1      35.440  -0.538  16.623  0.00  0.00    +0.000 A 
ATOM     12  C   UNL     1      34.855   0.553  17.217  0.00  0.00    +0.000 A 
ATOM     13  C   UNL     1      35.309   1.826  16.952  0.00  0.00    +0.000 A 
BRANCH  11  14
ATOM     14  C   UNL     1      34.887  -1.870  16.971  0.00  0.00    +0.000 C 
ATOM     15  C   UNL     1      35.048  -2.776  15.757  0.00  0.00    +0.000 C 
ATOM     16  C   UNL     1      33.414  -1.816  17.303  0.00  0.00    +0.000 C 
ENDBRANCH  11  14
ENDBRANCH   5   8
BRANCH   1  17
ATOM     17  N   UNL     1      38.756   6.479  16.395  0.00  0.00    +0.000 NA
BRANCH  17  23
ATOM     18  C   UNL     1      37.689   9.151  20.410  0.00  0.00    +0.000 C 
ATOM     19  C   UNL     1      38.508   8.079  19.748  0.00  0.00    +0.000 A 
ATOM     20  C   UNL     1      39.487   7.403  20.445  0.00  0.00    +0.000 A 
ATOM     21  C   UNL     1      40.249   6.406  19.827  0.00  0.00    +0.000 A 
ATOM     22  C   UNL     1      39.986   6.129  18.505  0.00  0.00    +0.000 A 
ATOM     23  C   UNL     1      39.019   6.777  17.764  0.00  0.00    +0.000 A 
ATOM     24  C   UNL     1      38.298   7.751  18.427  0.00  0.00    +0.000 A 
ATOM     25  C   UNL     1      37.250   8.464  17.653  0.00  0.00    +0.000 C 
ENDBRANCH  17  23
ENDBRANCH   1  17
BRANCH   2  26
ATOM     26  S   UNL     1      37.147   6.778  13.680  0.00  0.00    +0.000 S 
BRANCH  26  27
ATOM     27  C   UNL     1      35.946   7.973  14.174  0.00  0.00    +0.000 A 
ATOM     28  C   UNL     1      36.330   9.313  14.283  0.00  0.00    +0.000 A 
ATOM     29  C   UNL     1      35.418  10.278  14.666  0.00  0.00    +0.000 A 
ATOM     30  C   UNL     1      34.126   9.888  14.935  0.00  0.00    +0.000 A 
ATOM     31  C   UNL     1      33.735   8.552  14.827  0.00  0.00    +0.000 A 
ATOM     32  C   UNL     1      34.666   7.597  14.443  0.00  0.00    +0.000 A 
ENDBRANCH  26  27
ENDBRANCH   2  26
TORSDOF 6
ENDMDL
MODEL 6
REMARK VINA RESULT:      -7.3      3.168      6.298
REMARK  Name = 
REMARK  6 active torsions:
REMARK  status: ('A' for Active; 'I' for Inactive)
REMARK    1  A    between atoms: C_6  and  N_7
REMARK    2  A    between atoms: N_7  and  C_8
REMARK    3  A    between atoms: C_9  and  S_10
REMARK    4  A    between atoms: S_10  and  C_11
REMARK    5  A    between atoms: N_19  and  C_20
REMARK    6  A    between atoms: C_23  and  C_24
REMARK                            x       y       z     vdW  Elec       q    Type
REMARK                         _______ _______ _______ _____ _____    ______ ____
ROOT
ATOM      1  C   UNL     1      36.662   4.228  15.428  0.00  0.00    +0.000 C 
ATOM      2  C   UNL     1      36.822   5.372  14.756  0.00  0.00    +0.000 C 
ATOM      3  C   UNL     1      37.881   6.173  15.361  0.00  0.00    +0.000 C 
ATOM      4  O   UNL     1      38.292   7.308  14.983  0.00  0.00    +0.000 OA
ATOM      5  N   UNL     1      38.364   5.430  16.468  0.00  0.00    +0.000 N 
ATOM      6  C   UNL     1      37.619   4.222  16.523  0.00  0.00    +0.000 C 
ATOM      7  O   UNL     1      37.708   3.266  17.339  0.00  0.00    +0.000 OA
ENDROOT
BRANCH   5   8
ATOM      8  C   UNL     1      39.412   5.811  17.368  0.00  0.00    +0.000 A 
ATOM      9  C   UNL     1      39.218   5.927  18.726  0.00  0.00    +0.000 A 
ATOM     10  C   UNL     1      40.217   6.289  19.608  0.00  0.00    +0.000 A 
ATOM     11  C   UNL     1      41.463   6.546  19.109  0.00  0.00    +0.000 A 
ATOM     12  C   UNL     1      41.703   6.444  17.761  0.00  0.00    +0.000 A 
ATOM     13  C   UNL     1      40.696   6.081  16.893  0.00  0.00    +0.000 A 
BRANCH  11  14
ATOM     14  C   UNL     1      42.608   6.940  19.967  0.00  0.00    +0.000 C 
ATOM     15  C   UNL     1      43.873   6.874  19.120  0.00  0.00    +0.000 C 
ATOM     16  C   UNL     1      42.799   6.007  21.141  0.00  0.00    +0.000 C 
ENDBRANCH  11  14
ENDBRANCH   5   8
BRANCH   1  17
ATOM     17  N   UNL     1      35.709   3.257  15.061  0.00  0.00    +0.000 NA
BRANCH  17  23
ATOM     18  C   UNL     1      35.409  -1.451  16.525  0.00  0.00    +0.000 C 
ATOM     19  C   UNL     1      35.896  -0.433  15.534  0.00  0.00    +0.000 A 
ATOM     20  C   UNL     1      36.635  -0.811  14.433  0.00  0.00    +0.000 A 
ATOM     21  C   UNL     1      37.087   0.139  13.512  0.00  0.00    +0.000 A 
ATOM     22  C   UNL     1      36.769   1.457  13.746  0.00  0.00    +0.000 A 
ATOM     23  C   UNL     1      36.033   1.887  14.831  0.00  0.00    +0.000 A 
ATOM     24  C   UNL     1      35.613   0.905  15.706  0.00  0.00    +0.000 A 
ATOM     25  C   UNL     1      34.819   1.340  16.884  0.00  0.00    +0.000 C 
ENDBRANCH  17  23
ENDBRANCH   1  17
BRANCH   2  26
ATOM     26  S   UNL     1      35.898   5.890  13.307  0.00  0.00    +0.000 S 
BRANCH  26  27
ATOM     27  C   UNL     1      35.229   7.511  13.510  0.00  0.00    +0.000 A 
ATOM     28  C   UNL     1      35.617   8.519  12.623  0.00  0.00    +0.000 A 
ATOM     29  C   UNL     1      35.115   9.800  12.749  0.00  0.00    +0.000 A 
ATOM     30  C   UNL     1      34.225  10.057  13.765  0.00  0.00    +0.000 A 
ATOM     31  C   UNL     1      33.832   9.055  14.655  0.00  0.00    +0.000 A 
ATOM     32  C   UNL     1      34.349   7.775  14.514  0.00  0.00    +0.000 A 
ENDBRANCH  26  27
ENDBRANCH   2  26
TORSDOF 6
ENDMDL
MODEL 7
REMARK VINA RESULT:      -7.2      3.460      5.365
REMARK  Name = 
REMARK  6 active torsions:
REMARK  status: ('A' for Active; 'I' for Inactive)
REMARK    1  A    between atoms: C_6  and  N_7
REMARK    2  A    between atoms: N_7  and  C_8
REMARK    3  A    between atoms: C_9  and  S_10
REMARK    4  A    between atoms: S_10  and  C_11
REMARK    5  A    between atoms: N_19  and  C_20
REMARK    6  A    between atoms: C_23  and  C_24
REMARK                            x       y       z     vdW  Elec       q    Type
REMARK                         _______ _______ _______ _____ _____    ______ ____
ROOT
ATOM      1  C   UNL     1      37.073   4.592  14.553  0.00  0.00    +0.000 C 
ATOM      2  C   UNL     1      36.703   3.713  15.490  0.00  0.00    +0.000 C 
ATOM      3  C   UNL     1      37.507   3.886  16.695  0.00  0.00    +0.000 C 
ATOM      4  O   UNL     1      37.425   3.224  17.769  0.00  0.00    +0.000 OA
ATOM      5  N   UNL     1      38.409   4.947  16.428  0.00  0.00    +0.000 N 
ATOM      6  C   UNL     1      38.152   5.396  15.105  0.00  0.00    +0.000 C 
ATOM      7  O   UNL     1      38.712   6.317  14.453  0.00  0.00    +0.000 OA
ENDROOT
BRANCH   5   8
ATOM      8  C   UNL     1      39.395   5.482  17.319  0.00  0.00    +0.000 A 
ATOM      9  C   UNL     1      40.645   5.871  16.894  0.00  0.00    +0.000 A 
ATOM     10  C   UNL     1      41.607   6.392  17.736  0.00  0.00    +0.000 A 
ATOM     11  C   UNL     1      41.304   6.529  19.062  0.00  0.00    +0.000 A 
ATOM     12  C   UNL     1      40.069   6.154  19.532  0.00  0.00    +0.000 A 
ATOM     13  C   UNL     1      39.120   5.636  18.678  0.00  0.00    +0.000 A 
BRANCH  11  14
ATOM     14  C   UNL     1      42.261   7.079  20.054  0.00  0.00    +0.000 C 
ATOM     15  C   UNL     1      43.475   7.598  19.295  0.00  0.00    +0.000 C 
ATOM     16  C   UNL     1      42.749   6.033  21.029  0.00  0.00    +0.000 C 
ENDBRANCH  11  14
ENDBRANCH   5   8
BRANCH   1  17
ATOM     17  N   UNL     1      36.460   4.657  13.286  0.00  0.00    +0.000 NA
BRANCH  17  23
ATOM     18  C   UNL     1      34.342   7.499   9.846  0.00  0.00    +0.000 C 
ATOM     19  C   UNL     1      34.406   7.018  11.267  0.00  0.00    +0.000 A 
ATOM     20  C   UNL     1      33.522   7.489  12.216  0.00  0.00    +0.000 A 
ATOM     21  C   UNL     1      33.584   7.040  13.540  0.00  0.00    +0.000 A 
ATOM     22  C   UNL     1      34.554   6.117  13.856  0.00  0.00    +0.000 A 
ATOM     23  C   UNL     1      35.461   5.614  12.945  0.00  0.00    +0.000 A 
ATOM     24  C   UNL     1      35.351   6.094  11.654  0.00  0.00    +0.000 A 
ATOM     25  C   UNL     1      36.315   5.570  10.652  0.00  0.00    +0.000 C 
ENDBRANCH  17  23
ENDBRANCH   1  17
BRANCH   2  26
ATOM     26  S   UNL     1      35.406   2.481  15.336  0.00  0.00    +0.000 S 
BRANCH  26  27
ATOM     27  C   UNL     1      35.899   0.932  16.021  0.00  0.00    +0.000 A 
ATOM     28  C   UNL     1      37.062   0.321  15.544  0.00  0.00    +0.000 A 
ATOM     29  C   UNL     1      37.482  -0.893  16.056  0.00  0.00    +0.000 A 
ATOM     30  C   UNL     1      36.728  -1.481  17.046  0.00  0.00    +0.000 A 
ATOM     31  C   UNL     1      35.566  -0.877  17.527  0.00  0.00    +0.000 A 
ATOM     32  C   UNL     1      35.160   0.341  16.999  0.00  0.00    +0.000 A 
ENDBRANCH  26  27
ENDBRANCH   2  26
TORSDOF 6
ENDMDL
MODEL 8
REMARK VINA RESULT:      -7.1      3.679      8.244
REMARK  Name = 
REMARK  6 active torsions:
REMARK  status: ('A' for Active; 'I' for Inactive)
REMARK    1  A    between atoms: C_6  and  N_7
REMARK    2  A    between atoms: N_7  and  C_8
REMARK    3  A    between atoms: C_9  and  S_10
REMARK    4  A    between atoms: S_10  and  C_11
REMARK    5  A    between atoms: N_19  and  C_20
REMARK    6  A    between atoms: C_23  and  C_24
REMARK                            x       y       z     vdW  Elec       q    Type
REMARK                         _______ _______ _______ _____ _____    ______ ____
ROOT
ATOM      1  C   UNL     1      38.668  -2.262  15.008  0.00  0.00    +0.000 C 
ATOM      2  C   UNL     1      38.585  -1.239  14.152  0.00  0.00    +0.000 C 
ATOM      3  C   UNL     1      39.908  -0.894  13.643  0.00  0.00    +0.000 C 
ATOM      4  O   UNL     1      40.194   0.021  12.819  0.00  0.00    +0.000 OA
ATOM      5  N   UNL     1      40.821  -1.789  14.255  0.00  0.00    +0.000 N 
ATOM      6  C   UNL     1      40.068  -2.644  15.104  0.00  0.00    +0.000 C 
ATOM      7  O   UNL     1      40.465  -3.587  15.841  0.00  0.00    +0.000 OA
ENDROOT
BRANCH   5   8
ATOM      8  C   UNL     1      42.239  -1.839  14.058  0.00  0.00    +0.000 A 
ATOM      9  C   UNL     1      43.108  -0.991  14.707  0.00  0.00    +0.000 A 
ATOM     10  C   UNL     1      44.477  -1.027  14.533  0.00  0.00    +0.000 A 
ATOM     11  C   UNL     1      44.999  -1.952  13.672  0.00  0.00    +0.000 A 
ATOM     12  C   UNL     1      44.171  -2.818  13.003  0.00  0.00    +0.000 A 
ATOM     13  C   UNL     1      42.806  -2.770  13.188  0.00  0.00    +0.000 A 
BRANCH  11  14
ATOM     14  C   UNL     1      46.455  -2.079  13.413  0.00  0.00    +0.000 C 
ATOM     15  C   UNL     1      46.685  -1.873  11.921  0.00  0.00    +0.000 C 
ATOM     16  C   UNL     1      46.989  -3.447  13.770  0.00  0.00    +0.000 C 
ENDBRANCH  11  14
ENDBRANCH   5   8
BRANCH   1  17
ATOM     17  N   UNL     1      37.541  -2.811  15.652  0.00  0.00    +0.000 NA
BRANCH  17  23
ATOM     18  C   UNL     1      33.101  -1.743  17.533  0.00  0.00    +0.000 C 
ATOM     19  C   UNL     1      34.592  -1.567  17.556  0.00  0.00    +0.000 A 
ATOM     20  C   UNL     1      35.195  -0.745  18.485  0.00  0.00    +0.000 A 
ATOM     21  C   UNL     1      36.585  -0.583  18.505  0.00  0.00    +0.000 A 
ATOM     22  C   UNL     1      37.321  -1.270  17.567  0.00  0.00    +0.000 A 
ATOM     23  C   UNL     1      36.766  -2.104  16.617  0.00  0.00    +0.000 A 
ATOM     24  C   UNL     1      35.390  -2.226  16.647  0.00  0.00    +0.000 A 
ATOM     25  C   UNL     1      34.767  -3.117  15.635  0.00  0.00    +0.000 C 
ENDBRANCH  17  23
ENDBRANCH   1  17
BRANCH   2  26
ATOM     26  S   UNL     1      37.085  -0.384  13.664  0.00  0.00    +0.000 S 
BRANCH  26  27
ATOM     27  C   UNL     1      36.752   0.994  14.715  0.00  0.00    +0.000 A 
ATOM     28  C   UNL     1      35.475   1.131  15.266  0.00  0.00    +0.000 A 
ATOM     29  C   UNL     1      35.176   2.196  16.096  0.00  0.00    +0.000 A 
ATOM     30  C   UNL     1      36.165   3.113  16.365  0.00  0.00    +0.000 A 
ATOM     31  C   UNL     1      37.443   2.983  15.818  0.00  0.00    +0.000 A 
ATOM     32  C   UNL     1      37.723   1.907  14.987  0.00  0.00    +0.000 A 
ENDBRANCH  26  27
ENDBRANCH   2  26
TORSDOF 6
ENDMDL
MODEL 9
REMARK VINA RESULT:      -7.0      3.226      9.212
REMARK  Name = 
REMARK  6 active torsions:
REMARK  status: ('A' for Active; 'I' for Inactive)
REMARK    1  A    between atoms: C_6  and  N_7
REMARK    2  A    between atoms: N_7  and  C_8
REMARK    3  A    between atoms: C_9  and  S_10
REMARK    4  A    between atoms: S_10  and  C_11
REMARK    5  A    between atoms: N_19  and  C_20
REMARK    6  A    between atoms: C_23  and  C_24
REMARK                            x       y       z     vdW  Elec       q    Type
REMARK                         _______ _______ _______ _____ _____    ______ ____
ROOT
ATOM      1  C   UNL     1      37.079   5.865  14.879  0.00  0.00    +0.000 C 
ATOM      2  C   UNL     1      37.940   5.727  15.892  0.00  0.00    +0.000 C 
ATOM      3  C   UNL     1      37.829   4.393  16.474  0.00  0.00    +0.000 C 
ATOM      4  O   UNL     1      38.491   3.926  17.445  0.00  0.00    +0.000 OA
ATOM      5  N   UNL     1      36.827   3.714  15.737  0.00  0.00    +0.000 N 
ATOM      6  C   UNL     1      36.352   4.613  14.744  0.00  0.00    +0.000 C 
ATOM      7  O   UNL     1      35.464   4.436  13.867  0.00  0.00    +0.000 OA
ENDROOT
BRANCH   5   8
ATOM      8  C   UNL     1      36.371   2.371  15.939  0.00  0.00    +0.000 A 
ATOM      9  C   UNL     1      35.248   2.072  16.677  0.00  0.00    +0.000 A 
ATOM     10  C   UNL     1      34.792   0.784  16.880  0.00  0.00    +0.000 A 
ATOM     11  C   UNL     1      35.491  -0.248  16.319  0.00  0.00    +0.000 A 
ATOM     12  C   UNL     1      36.618   0.003  15.575  0.00  0.00    +0.000 A 
ATOM     13  C   UNL     1      37.060   1.293  15.381  0.00  0.00    +0.000 A 
BRANCH  11  14
ATOM     14  C   UNL     1      35.089  -1.669  16.471  0.00  0.00    +0.000 C 
ATOM     15  C   UNL     1      33.877  -1.716  17.392  0.00  0.00    +0.000 C 
ATOM     16  C   UNL     1      36.172  -2.512  17.104  0.00  0.00    +0.000 C 
ENDBRANCH  11  14
ENDBRANCH   5   8
BRANCH   1  17
ATOM     17  N   UNL     1      36.973   7.052  14.127  0.00  0.00    +0.000 NA
BRANCH  17  23
ATOM     18  C   UNL     1      36.120  11.852  14.923  0.00  0.00    +0.000 C 
ATOM     19  C   UNL     1      35.603  10.446  14.819  0.00  0.00    +0.000 A 
ATOM     20  C   UNL     1      34.266  10.166  15.008  0.00  0.00    +0.000 A 
ATOM     21  C   UNL     1      33.786   8.855  14.912  0.00  0.00    +0.000 A 
ATOM     22  C   UNL     1      34.695   7.863  14.624  0.00  0.00    +0.000 A 
ATOM     23  C   UNL     1      36.042   8.090  14.426  0.00  0.00    +0.000 A 
ATOM     24  C   UNL     1      36.457   9.403  14.533  0.00  0.00    +0.000 A 
ATOM     25  C   UNL     1      37.902   9.677  14.325  0.00  0.00    +0.000 C 
ENDBRANCH  17  23
ENDBRANCH   1  17
BRANCH   2  26
ATOM     26  S   UNL     1      39.090   6.971  16.485  0.00  0.00    +0.000 S 
BRANCH  26  27
ATOM     27  C   UNL     1      38.541   7.691  17.999  0.00  0.00    +0.000 A 
ATOM     28  C   UNL     1      39.213   7.372  19.183  0.00  0.00    +0.000 A 
ATOM     29  C   UNL     1      38.814   7.917  20.389  0.00  0.00    +0.000 A 
ATOM     30  C   UNL     1      37.743   8.780  20.394  0.00  0.00    +0.000 A 
ATOM     31  C   UNL     1      37.067   9.104  19.216  0.00  0.00    +0.000 A 
ATOM     32  C   UNL     1      37.482   8.545  18.015  0.00  0.00    +0.000 A 
ENDBRANCH  26  27
ENDBRANCH   2  26
TORSDOF 6
ENDMDL
MODEL 10
REMARK VINA RESULT:      -6.9      1.579      3.961
REMARK  Name = 
REMARK  6 active torsions:
REMARK  status: ('A' for Active; 'I' for Inactive)
REMARK    1  A    between atoms: C_6  and  N_7
REMARK    2  A    between atoms: N_7  and  C_8
REMARK    3  A    between atoms: C_9  and  S_10
REMARK    4  A    between atoms: S_10  and  C_11
REMARK    5  A    between atoms: N_19  and  C_20
REMARK    6  A    between atoms: C_23  and  C_24
REMARK                            x       y       z     vdW  Elec       q    Type
REMARK                         _______ _______ _______ _____ _____    ______ ____
ROOT
ATOM      1  C   UNL     1      37.090   1.797  14.881  0.00  0.00    +0.000 C 
ATOM      2  C   UNL     1      38.272   1.993  14.287  0.00  0.00    +0.000 C 
ATOM      3  C   UNL     1      38.929   3.172  14.841  0.00  0.00    +0.000 C 
ATOM      4  O   UNL     1      40.054   3.645  14.511  0.00  0.00    +0.000 OA
ATOM      5  N   UNL     1      38.055   3.693  15.828  0.00  0.00    +0.000 N 
ATOM      6  C   UNL     1      36.911   2.851  15.865  0.00  0.00    +0.000 C 
ATOM      7  O   UNL     1      35.884   2.934  16.591  0.00  0.00    +0.000 OA
ENDROOT
BRANCH   5   8
ATOM      8  C   UNL     1      38.275   4.847  16.648  0.00  0.00    +0.000 A 
ATOM      9  C   UNL     1      38.049   6.129  16.200  0.00  0.00    +0.000 A 
ATOM     10  C   UNL     1      38.251   7.253  16.976  0.00  0.00    +0.000 A 
ATOM     11  C   UNL     1      38.699   7.085  18.258  0.00  0.00    +0.000 A 
ATOM     12  C   UNL     1      38.938   5.825  18.747  0.00  0.00    +0.000 A 
ATOM     13  C   UNL     1      38.731   4.714  17.960  0.00  0.00    +0.000 A 
BRANCH  11  14
ATOM     14  C   UNL     1      38.948   8.223  19.178  0.00  0.00    +0.000 C 
ATOM     15  C   UNL     1      40.122   9.022  18.629  0.00  0.00    +0.000 C 
ATOM     16  C   UNL     1      39.320   7.769  20.571  0.00  0.00    +0.000 C 
ENDBRANCH  11  14
ENDBRANCH   5   8
BRANCH   1  17
ATOM     17  N   UNL     1      36.239   0.724  14.547  0.00  0.00    +0.000 NA
BRANCH  17  23
ATOM     18  C   UNL     1      36.466  -4.057  15.769  0.00  0.00    +0.000 C 
ATOM     19  C   UNL     1      35.996  -2.663  16.075  0.00  0.00    +0.000 A 
ATOM     20  C   UNL     1      35.252  -2.399  17.206  0.00  0.00    +0.000 A 
ATOM     21  C   UNL     1      34.814  -1.101  17.489  0.00  0.00    +0.000 A 
ATOM     22  C   UNL     1      35.153  -0.105  16.602  0.00  0.00    +0.000 A 
ATOM     23  C   UNL     1      35.895  -0.317  15.458  0.00  0.00    +0.000 A 
ATOM     24  C   UNL     1      36.299  -1.618  15.231  0.00  0.00    +0.000 A 
ATOM     25  C   UNL     1      37.100  -1.876  14.006  0.00  0.00    +0.000 C 
ENDBRANCH  17  23
ENDBRANCH   1  17
BRANCH   2  26
ATOM     26  S   UNL     1      38.992   0.976  12.995  0.00  0.00    +0.000 S 
BRANCH  26  27
ATOM     27  C   UNL     1      40.488   0.210  13.532  0.00  0.00    +0.000 A 
ATOM     28  C   UNL     1      40.423  -1.040  14.154  0.00  0.00    +0.000 A 
ATOM     29  C   UNL     1      41.573  -1.673  14.587  0.00  0.00    +0.000 A 
ATOM     30  C   UNL     1      42.780  -1.043  14.389  0.00  0.00    +0.000 A 
ATOM     31  C   UNL     1      42.853   0.205  13.768  0.00  0.00    +0.000 A 
ATOM     32  C   UNL     1      41.687   0.825  13.341  0.00  0.00    +0.000 A 
ENDBRANCH  26  27
ENDBRANCH   2  26
TORSDOF 6
ENDMDL
