MODEL 1
REMARK VINA RESULT:      -6.4      0.000      0.000
REMARK  Name = 
REMARK  5 active torsions:
REMARK  status: ('A' for Active; 'I' for Inactive)
REMARK    1  A    between atoms: C_2  and  C_3
REMARK    2  A    between atoms: N_7  and  C_8
REMARK    3  A    between atoms: C_8  and  N_10
REMARK    4  A    between atoms: N_10  and  C_11
REMARK    5  A    between atoms: C_11  and  C_12
REMARK                            x       y       z     vdW  Elec       q    Type
REMARK                         _______ _______ _______ _____ _____    ______ ____
ROOT
ATOM      1  C   UNL     1      15.210  11.348  36.471  0.00  0.00    +0.000 C 
ATOM      2  S   UNL     1      14.212  11.492  37.767  0.00  0.00    +0.000 S 
ENDROOT
BRANCH   1   7
ATOM      3  C   UNL     1      18.705  10.998  37.593  0.00  0.00    +0.000 C 
ATOM      4  C   UNL     1      19.084   9.584  36.847  0.00  0.00    +0.000 C 
ATOM      5  C   UNL     1      18.162   9.484  35.663  0.00  0.00    +0.000 C 
ATOM      6  C   UNL     1      17.372  10.776  35.460  0.00  0.00    +0.000 C 
ATOM      7  N   UNL     1      16.529  10.911  36.628  0.00  0.00    +0.000 N 
ATOM      8  C   UNL     1      17.149  10.571  37.894  0.00  0.00    +0.000 C 
BRANCH   3  10
ATOM      9  O   UNL     1      20.253   9.601  38.869  0.00  0.00    +0.000 OA
ATOM     10  C   UNL     1      19.271  10.520  39.051  0.00  0.00    +0.000 C 
ENDBRANCH   3  10
ENDBRANCH   1   7
BRANCH   1  11
ATOM     11  N   UNL     1      14.715  11.673  35.194  0.00  0.00    +0.000 NA
BRANCH  11  12
ATOM     12  C   UNL     1      14.401  13.013  34.758  0.00  0.00    +0.000 C 
BRANCH  12  13
ATOM     13  C   UNL     1      14.433  13.045  33.276  0.00  0.00    +0.000 A 
ATOM     14  C   UNL     1      15.162  12.066  32.627  0.00  0.00    +0.000 A 
ATOM     15  C   UNL     1      15.205  12.079  31.249  0.00  0.00    +0.000 A 
ATOM     16  C   UNL     1      14.546  13.032  30.519  0.00  0.00    +0.000 A 
ATOM     17  C   UNL     1      13.820  14.007  31.173  0.00  0.00    +0.000 A 
ATOM     18  C   UNL     1      13.768  14.008  32.544  0.00  0.00    +0.000 A 
ENDBRANCH  12  13
ENDBRANCH  11  12
ENDBRANCH   1  11
TORSDOF 5
ENDMDL
MODEL 2
REMARK VINA RESULT:      -5.8      3.706      7.397
REMARK  Name = 
REMARK  5 active torsions:
REMARK  status: ('A' for Active; 'I' for Inactive)
REMARK    1  A    between atoms: C_2  and  C_3
REMARK    2  A    between atoms: N_7  and  C_8
REMARK    3  A    between atoms: C_8  and  N_10
REMARK    4  A    between atoms: N_10  and  C_11
REMARK    5  A    between atoms: C_11  and  C_12
REMARK                            x       y       z     vdW  Elec       q    Type
REMARK                         _______ _______ _______ _____ _____    ______ ____
ROOT
ATOM      1  C   UNL     1      18.703  10.136  37.542  0.00  0.00    +0.000 C 
ATOM      2  S   UNL     1      18.205   9.270  38.844  0.00  0.00    +0.000 S 
ENDROOT
BRANCH   1   7
ATOM      3  C   UNL     1      16.862  11.549  34.677  0.00  0.00    +0.000 C 
ATOM      4  C   UNL     1      15.588  12.208  35.477  0.00  0.00    +0.000 C 
ATOM      5  C   UNL     1      16.075  12.480  36.874  0.00  0.00    +0.000 C 
ATOM      6  C   UNL     1      17.581  12.250  36.994  0.00  0.00    +0.000 C 
ATOM      7  N   UNL     1      17.785  10.837  36.754  0.00  0.00    +0.000 N 
ATOM      8  C   UNL     1      16.993  10.261  35.685  0.00  0.00    +0.000 C 
BRANCH   3  10
ATOM      9  O   UNL     1      16.671  10.507  32.474  0.00  0.00    +0.000 OA
ATOM     10  C   UNL     1      15.928  10.778  33.577  0.00  0.00    +0.000 C 
ENDBRANCH   3  10
ENDBRANCH   1   7
BRANCH   1  11
ATOM     11  N   UNL     1      20.075  10.164  37.230  0.00  0.00    +0.000 NA
BRANCH  11  12
ATOM     12  C   UNL     1      21.047  10.996  37.901  0.00  0.00    +0.000 C 
BRANCH  12  13
ATOM     13  C   UNL     1      22.374  10.762  37.282  0.00  0.00    +0.000 A 
ATOM     14  C   UNL     1      23.379  11.671  37.554  0.00  0.00    +0.000 A 
ATOM     15  C   UNL     1      24.620  11.473  36.987  0.00  0.00    +0.000 A 
ATOM     16  C   UNL     1      24.874  10.405  36.170  0.00  0.00    +0.000 A 
ATOM     17  C   UNL     1      23.866   9.501  35.901  0.00  0.00    +0.000 A 
ATOM     18  C   UNL     1      22.625   9.684  36.458  0.00  0.00    +0.000 A 
ENDBRANCH  12  13
ENDBRANCH  11  12
ENDBRANCH   1  11
TORSDOF 5
ENDMDL
MODEL 3
REMARK VINA RESULT:      -5.6      2.832      6.992
REMARK  Name = 
REMARK  5 active torsions:
REMARK  status: ('A' for Active; 'I' for Inactive)
REMARK    1  A    between atoms: C_2  and  C_3
REMARK    2  A    between atoms: N_7  and  C_8
REMARK    3  A    between atoms: C_8  and  N_10
REMARK    4  A    between atoms: N_10  and  C_11
REMARK    5  A    between atoms: C_11  and  C_12
REMARK                            x       y       z     vdW  Elec       q    Type
REMARK                         _______ _______ _______ _____ _____    ______ ____
ROOT
ATOM      1  C   UNL     1      15.304  11.543  35.527  0.00  0.00    +0.000 C 
ATOM      2  S   UNL     1      14.233  12.470  36.356  0.00  0.00    +0.000 S 
ENDROOT
BRANCH   1   7
ATOM      3  C   UNL     1      14.334  11.854  31.983  0.00  0.00    +0.000 C 
ATOM      4  C   UNL     1      15.810  11.674  31.285  0.00  0.00    +0.000 C 
ATOM      5  C   UNL     1      16.634  10.884  32.264  0.00  0.00    +0.000 C 
ATOM      6  C   UNL     1      15.782  10.370  33.424  0.00  0.00    +0.000 C 
ATOM      7  N   UNL     1      15.321  11.547  34.128  0.00  0.00    +0.000 N 
ATOM      8  C   UNL     1      14.908  12.658  33.293  0.00  0.00    +0.000 C 
BRANCH   3  10
ATOM      9  O   UNL     1      13.535  14.164  31.992  0.00  0.00    +0.000 OA
ATOM     10  C   UNL     1      13.963  13.203  31.135  0.00  0.00    +0.000 C 
ENDBRANCH   3  10
ENDBRANCH   1   7
BRANCH   1  11
ATOM     11  N   UNL     1      16.208  10.740  36.246  0.00  0.00    +0.000 NA
BRANCH  11  12
ATOM     12  C   UNL     1      17.484  11.196  36.744  0.00  0.00    +0.000 C 
BRANCH  12  13
ATOM     13  C   UNL     1      17.689  10.633  38.101  0.00  0.00    +0.000 A 
ATOM     14  C   UNL     1      18.962  10.690  38.636  0.00  0.00    +0.000 A 
ATOM     15  C   UNL     1      19.174  10.172  39.896  0.00  0.00    +0.000 A 
ATOM     16  C   UNL     1      18.158   9.608  40.620  0.00  0.00    +0.000 A 
ATOM     17  C   UNL     1      16.888   9.553  40.080  0.00  0.00    +0.000 A 
ATOM     18  C   UNL     1      16.662  10.065  38.828  0.00  0.00    +0.000 A 
ENDBRANCH  12  13
ENDBRANCH  11  12
ENDBRANCH   1  11
TORSDOF 5
ENDMDL
MODEL 4
REMARK VINA RESULT:      -5.5     20.124     21.770
REMARK  Name = 
REMARK  5 active torsions:
REMARK  status: ('A' for Active; 'I' for Inactive)
REMARK    1  A    between atoms: C_2  and  C_3
REMARK    2  A    between atoms: N_7  and  C_8
REMARK    3  A    between atoms: C_8  and  N_10
REMARK    4  A    between atoms: N_10  and  C_11
REMARK    5  A    between atoms: C_11  and  C_12
REMARK                            x       y       z     vdW  Elec       q    Type
REMARK                         _______ _______ _______ _____ _____    ______ ____
ROOT
ATOM      1  C   UNL     1      26.192  25.064  24.364  0.00  0.00    +0.000 C 
ATOM      2  S   UNL     1      25.183  25.772  25.448  0.00  0.00    +0.000 S 
ENDROOT
BRANCH   1   7
ATOM      3  C   UNL     1      28.883  26.293  22.164  0.00  0.00    +0.000 C 
ATOM      4  C   UNL     1      28.110  27.575  21.488  0.00  0.00    +0.000 C 
ATOM      5  C   UNL     1      27.053  27.986  22.475  0.00  0.00    +0.000 C 
ATOM      6  C   UNL     1      27.198  27.229  23.795  0.00  0.00    +0.000 C 
ATOM      7  N   UNL     1      26.952  25.838  23.482  0.00  0.00    +0.000 N 
ATOM      8  C   UNL     1      27.536  25.360  22.244  0.00  0.00    +0.000 C 
BRANCH   3  10
ATOM      9  O   UNL     1      29.674  24.371  20.877  0.00  0.00    +0.000 OA
ATOM     10  C   UNL     1      29.393  25.690  20.731  0.00  0.00    +0.000 C 
ENDBRANCH   3  10
ENDBRANCH   1   7
BRANCH   1  11
ATOM     11  N   UNL     1      26.280  23.660  24.335  0.00  0.00    +0.000 NA
BRANCH  11  12
ATOM     12  C   UNL     1      26.675  22.845  25.460  0.00  0.00    +0.000 C 
BRANCH  12  13
ATOM     13  C   UNL     1      28.155  22.777  25.496  0.00  0.00    +0.000 A 
ATOM     14  C   UNL     1      28.762  22.606  26.726  0.00  0.00    +0.000 A 
ATOM     15  C   UNL     1      30.138  22.541  26.781  0.00  0.00    +0.000 A 
ATOM     16  C   UNL     1      30.907  22.641  25.653  0.00  0.00    +0.000 A 
ATOM     17  C   UNL     1      30.296  22.813  24.428  0.00  0.00    +0.000 A 
ATOM     18  C   UNL     1      28.928  22.879  24.356  0.00  0.00    +0.000 A 
ENDBRANCH  12  13
ENDBRANCH  11  12
ENDBRANCH   1  11
TORSDOF 5
ENDMDL
MODEL 5
REMARK VINA RESULT:      -5.4      2.947      6.886
REMARK  Name = 
REMARK  5 active torsions:
REMARK  status: ('A' for Active; 'I' for Inactive)
REMARK    1  A    between atoms: C_2  and  C_3
REMARK    2  A    between atoms: N_7  and  C_8
REMARK    3  A    between atoms: C_8  and  N_10
REMARK    4  A    between atoms: N_10  and  C_11
REMARK    5  A    between atoms: C_11  and  C_12
REMARK                            x       y       z     vdW  Elec       q    Type
REMARK                         _______ _______ _______ _____ _____    ______ ____
ROOT
ATOM      1  C   UNL     1      17.135  10.155  35.794  0.00  0.00    +0.000 C 
ATOM      2  S   UNL     1      17.899   8.760  35.388  0.00  0.00    +0.000 S 
ENDROOT
BRANCH   1   7
ATOM      3  C   UNL     1      16.177  11.787  32.629  0.00  0.00    +0.000 C 
ATOM      4  C   UNL     1      14.709  12.379  33.068  0.00  0.00    +0.000 C 
ATOM      5  C   UNL     1      14.761  12.541  34.562  0.00  0.00    +0.000 C 
ATOM      6  C   UNL     1      16.171  12.304  35.101  0.00  0.00    +0.000 C 
ATOM      7  N   UNL     1      16.470  10.915  34.826  0.00  0.00    +0.000 N 
ATOM      8  C   UNL     1      16.040  10.424  33.531  0.00  0.00    +0.000 C 
BRANCH   3  10
ATOM      9  O   UNL     1      14.585  10.284  31.543  0.00  0.00    +0.000 OA
ATOM     10  C   UNL     1      15.624  11.105  31.249  0.00  0.00    +0.000 C 
ENDBRANCH   3  10
ENDBRANCH   1   7
BRANCH   1  11
ATOM     11  N   UNL     1      17.159  10.578  37.136  0.00  0.00    +0.000 NA
BRANCH  11  12
ATOM     12  C   UNL     1      18.096  10.098  38.124  0.00  0.00    +0.000 C 
BRANCH  12  13
ATOM     13  C   UNL     1      19.019  11.204  38.474  0.00  0.00    +0.000 A 
ATOM     14  C   UNL     1      18.858  12.409  37.815  0.00  0.00    +0.000 A 
ATOM     15  C   UNL     1      19.707  13.450  38.125  0.00  0.00    +0.000 A 
ATOM     16  C   UNL     1      20.695  13.316  39.063  0.00  0.00    +0.000 A 
ATOM     17  C   UNL     1      20.851  12.110  39.717  0.00  0.00    +0.000 A 
ATOM     18  C   UNL     1      20.015  11.065  39.420  0.00  0.00    +0.000 A 
ENDBRANCH  12  13
ENDBRANCH  11  12
ENDBRANCH   1  11
TORSDOF 5
ENDMDL
MODEL 6
REMARK VINA RESULT:      -5.4     19.090     20.439
REMARK  Name = 
REMARK  5 active torsions:
REMARK  status: ('A' for Active; 'I' for Inactive)
REMARK    1  A    between atoms: C_2  and  C_3
REMARK    2  A    between atoms: N_7  and  C_8
REMARK    3  A    between atoms: C_8  and  N_10
REMARK    4  A    between atoms: N_10  and  C_11
REMARK    5  A    between atoms: C_11  and  C_12
REMARK                            x       y       z     vdW  Elec       q    Type
REMARK                         _______ _______ _______ _____ _____    ______ ____
ROOT
ATOM      1  C   UNL     1      27.689  23.561  27.673  0.00  0.00    +0.000 C 
ATOM      2  S   UNL     1      27.317  24.359  29.059  0.00  0.00    +0.000 S 
ENDROOT
BRANCH   1   7
ATOM      3  C   UNL     1      26.590  23.732  24.158  0.00  0.00    +0.000 C 
ATOM      4  C   UNL     1      26.003  25.266  24.136  0.00  0.00    +0.000 C 
ATOM      5  C   UNL     1      26.730  26.001  25.228  0.00  0.00    +0.000 C 
ATOM      6  C   UNL     1      27.860  25.154  25.813  0.00  0.00    +0.000 C 
ATOM      7  N   UNL     1      27.219  24.016  26.437  0.00  0.00    +0.000 N 
ATOM      8  C   UNL     1      26.114  23.435  25.700  0.00  0.00    +0.000 C 
BRANCH   3  10
ATOM      9  O   UNL     1      25.513  22.825  22.159  0.00  0.00    +0.000 OA
ATOM     10  C   UNL     1      25.256  23.083  23.467  0.00  0.00    +0.000 C 
ENDBRANCH   3  10
ENDBRANCH   1   7
BRANCH   1  11
ATOM     11  N   UNL     1      28.491  22.408  27.748  0.00  0.00    +0.000 NA
BRANCH  11  12
ATOM     12  C   UNL     1      29.904  22.416  28.045  0.00  0.00    +0.000 C 
BRANCH  12  13
ATOM     13  C   UNL     1      30.637  22.858  26.834  0.00  0.00    +0.000 A 
ATOM     14  C   UNL     1      30.278  22.296  25.623  0.00  0.00    +0.000 A 
ATOM     15  C   UNL     1      30.947  22.692  24.485  0.00  0.00    +0.000 A 
ATOM     16  C   UNL     1      31.951  23.623  24.531  0.00  0.00    +0.000 A 
ATOM     17  C   UNL     1      32.306  24.180  25.743  0.00  0.00    +0.000 A 
ATOM     18  C   UNL     1      31.649  23.796  26.884  0.00  0.00    +0.000 A 
ENDBRANCH  12  13
ENDBRANCH  11  12
ENDBRANCH   1  11
TORSDOF 5
ENDMDL
MODEL 7
REMARK VINA RESULT:      -5.4     18.817     19.876
REMARK  Name = 
REMARK  5 active torsions:
REMARK  status: ('A' for Active; 'I' for Inactive)
REMARK    1  A    between atoms: C_2  and  C_3
REMARK    2  A    between atoms: N_7  and  C_8
REMARK    3  A    between atoms: C_8  and  N_10
REMARK    4  A    between atoms: N_10  and  C_11
REMARK    5  A    between atoms: C_11  and  C_12
REMARK                            x       y       z     vdW  Elec       q    Type
REMARK                         _______ _______ _______ _____ _____    ______ ____
ROOT
ATOM      1  C   UNL     1      29.800  22.558  26.893  0.00  0.00    +0.000 C 
ATOM      2  S   UNL     1      30.920  22.575  28.093  0.00  0.00    +0.000 S 
ENDROOT
BRANCH   1   7
ATOM      3  C   UNL     1      26.557  23.185  28.532  0.00  0.00    +0.000 C 
ATOM      4  C   UNL     1      25.814  24.033  27.337  0.00  0.00    +0.000 C 
ATOM      5  C   UNL     1      26.475  23.605  26.057  0.00  0.00    +0.000 C 
ATOM      6  C   UNL     1      27.425  22.429  26.285  0.00  0.00    +0.000 C 
ATOM      7  N   UNL     1      28.476  22.932  27.144  0.00  0.00    +0.000 N 
ATOM      8  C   UNL     1      28.045  23.803  28.220  0.00  0.00    +0.000 C 
BRANCH   3  10
ATOM      9  O   UNL     1      25.935  23.615  30.857  0.00  0.00    +0.000 OA
ATOM     10  C   UNL     1      26.190  24.273  29.698  0.00  0.00    +0.000 C 
ENDBRANCH   3  10
ENDBRANCH   1   7
BRANCH   1  11
ATOM     11  N   UNL     1      30.194  22.161  25.602  0.00  0.00    +0.000 NA
BRANCH  11  12
ATOM     12  C   UNL     1      30.958  22.983  24.694  0.00  0.00    +0.000 C 
BRANCH  12  13
ATOM     13  C   UNL     1      30.014  23.752  23.847  0.00  0.00    +0.000 A 
ATOM     14  C   UNL     1      30.194  25.120  23.762  0.00  0.00    +0.000 A 
ATOM     15  C   UNL     1      29.327  25.854  22.980  0.00  0.00    +0.000 A 
ATOM     16  C   UNL     1      28.301  25.260  22.294  0.00  0.00    +0.000 A 
ATOM     17  C   UNL     1      28.127  23.893  22.384  0.00  0.00    +0.000 A 
ATOM     18  C   UNL     1      28.981  23.150  23.157  0.00  0.00    +0.000 A 
ENDBRANCH  12  13
ENDBRANCH  11  12
ENDBRANCH   1  11
TORSDOF 5
ENDMDL
MODEL 8
REMARK VINA RESULT:      -5.4     18.731     20.173
REMARK  Name = 
REMARK  5 active torsions:
REMARK  status: ('A' for Active; 'I' for Inactive)
REMARK    1  A    between atoms: C_2  and  C_3
REMARK    2  A    between atoms: N_7  and  C_8
REMARK    3  A    between atoms: C_8  and  N_10
REMARK    4  A    between atoms: N_10  and  C_11
REMARK    5  A    between atoms: C_11  and  C_12
REMARK                            x       y       z     vdW  Elec       q    Type
REMARK                         _______ _______ _______ _____ _____    ______ ____
ROOT
ATOM      1  C   UNL     1      25.814  25.421  25.079  0.00  0.00    +0.000 C 
ATOM      2  S   UNL     1      25.366  26.989  24.890  0.00  0.00    +0.000 S 
ENDROOT
BRANCH   1   7
ATOM      3  C   UNL     1      27.789  24.467  22.116  0.00  0.00    +0.000 C 
ATOM      4  C   UNL     1      29.005  23.648  22.858  0.00  0.00    +0.000 C 
ATOM      5  C   UNL     1      28.435  23.156  24.160  0.00  0.00    +0.000 C 
ATOM      6  C   UNL     1      26.929  23.402  24.238  0.00  0.00    +0.000 C 
ATOM      7  N   UNL     1      26.763  24.840  24.233  0.00  0.00    +0.000 N 
ATOM      8  C   UNL     1      27.623  25.568  23.321  0.00  0.00    +0.000 C 
BRANCH   3  10
ATOM      9  O   UNL     1      29.710  24.587  20.609  0.00  0.00    +0.000 OA
ATOM     10  C   UNL     1      28.797  25.388  21.215  0.00  0.00    +0.000 C 
ENDBRANCH   3  10
ENDBRANCH   1   7
BRANCH   1  11
ATOM     11  N   UNL     1      25.226  24.666  26.112  0.00  0.00    +0.000 NA
BRANCH  11  12
ATOM     12  C   UNL     1      24.869  25.197  27.407  0.00  0.00    +0.000 C 
BRANCH  12  13
ATOM     13  C   UNL     1      25.656  24.483  28.441  0.00  0.00    +0.000 A 
ATOM     14  C   UNL     1      26.501  23.472  28.022  0.00  0.00    +0.000 A 
ATOM     15  C   UNL     1      27.241  22.795  28.968  0.00  0.00    +0.000 A 
ATOM     16  C   UNL     1      27.159  23.103  30.299  0.00  0.00    +0.000 A 
ATOM     17  C   UNL     1      26.313  24.114  30.711  0.00  0.00    +0.000 A 
ATOM     18  C   UNL     1      25.570  24.796  29.782  0.00  0.00    +0.000 A 
ENDBRANCH  12  13
ENDBRANCH  11  12
ENDBRANCH   1  11
TORSDOF 5
ENDMDL
MODEL 9
REMARK VINA RESULT:      -5.3     17.964     18.969
REMARK  Name = 
REMARK  5 active torsions:
REMARK  status: ('A' for Active; 'I' for Inactive)
REMARK    1  A    between atoms: C_2  and  C_3
REMARK    2  A    between atoms: N_7  and  C_8
REMARK    3  A    between atoms: C_8  and  N_10
REMARK    4  A    between atoms: N_10  and  C_11
REMARK    5  A    between atoms: C_11  and  C_12
REMARK                            x       y       z     vdW  Elec       q    Type
REMARK                         _______ _______ _______ _____ _____    ______ ____
ROOT
ATOM      1  C   UNL     1      25.656  24.332  26.086  0.00  0.00    +0.000 C 
ATOM      2  S   UNL     1      24.914  25.650  25.448  0.00  0.00    +0.000 S 
ENDROOT
BRANCH   1   7
ATOM      3  C   UNL     1      26.050  23.466  29.648  0.00  0.00    +0.000 C 
ATOM      4  C   UNL     1      27.314  24.446  30.023  0.00  0.00    +0.000 C 
ATOM      5  C   UNL     1      27.261  25.581  29.037  0.00  0.00    +0.000 C 
ATOM      6  C   UNL     1      25.983  25.534  28.201  0.00  0.00    +0.000 C 
ATOM      7  N   UNL     1      26.064  24.316  27.424  0.00  0.00    +0.000 N 
ATOM      8  C   UNL     1      26.576  23.156  28.125  0.00  0.00    +0.000 C 
BRANCH   3  10
ATOM      9  O   UNL     1      25.772  21.417  30.951  0.00  0.00    +0.000 OA
ATOM     10  C   UNL     1      26.730  22.134  30.311  0.00  0.00    +0.000 C 
ENDBRANCH   3  10
ENDBRANCH   1   7
BRANCH   1  11
ATOM     11  N   UNL     1      25.876  23.212  25.263  0.00  0.00    +0.000 NA
BRANCH  11  12
ATOM     12  C   UNL     1      25.756  23.222  23.824  0.00  0.00    +0.000 C 
BRANCH  12  13
ATOM     13  C   UNL     1      27.050  23.657  23.246  0.00  0.00    +0.000 A 
ATOM     14  C   UNL     1      28.208  23.206  23.851  0.00  0.00    +0.000 A 
ATOM     15  C   UNL     1      29.423  23.599  23.331  0.00  0.00    +0.000 A 
ATOM     16  C   UNL     1      29.503  24.420  22.237  0.00  0.00    +0.000 A 
ATOM     17  C   UNL     1      28.343  24.867  21.638  0.00  0.00    +0.000 A 
ATOM     18  C   UNL     1      27.127  24.484  22.144  0.00  0.00    +0.000 A 
ENDBRANCH  12  13
ENDBRANCH  11  12
ENDBRANCH   1  11
TORSDOF 5
ENDMDL
MODEL 10
REMARK VINA RESULT:      -5.2     18.125     19.007
REMARK  Name = 
REMARK  5 active torsions:
REMARK  status: ('A' for Active; 'I' for Inactive)
REMARK    1  A    between atoms: C_2  and  C_3
REMARK    2  A    between atoms: N_7  and  C_8
REMARK    3  A    between atoms: C_8  and  N_10
REMARK    4  A    between atoms: N_10  and  C_11
REMARK    5  A    between atoms: C_11  and  C_12
REMARK                            x       y       z     vdW  Elec       q    Type
REMARK                         _______ _______ _______ _____ _____    ______ ____
ROOT
ATOM      1  C   UNL     1      29.486  24.505  27.474  0.00  0.00    +0.000 C 
ATOM      2  S   UNL     1      30.580  25.585  28.048  0.00  0.00    +0.000 S 
ENDROOT
BRANCH   1   7
ATOM      3  C   UNL     1      26.792  22.630  29.153  0.00  0.00    +0.000 C 
ATOM      4  C   UNL     1      26.116  23.851  30.019  0.00  0.00    +0.000 C 
ATOM      5  C   UNL     1      26.448  25.115  29.275  0.00  0.00    +0.000 C 
ATOM      6  C   UNL     1      27.092  24.814  27.922  0.00  0.00    +0.000 C 
ATOM      7  N   UNL     1      28.353  24.168  28.220  0.00  0.00    +0.000 N 
ATOM      8  C   UNL     1      28.323  23.201  29.300  0.00  0.00    +0.000 C 
BRANCH   3  10
ATOM      9  O   UNL     1      25.647  21.402  30.930  0.00  0.00    +0.000 OA
ATOM     10  C   UNL     1      26.891  21.615  30.433  0.00  0.00    +0.000 C 
ENDBRANCH   3  10
ENDBRANCH   1   7
BRANCH   1  11
ATOM     11  N   UNL     1      29.706  23.920  26.213  0.00  0.00    +0.000 NA
BRANCH  11  12
ATOM     12  C   UNL     1      29.007  22.756  25.721  0.00  0.00    +0.000 C 
BRANCH  12  13
ATOM     13  C   UNL     1      28.276  23.132  24.488  0.00  0.00    +0.000 A 
ATOM     14  C   UNL     1      26.896  23.196  24.552  0.00  0.00    +0.000 A 
ATOM     15  C   UNL     1      26.197  23.544  23.416  0.00  0.00    +0.000 A 
ATOM     16  C   UNL     1      26.835  23.823  22.237  0.00  0.00    +0.000 A 
ATOM     17  C   UNL     1      28.213  23.757  22.179  0.00  0.00    +0.000 A 
ATOM     18  C   UNL     1      28.923  23.413  23.301  0.00  0.00    +0.000 A 
ENDBRANCH  12  13
ENDBRANCH  11  12
ENDBRANCH   1  11
TORSDOF 5
ENDMDL
