MODEL 1
REMARK VINA RESULT:      -8.1      0.000      0.000
REMARK  Name = 
REMARK  8 active torsions:
REMARK  status: ('A' for Active; 'I' for Inactive)
REMARK    1  A    between atoms: C_2  and  C_3
REMARK    2  A    between atoms: C_3  and  C_4
REMARK    3  A    between atoms: C_4  and  O_5
REMARK    4  A    between atoms: O_5  and  C_6
REMARK    5  A    between atoms: C_10  and  C_11
REMARK    6  A    between atoms: C_21  and  O_22
REMARK    7  A    between atoms: O_22  and  C_23
REMARK    8  A    between atoms: C_23  and  C_24
REMARK                            x       y       z     vdW  Elec       q    Type
REMARK                         _______ _______ _______ _____ _____    ______ ____
ROOT
ATOM      1  C   UNL     1      38.310  -1.279  13.381  0.00  0.00    +0.000 C 
ATOM      2  N   UNL     1      39.788  -1.128  12.918  0.00  0.00    +0.000 NA
ATOM      3  C   UNL     1      40.627  -0.635  13.867  0.00  0.00    +0.000 C 
ATOM      4  C   UNL     1      40.447   0.770  14.344  0.00  0.00    +0.000 C 
ATOM      5  C   UNL     1      38.991   1.037  14.256  0.00  0.00    +0.000 A 
ATOM      6  C   UNL     1      38.060   0.201  13.856  0.00  0.00    +0.000 A 
ATOM      7  N   UNL     1      36.849   0.808  13.915  0.00  0.00    +0.000 NA
ATOM      8  C   UNL     1      36.980   2.067  14.362  0.00  0.00    +0.000 A 
ATOM      9  C   UNL     1      36.092   3.077  14.599  0.00  0.00    +0.000 A 
ATOM     10  C   UNL     1      36.523   4.294  15.068  0.00  0.00    +0.000 A 
ATOM     11  C   UNL     1      37.862   4.497  15.301  0.00  0.00    +0.000 A 
ATOM     12  C   UNL     1      38.725   3.457  15.052  0.00  0.00    +0.000 A 
ATOM     13  C   UNL     1      38.328   2.233  14.585  0.00  0.00    +0.000 A 
ENDROOT
BRANCH   1  18
ATOM     14  C   UNL     1      37.691  -2.332  17.029  0.00  0.00    +0.000 A 
ATOM     15  C   UNL     1      38.759  -3.179  17.214  0.00  0.00    +0.000 A 
ATOM     16  C   UNL     1      39.671  -3.431  16.224  0.00  0.00    +0.000 A 
ATOM     17  C   UNL     1      39.526  -2.825  15.002  0.00  0.00    +0.000 A 
ATOM     18  C   UNL     1      38.503  -1.988  14.764  0.00  0.00    +0.000 A 
ATOM     19  C   UNL     1      37.612  -1.752  15.759  0.00  0.00    +0.000 A 
BRANCH  14  20
ATOM     20  O   UNL     1      36.783  -2.088  18.035  0.00  0.00    +0.000 OA
BRANCH  20  21
ATOM     21  C   UNL     1      36.968  -1.171  19.064  0.00  0.00    +0.000 C 
BRANCH  21  22
ATOM     22  C   UNL     1      35.919  -0.087  19.116  0.00  0.00    +0.000 C 
BRANCH  22  24
ATOM     23  C   UNL     1      34.799   0.533  16.957  0.00  0.00    +0.000 C 
ATOM     24  C   UNL     1      35.946   0.805  17.905  0.00  0.00    +0.000 C 
ENDBRANCH  22  24
ENDBRANCH  21  22
ENDBRANCH  20  21
ENDBRANCH  14  20
ENDBRANCH   1  18
BRANCH  11  25
ATOM     25  O   UNL     1      38.338   5.738  15.785  0.00  0.00    +0.000 OA
BRANCH  25  26
ATOM     26  C   UNL     1      39.715   6.035  15.833  0.00  0.00    +0.000 C 
BRANCH  26  27
ATOM     27  C   UNL     1      40.211   6.192  17.231  0.00  0.00    +0.000 A 
ATOM     28  C   UNL     1      41.546   6.381  17.508  0.00  0.00    +0.000 A 
ATOM     29  C   UNL     1      42.022   6.530  18.790  0.00  0.00    +0.000 A 
ATOM     30  C   UNL     1      41.127   6.489  19.842  0.00  0.00    +0.000 A 
ATOM     31  C   UNL     1      39.802   6.303  19.597  0.00  0.00    +0.000 A 
ATOM     32  C   UNL     1      39.366   6.159  18.313  0.00  0.00    +0.000 A 
ENDBRANCH  26  27
ENDBRANCH  25  26
ENDBRANCH  11  25
TORSDOF 8
ENDMDL
MODEL 2
REMARK VINA RESULT:      -7.9      3.336      6.681
REMARK  Name = 
REMARK  8 active torsions:
REMARK  status: ('A' for Active; 'I' for Inactive)
REMARK    1  A    between atoms: C_2  and  C_3
REMARK    2  A    between atoms: C_3  and  C_4
REMARK    3  A    between atoms: C_4  and  O_5
REMARK    4  A    between atoms: O_5  and  C_6
REMARK    5  A    between atoms: C_10  and  C_11
REMARK    6  A    between atoms: C_21  and  O_22
REMARK    7  A    between atoms: O_22  and  C_23
REMARK    8  A    between atoms: C_23  and  C_24
REMARK                            x       y       z     vdW  Elec       q    Type
REMARK                         _______ _______ _______ _____ _____    ______ ____
ROOT
ATOM      1  C   UNL     1      35.989  -2.809  15.509  0.00  0.00    +0.000 C 
ATOM      2  N   UNL     1      36.370  -3.400  16.898  0.00  0.00    +0.000 NA
ATOM      3  C   UNL     1      37.312  -2.689  17.572  0.00  0.00    +0.000 C 
ATOM      4  C   UNL     1      38.702  -2.612  17.026  0.00  0.00    +0.000 C 
ATOM      5  C   UNL     1      38.553  -2.667  15.551  0.00  0.00    +0.000 A 
ATOM      6  C   UNL     1      37.429  -2.749  14.876  0.00  0.00    +0.000 A 
ATOM      7  N   UNL     1      37.699  -2.777  13.547  0.00  0.00    +0.000 NA
ATOM      8  C   UNL     1      39.023  -2.710  13.338  0.00  0.00    +0.000 A 
ATOM      9  C   UNL     1      39.798  -2.703  12.215  0.00  0.00    +0.000 A 
ATOM     10  C   UNL     1      41.166  -2.625  12.307  0.00  0.00    +0.000 A 
ATOM     11  C   UNL     1      41.761  -2.554  13.543  0.00  0.00    +0.000 A 
ATOM     12  C   UNL     1      40.948  -2.563  14.651  0.00  0.00    +0.000 A 
ATOM     13  C   UNL     1      39.584  -2.640  14.594  0.00  0.00    +0.000 A 
ENDROOT
BRANCH   1  18
ATOM     14  C   UNL     1      36.331   1.022  15.410  0.00  0.00    +0.000 A 
ATOM     15  C   UNL     1      35.488   1.361  16.443  0.00  0.00    +0.000 A 
ATOM     16  C   UNL     1      34.813   0.419  17.172  0.00  0.00    +0.000 A 
ATOM     17  C   UNL     1      34.973  -0.910  16.873  0.00  0.00    +0.000 A 
ATOM     18  C   UNL     1      35.784  -1.300  15.876  0.00  0.00    +0.000 A 
ATOM     19  C   UNL     1      36.443  -0.351  15.166  0.00  0.00    +0.000 A 
BRANCH  14  20
ATOM     20  O   UNL     1      37.004   1.981  14.685  0.00  0.00    +0.000 OA
BRANCH  20  21
ATOM     21  C   UNL     1      37.985   2.821  15.202  0.00  0.00    +0.000 C 
BRANCH  21  22
ATOM     22  C   UNL     1      39.343   2.639  14.570  0.00  0.00    +0.000 C 
BRANCH  22  24
ATOM     23  C   UNL     1      40.972   1.024  13.551  0.00  0.00    +0.000 C 
ATOM     24  C   UNL     1      39.567   1.238  14.068  0.00  0.00    +0.000 C 
ENDBRANCH  22  24
ENDBRANCH  21  22
ENDBRANCH  20  21
ENDBRANCH  14  20
ENDBRANCH   1  18
BRANCH  11  25
ATOM     25  O   UNL     1      43.167  -2.472  13.672  0.00  0.00    +0.000 OA
BRANCH  25  26
ATOM     26  C   UNL     1      43.819  -1.245  13.911  0.00  0.00    +0.000 C 
BRANCH  26  27
ATOM     27  C   UNL     1      44.642  -1.275  15.155  0.00  0.00    +0.000 A 
ATOM     28  C   UNL     1      44.872  -0.139  15.897  0.00  0.00    +0.000 A 
ATOM     29  C   UNL     1      45.625  -0.146  17.048  0.00  0.00    +0.000 A 
ATOM     30  C   UNL     1      46.172  -1.340  17.479  0.00  0.00    +0.000 A 
ATOM     31  C   UNL     1      45.960  -2.478  16.764  0.00  0.00    +0.000 A 
ATOM     32  C   UNL     1      45.209  -2.433  15.628  0.00  0.00    +0.000 A 
ENDBRANCH  26  27
ENDBRANCH  25  26
ENDBRANCH  11  25
TORSDOF 8
ENDMDL
MODEL 3
REMARK VINA RESULT:      -7.9      4.595      6.404
REMARK  Name = 
REMARK  8 active torsions:
REMARK  status: ('A' for Active; 'I' for Inactive)
REMARK    1  A    between atoms: C_2  and  C_3
REMARK    2  A    between atoms: C_3  and  C_4
REMARK    3  A    between atoms: C_4  and  O_5
REMARK    4  A    between atoms: O_5  and  C_6
REMARK    5  A    between atoms: C_10  and  C_11
REMARK    6  A    between atoms: C_21  and  O_22
REMARK    7  A    between atoms: O_22  and  C_23
REMARK    8  A    between atoms: C_23  and  C_24
REMARK                            x       y       z     vdW  Elec       q    Type
REMARK                         _______ _______ _______ _____ _____    ______ ____
ROOT
ATOM      1  C   UNL     1      36.622  -3.420  14.578  0.00  0.00    +0.000 C 
ATOM      2  N   UNL     1      37.071  -4.386  15.712  0.00  0.00    +0.000 NA
ATOM      3  C   UNL     1      37.732  -3.784  16.736  0.00  0.00    +0.000 C 
ATOM      4  C   UNL     1      39.073  -3.174  16.483  0.00  0.00    +0.000 C 
ATOM      5  C   UNL     1      39.034  -2.695  15.080  0.00  0.00    +0.000 A 
ATOM      6  C   UNL     1      38.022  -2.780  14.247  0.00  0.00    +0.000 A 
ATOM      7  N   UNL     1      38.368  -2.231  13.056  0.00  0.00    +0.000 NA
ATOM      8  C   UNL     1      39.629  -1.775  13.100  0.00  0.00    +0.000 A 
ATOM      9  C   UNL     1      40.436  -1.154  12.192  0.00  0.00    +0.000 A 
ATOM     10  C   UNL     1      41.719  -0.792  12.525  0.00  0.00    +0.000 A 
ATOM     11  C   UNL     1      42.194  -1.058  13.786  0.00  0.00    +0.000 A 
ATOM     12  C   UNL     1      41.352  -1.685  14.673  0.00  0.00    +0.000 A 
ATOM     13  C   UNL     1      40.071  -2.058  14.374  0.00  0.00    +0.000 A 
ENDROOT
BRANCH   1  18
ATOM     14  C   UNL     1      34.225  -1.562  16.946  0.00  0.00    +0.000 A 
ATOM     15  C   UNL     1      34.782  -0.304  16.906  0.00  0.00    +0.000 A 
ATOM     16  C   UNL     1      35.892  -0.021  16.155  0.00  0.00    +0.000 A 
ATOM     17  C   UNL     1      36.478  -1.016  15.413  0.00  0.00    +0.000 A 
ATOM     18  C   UNL     1      35.977  -2.262  15.413  0.00  0.00    +0.000 A 
ATOM     19  C   UNL     1      34.877  -2.520  16.164  0.00  0.00    +0.000 A 
BRANCH  14  20
ATOM     20  O   UNL     1      33.109  -1.831  17.706  0.00  0.00    +0.000 OA
BRANCH  20  21
ATOM     21  C   UNL     1      32.054  -2.643  17.302  0.00  0.00    +0.000 C 
BRANCH  21  22
ATOM     22  C   UNL     1      30.722  -2.261  17.900  0.00  0.00    +0.000 C 
BRANCH  22  24
ATOM     23  C   UNL     1      29.105  -2.990  19.675  0.00  0.00    +0.000 C 
ATOM     24  C   UNL     1      30.026  -3.422  18.556  0.00  0.00    +0.000 C 
ENDBRANCH  22  24
ENDBRANCH  21  22
ENDBRANCH  20  21
ENDBRANCH  14  20
ENDBRANCH   1  18
BRANCH  11  25
ATOM     25  O   UNL     1      43.509  -0.698  14.161  0.00  0.00    +0.000 OA
BRANCH  25  26
ATOM     26  C   UNL     1      44.502  -1.668  14.406  0.00  0.00    +0.000 C 
BRANCH  26  27
ATOM     27  C   UNL     1      45.159  -1.482  15.732  0.00  0.00    +0.000 A 
ATOM     28  C   UNL     1      45.239  -0.246  16.333  0.00  0.00    +0.000 A 
ATOM     29  C   UNL     1      45.838  -0.055  17.557  0.00  0.00    +0.000 A 
ATOM     30  C   UNL     1      46.381  -1.145  18.210  0.00  0.00    +0.000 A 
ATOM     31  C   UNL     1      46.316  -2.378  17.639  0.00  0.00    +0.000 A 
ATOM     32  C   UNL     1      45.715  -2.530  16.425  0.00  0.00    +0.000 A 
ENDBRANCH  26  27
ENDBRANCH  25  26
ENDBRANCH  11  25
TORSDOF 8
ENDMDL
MODEL 4
REMARK VINA RESULT:      -7.4      3.549      6.335
REMARK  Name = 
REMARK  8 active torsions:
REMARK  status: ('A' for Active; 'I' for Inactive)
REMARK    1  A    between atoms: C_2  and  C_3
REMARK    2  A    between atoms: C_3  and  C_4
REMARK    3  A    between atoms: C_4  and  O_5
REMARK    4  A    between atoms: O_5  and  C_6
REMARK    5  A    between atoms: C_10  and  C_11
REMARK    6  A    between atoms: C_21  and  O_22
REMARK    7  A    between atoms: O_22  and  C_23
REMARK    8  A    between atoms: C_23  and  C_24
REMARK                            x       y       z     vdW  Elec       q    Type
REMARK                         _______ _______ _______ _____ _____    ______ ____
ROOT
ATOM      1  C   UNL     1      36.363  -3.291  14.844  0.00  0.00    +0.000 C 
ATOM      2  N   UNL     1      36.737  -4.321  15.950  0.00  0.00    +0.000 NA
ATOM      3  C   UNL     1      37.552  -3.833  16.922  0.00  0.00    +0.000 C 
ATOM      4  C   UNL     1      38.950  -3.434  16.572  0.00  0.00    +0.000 C 
ATOM      5  C   UNL     1      38.887  -2.948  15.172  0.00  0.00    +0.000 A 
ATOM      6  C   UNL     1      37.818  -2.872  14.412  0.00  0.00    +0.000 A 
ATOM      7  N   UNL     1      38.159  -2.378  13.197  0.00  0.00    +0.000 NA
ATOM      8  C   UNL     1      39.476  -2.121  13.150  0.00  0.00    +0.000 A 
ATOM      9  C   UNL     1      40.303  -1.626  12.184  0.00  0.00    +0.000 A 
ATOM     10  C   UNL     1      41.646  -1.467  12.424  0.00  0.00    +0.000 A 
ATOM     11  C   UNL     1      42.162  -1.810  13.650  0.00  0.00    +0.000 A 
ATOM     12  C   UNL     1      41.298  -2.304  14.598  0.00  0.00    +0.000 A 
ATOM     13  C   UNL     1      39.957  -2.475  14.391  0.00  0.00    +0.000 A 
ENDROOT
BRANCH   1  18
ATOM     14  C   UNL     1      36.357   0.280  16.277  0.00  0.00    +0.000 A 
ATOM     15  C   UNL     1      35.337   0.164  17.193  0.00  0.00    +0.000 A 
ATOM     16  C   UNL     1      34.649  -1.005  17.375  0.00  0.00    +0.000 A 
ATOM     17  C   UNL     1      34.977  -2.106  16.625  0.00  0.00    +0.000 A 
ATOM     18  C   UNL     1      35.964  -2.052  15.716  0.00  0.00    +0.000 A 
ATOM     19  C   UNL     1      36.633  -0.884  15.552  0.00  0.00    +0.000 A 
BRANCH  14  20
ATOM     20  O   UNL     1      37.042   1.463  16.105  0.00  0.00    +0.000 OA
BRANCH  20  21
ATOM     21  C   UNL     1      37.405   1.995  14.872  0.00  0.00    +0.000 C 
BRANCH  21  22
ATOM     22  C   UNL     1      36.260   2.624  14.115  0.00  0.00    +0.000 C 
BRANCH  22  24
ATOM     23  C   UNL     1      34.197   3.276  15.386  0.00  0.00    +0.000 C 
ATOM     24  C   UNL     1      35.566   3.701  14.903  0.00  0.00    +0.000 C 
ENDBRANCH  22  24
ENDBRANCH  21  22
ENDBRANCH  20  21
ENDBRANCH  14  20
ENDBRANCH   1  18
BRANCH  11  25
ATOM     25  O   UNL     1      43.540  -1.658  13.930  0.00  0.00    +0.000 OA
BRANCH  25  26
ATOM     26  C   UNL     1      44.032  -0.551  14.650  0.00  0.00    +0.000 C 
BRANCH  26  27
ATOM     27  C   UNL     1      44.920  -0.959  15.777  0.00  0.00    +0.000 A 
ATOM     28  C   UNL     1      45.352  -0.055  16.722  0.00  0.00    +0.000 A 
ATOM     29  C   UNL     1      46.168  -0.413  17.770  0.00  0.00    +0.000 A 
ATOM     30  C   UNL     1      46.570  -1.730  17.881  0.00  0.00    +0.000 A 
ATOM     31  C   UNL     1      46.158  -2.644  16.962  0.00  0.00    +0.000 A 
ATOM     32  C   UNL     1      45.349  -2.253  15.936  0.00  0.00    +0.000 A 
ENDBRANCH  26  27
ENDBRANCH  25  26
ENDBRANCH  11  25
TORSDOF 8
ENDMDL
MODEL 5
REMARK VINA RESULT:      -7.3      3.385      6.686
REMARK  Name = 
REMARK  8 active torsions:
REMARK  status: ('A' for Active; 'I' for Inactive)
REMARK    1  A    between atoms: C_2  and  C_3
REMARK    2  A    between atoms: C_3  and  C_4
REMARK    3  A    between atoms: C_4  and  O_5
REMARK    4  A    between atoms: O_5  and  C_6
REMARK    5  A    between atoms: C_10  and  C_11
REMARK    6  A    between atoms: C_21  and  O_22
REMARK    7  A    between atoms: O_22  and  C_23
REMARK    8  A    between atoms: C_23  and  C_24
REMARK                            x       y       z     vdW  Elec       q    Type
REMARK                         _______ _______ _______ _____ _____    ______ ____
ROOT
ATOM      1  C   UNL     1      35.778  -2.367  15.786  0.00  0.00    +0.000 C 
ATOM      2  N   UNL     1      36.210  -2.737  17.235  0.00  0.00    +0.000 NA
ATOM      3  C   UNL     1      37.208  -1.963  17.739  0.00  0.00    +0.000 C 
ATOM      4  C   UNL     1      38.569  -2.034  17.125  0.00  0.00    +0.000 C 
ATOM      5  C   UNL     1      38.344  -2.324  15.689  0.00  0.00    +0.000 A 
ATOM      6  C   UNL     1      37.184  -2.471  15.088  0.00  0.00    +0.000 A 
ATOM      7  N   UNL     1      37.386  -2.727  13.771  0.00  0.00    +0.000 NA
ATOM      8  C   UNL     1      38.699  -2.750  13.495  0.00  0.00    +0.000 A 
ATOM      9  C   UNL     1      39.415  -2.959  12.352  0.00  0.00    +0.000 A 
ATOM     10  C   UNL     1      40.788  -2.922  12.368  0.00  0.00    +0.000 A 
ATOM     11  C   UNL     1      41.447  -2.673  13.547  0.00  0.00    +0.000 A 
ATOM     12  C   UNL     1      40.692  -2.467  14.677  0.00  0.00    +0.000 A 
ATOM     13  C   UNL     1      39.325  -2.496  14.695  0.00  0.00    +0.000 A 
ENDROOT
BRANCH   1  18
ATOM     14  C   UNL     1      36.012   1.369  14.897  0.00  0.00    +0.000 A 
ATOM     15  C   UNL     1      35.443   1.915  16.024  0.00  0.00    +0.000 A 
ATOM     16  C   UNL     1      34.986   1.143  17.058  0.00  0.00    +0.000 A 
ATOM     17  C   UNL     1      35.093  -0.222  16.981  0.00  0.00    +0.000 A 
ATOM     18  C   UNL     1      35.640  -0.811  15.906  0.00  0.00    +0.000 A 
ATOM     19  C   UNL     1      36.087  -0.028  14.892  0.00  0.00    +0.000 A 
BRANCH  14  20
ATOM     20  O   UNL     1      36.467   2.158  13.864  0.00  0.00    +0.000 OA
BRANCH  20  21
ATOM     21  C   UNL     1      37.790   2.554  13.694  0.00  0.00    +0.000 C 
BRANCH  21  22
ATOM     22  C   UNL     1      38.705   2.134  14.818  0.00  0.00    +0.000 C 
BRANCH  22  24
ATOM     23  C   UNL     1      39.621   0.776  12.916  0.00  0.00    +0.000 C 
ATOM     24  C   UNL     1      39.710   1.099  14.392  0.00  0.00    +0.000 C 
ENDBRANCH  22  24
ENDBRANCH  21  22
ENDBRANCH  20  21
ENDBRANCH  14  20
ENDBRANCH   1  18
BRANCH  11  25
ATOM     25  O   UNL     1      42.860  -2.627  13.598  0.00  0.00    +0.000 OA
BRANCH  25  26
ATOM     26  C   UNL     1      43.549  -1.480  14.040  0.00  0.00    +0.000 C 
BRANCH  26  27
ATOM     27  C   UNL     1      43.477  -0.363  13.053  0.00  0.00    +0.000 A 
ATOM     28  C   UNL     1      43.240   0.935  13.447  0.00  0.00    +0.000 A 
ATOM     29  C   UNL     1      43.172   1.979  12.554  0.00  0.00    +0.000 A 
ATOM     30  C   UNL     1      43.348   1.717  11.209  0.00  0.00    +0.000 A 
ATOM     31  C   UNL     1      43.583   0.443  10.792  0.00  0.00    +0.000 A 
ATOM     32  C   UNL     1      43.644  -0.567  11.706  0.00  0.00    +0.000 A 
ENDBRANCH  26  27
ENDBRANCH  25  26
ENDBRANCH  11  25
TORSDOF 8
ENDMDL
MODEL 6
REMARK VINA RESULT:      -7.1      1.821      3.584
REMARK  Name = 
REMARK  8 active torsions:
REMARK  status: ('A' for Active; 'I' for Inactive)
REMARK    1  A    between atoms: C_2  and  C_3
REMARK    2  A    between atoms: C_3  and  C_4
REMARK    3  A    between atoms: C_4  and  O_5
REMARK    4  A    between atoms: O_5  and  C_6
REMARK    5  A    between atoms: C_10  and  C_11
REMARK    6  A    between atoms: C_21  and  O_22
REMARK    7  A    between atoms: O_22  and  C_23
REMARK    8  A    between atoms: C_23  and  C_24
REMARK                            x       y       z     vdW  Elec       q    Type
REMARK                         _______ _______ _______ _____ _____    ______ ____
ROOT
ATOM      1  C   UNL     1      36.647   2.240  13.419  0.00  0.00    +0.000 C 
ATOM      2  N   UNL     1      38.141   1.810  13.484  0.00  0.00    +0.000 NA
ATOM      3  C   UNL     1      38.717   1.957  14.707  0.00  0.00    +0.000 C 
ATOM      4  C   UNL     1      38.904   3.330  15.267  0.00  0.00    +0.000 C 
ATOM      5  C   UNL     1      37.771   4.131  14.744  0.00  0.00    +0.000 A 
ATOM      6  C   UNL     1      36.801   3.708  13.965  0.00  0.00    +0.000 A 
ATOM      7  N   UNL     1      35.953   4.733  13.700  0.00  0.00    +0.000 NA
ATOM      8  C   UNL     1      36.366   5.852  14.315  0.00  0.00    +0.000 A 
ATOM      9  C   UNL     1      35.881   7.127  14.371  0.00  0.00    +0.000 A 
ATOM     10  C   UNL     1      36.532   8.093  15.099  0.00  0.00    +0.000 A 
ATOM     11  C   UNL     1      37.683   7.773  15.778  0.00  0.00    +0.000 A 
ATOM     12  C   UNL     1      38.140   6.479  15.697  0.00  0.00    +0.000 A 
ATOM     13  C   UNL     1      37.516   5.494  14.982  0.00  0.00    +0.000 A 
ENDROOT
BRANCH   1  18
ATOM     14  C   UNL     1      35.831  -0.532  15.961  0.00  0.00    +0.000 A 
ATOM     15  C   UNL     1      35.125   0.199  16.888  0.00  0.00    +0.000 A 
ATOM     16  C   UNL     1      34.897   1.541  16.739  0.00  0.00    +0.000 A 
ATOM     17  C   UNL     1      35.383   2.190  15.632  0.00  0.00    +0.000 A 
ATOM     18  C   UNL     1      36.078   1.528  14.694  0.00  0.00    +0.000 A 
ATOM     19  C   UNL     1      36.293   0.199  14.861  0.00  0.00    +0.000 A 
BRANCH  14  20
ATOM     20  O   UNL     1      36.053  -1.881  16.124  0.00  0.00    +0.000 OA
BRANCH  20  21
ATOM     21  C   UNL     1      37.306  -2.485  16.107  0.00  0.00    +0.000 C 
BRANCH  21  22
ATOM     22  C   UNL     1      38.315  -1.829  17.017  0.00  0.00    +0.000 C 
BRANCH  22  24
ATOM     23  C   UNL     1      37.387  -1.605  19.338  0.00  0.00    +0.000 C 
ATOM     24  C   UNL     1      38.289  -2.391  18.413  0.00  0.00    +0.000 C 
ENDBRANCH  22  24
ENDBRANCH  21  22
ENDBRANCH  20  21
ENDBRANCH  14  20
ENDBRANCH   1  18
BRANCH  11  25
ATOM     25  O   UNL     1      38.376   8.744  16.537  0.00  0.00    +0.000 OA
BRANCH  25  26
ATOM     26  C   UNL     1      38.395   8.708  17.946  0.00  0.00    +0.000 C 
BRANCH  26  27
ATOM     27  C   UNL     1      39.543   7.915  18.475  0.00  0.00    +0.000 A 
ATOM     28  C   UNL     1      40.781   7.946  17.874  0.00  0.00    +0.000 A 
ATOM     29  C   UNL     1      41.853   7.224  18.348  0.00  0.00    +0.000 A 
ATOM     30  C   UNL     1      41.681   6.438  19.471  0.00  0.00    +0.000 A 
ATOM     31  C   UNL     1      40.468   6.389  20.085  0.00  0.00    +0.000 A 
ATOM     32  C   UNL     1      39.429   7.118  19.587  0.00  0.00    +0.000 A 
ENDBRANCH  26  27
ENDBRANCH  25  26
ENDBRANCH  11  25
TORSDOF 8
ENDMDL
MODEL 7
REMARK VINA RESULT:      -7.1      1.627      1.986
REMARK  Name = 
REMARK  8 active torsions:
REMARK  status: ('A' for Active; 'I' for Inactive)
REMARK    1  A    between atoms: C_2  and  C_3
REMARK    2  A    between atoms: C_3  and  C_4
REMARK    3  A    between atoms: C_4  and  O_5
REMARK    4  A    between atoms: O_5  and  C_6
REMARK    5  A    between atoms: C_10  and  C_11
REMARK    6  A    between atoms: C_21  and  O_22
REMARK    7  A    between atoms: O_22  and  C_23
REMARK    8  A    between atoms: C_23  and  C_24
REMARK                            x       y       z     vdW  Elec       q    Type
REMARK                         _______ _______ _______ _____ _____    ______ ____
ROOT
ATOM      1  C   UNL     1      38.453  -1.268  12.374  0.00  0.00    +0.000 C 
ATOM      2  N   UNL     1      39.901  -1.659  12.790  0.00  0.00    +0.000 NA
ATOM      3  C   UNL     1      40.187  -1.442  14.101  0.00  0.00    +0.000 C 
ATOM      4  C   UNL     1      40.228  -0.040  14.619  0.00  0.00    +0.000 C 
ATOM      5  C   UNL     1      39.230   0.709  13.817  0.00  0.00    +0.000 A 
ATOM      6  C   UNL     1      38.464   0.228  12.864  0.00  0.00    +0.000 A 
ATOM      7  N   UNL     1      37.683   1.219  12.366  0.00  0.00    +0.000 NA
ATOM      8  C   UNL     1      37.935   2.375  13.000  0.00  0.00    +0.000 A 
ATOM      9  C   UNL     1      37.434   3.639  12.882  0.00  0.00    +0.000 A 
ATOM     10  C   UNL     1      37.893   4.653  13.686  0.00  0.00    +0.000 A 
ATOM     11  C   UNL     1      38.868   4.392  14.619  0.00  0.00    +0.000 A 
ATOM     12  C   UNL     1      39.347   3.107  14.708  0.00  0.00    +0.000 A 
ATOM     13  C   UNL     1      38.911   2.075  13.923  0.00  0.00    +0.000 A 
ENDROOT
BRANCH   1  18
ATOM     14  C   UNL     1      36.009  -1.654  15.320  0.00  0.00    +0.000 A 
ATOM     15  C   UNL     1      36.135  -3.004  15.555  0.00  0.00    +0.000 A 
ATOM     16  C   UNL     1      36.968  -3.799  14.814  0.00  0.00    +0.000 A 
ATOM     17  C   UNL     1      37.706  -3.244  13.800  0.00  0.00    +0.000 A 
ATOM     18  C   UNL     1      37.624  -1.933  13.525  0.00  0.00    +0.000 A 
ATOM     19  C   UNL     1      36.793  -1.163  14.271  0.00  0.00    +0.000 A 
BRANCH  14  20
ATOM     20  O   UNL     1      35.167  -0.867  16.074  0.00  0.00    +0.000 OA
BRANCH  20  21
ATOM     21  C   UNL     1      35.540  -0.194  17.232  0.00  0.00    +0.000 C 
BRANCH  21  22
ATOM     22  C   UNL     1      36.222   1.129  16.981  0.00  0.00    +0.000 C 
BRANCH  22  24
ATOM     23  C   UNL     1      34.537   2.725  16.026  0.00  0.00    +0.000 C 
ATOM     24  C   UNL     1      35.714   1.818  15.744  0.00  0.00    +0.000 C 
ENDBRANCH  22  24
ENDBRANCH  21  22
ENDBRANCH  20  21
ENDBRANCH  14  20
ENDBRANCH   1  18
BRANCH  11  25
ATOM     25  O   UNL     1      39.362   5.414  15.463  0.00  0.00    +0.000 OA
BRANCH  25  26
ATOM     26  C   UNL     1      38.504   6.353  16.070  0.00  0.00    +0.000 C 
BRANCH  26  27
ATOM     27  C   UNL     1      38.870   6.616  17.492  0.00  0.00    +0.000 A 
ATOM     28  C   UNL     1      38.212   7.562  18.245  0.00  0.00    +0.000 A 
ATOM     29  C   UNL     1      38.533   7.817  19.559  0.00  0.00    +0.000 A 
ATOM     30  C   UNL     1      39.555   7.096  20.146  0.00  0.00    +0.000 A 
ATOM     31  C   UNL     1      40.222   6.156  19.425  0.00  0.00    +0.000 A 
ATOM     32  C   UNL     1      39.877   5.930  18.125  0.00  0.00    +0.000 A 
ENDBRANCH  26  27
ENDBRANCH  25  26
ENDBRANCH  11  25
TORSDOF 8
ENDMDL
MODEL 8
REMARK VINA RESULT:      -7.0      3.677      7.538
REMARK  Name = 
REMARK  8 active torsions:
REMARK  status: ('A' for Active; 'I' for Inactive)
REMARK    1  A    between atoms: C_2  and  C_3
REMARK    2  A    between atoms: C_3  and  C_4
REMARK    3  A    between atoms: C_4  and  O_5
REMARK    4  A    between atoms: O_5  and  C_6
REMARK    5  A    between atoms: C_10  and  C_11
REMARK    6  A    between atoms: C_21  and  O_22
REMARK    7  A    between atoms: O_22  and  C_23
REMARK    8  A    between atoms: C_23  and  C_24
REMARK                            x       y       z     vdW  Elec       q    Type
REMARK                         _______ _______ _______ _____ _____    ______ ____
ROOT
ATOM      1  C   UNL     1      36.360  -3.479  15.309  0.00  0.00    +0.000 C 
ATOM      2  N   UNL     1      36.892  -4.119  16.624  0.00  0.00    +0.000 NA
ATOM      3  C   UNL     1      37.673  -3.297  17.374  0.00  0.00    +0.000 C 
ATOM      4  C   UNL     1      39.000  -2.860  16.841  0.00  0.00    +0.000 C 
ATOM      5  C   UNL     1      38.833  -2.787  15.369  0.00  0.00    +0.000 A 
ATOM      6  C   UNL     1      37.738  -3.039  14.687  0.00  0.00    +0.000 A 
ATOM      7  N   UNL     1      37.977  -2.864  13.364  0.00  0.00    +0.000 NA
ATOM      8  C   UNL     1      39.251  -2.488  13.165  0.00  0.00    +0.000 A 
ATOM      9  C   UNL     1      39.979  -2.191  12.051  0.00  0.00    +0.000 A 
ATOM     10  C   UNL     1      41.300  -1.827  12.152  0.00  0.00    +0.000 A 
ATOM     11  C   UNL     1      41.894  -1.762  13.389  0.00  0.00    +0.000 A 
ATOM     12  C   UNL     1      41.128  -2.068  14.489  0.00  0.00    +0.000 A 
ATOM     13  C   UNL     1      39.811  -2.433  14.422  0.00  0.00    +0.000 A 
ENDROOT
BRANCH   1  18
ATOM     14  C   UNL     1      35.863   0.323  15.633  0.00  0.00    +0.000 A 
ATOM     15  C   UNL     1      34.989   0.356  16.695  0.00  0.00    +0.000 A 
ATOM     16  C   UNL     1      34.550  -0.783  17.315  0.00  0.00    +0.000 A 
ATOM     17  C   UNL     1      34.988  -2.005  16.871  0.00  0.00    +0.000 A 
ATOM     18  C   UNL     1      35.841  -2.099  15.839  0.00  0.00    +0.000 A 
ATOM     19  C   UNL     1      36.264  -0.958  15.240  0.00  0.00    +0.000 A 
BRANCH  14  20
ATOM     20  O   UNL     1      36.296   1.477  15.019  0.00  0.00    +0.000 OA
BRANCH  20  21
ATOM     21  C   UNL     1      37.192   2.383  15.579  0.00  0.00    +0.000 C 
BRANCH  21  22
ATOM     22  C   UNL     1      38.445   2.589  14.764  0.00  0.00    +0.000 C 
BRANCH  22  24
ATOM     23  C   UNL     1      40.370   1.493  13.584  0.00  0.00    +0.000 C 
ATOM     24  C   UNL     1      39.197   1.309  14.521  0.00  0.00    +0.000 C 
ENDBRANCH  22  24
ENDBRANCH  21  22
ENDBRANCH  20  21
ENDBRANCH  14  20
ENDBRANCH   1  18
BRANCH  11  25
ATOM     25  O   UNL     1      43.251  -1.390  13.528  0.00  0.00    +0.000 OA
BRANCH  25  26
ATOM     26  C   UNL     1      44.137  -2.115  14.351  0.00  0.00    +0.000 C 
BRANCH  26  27
ATOM     27  C   UNL     1      45.090  -2.946  13.560  0.00  0.00    +0.000 A 
ATOM     28  C   UNL     1      46.449  -2.891  13.775  0.00  0.00    +0.000 A 
ATOM     29  C   UNL     1      47.344  -3.651  13.058  0.00  0.00    +0.000 A 
ATOM     30  C   UNL     1      46.862  -4.505  12.084  0.00  0.00    +0.000 A 
ATOM     31  C   UNL     1      45.524  -4.578  11.850  0.00  0.00    +0.000 A 
ATOM     32  C   UNL     1      44.666  -3.810  12.580  0.00  0.00    +0.000 A 
ENDBRANCH  26  27
ENDBRANCH  25  26
ENDBRANCH  11  25
TORSDOF 8
ENDMDL
MODEL 9
REMARK VINA RESULT:      -6.9      2.234      7.882
REMARK  Name = 
REMARK  8 active torsions:
REMARK  status: ('A' for Active; 'I' for Inactive)
REMARK    1  A    between atoms: C_2  and  C_3
REMARK    2  A    between atoms: C_3  and  C_4
REMARK    3  A    between atoms: C_4  and  O_5
REMARK    4  A    between atoms: O_5  and  C_6
REMARK    5  A    between atoms: C_10  and  C_11
REMARK    6  A    between atoms: C_21  and  O_22
REMARK    7  A    between atoms: O_22  and  C_23
REMARK    8  A    between atoms: C_23  and  C_24
REMARK                            x       y       z     vdW  Elec       q    Type
REMARK                         _______ _______ _______ _____ _____    ______ ____
ROOT
ATOM      1  C   UNL     1      38.985   5.210  14.484  0.00  0.00    +0.000 C 
ATOM      2  N   UNL     1      37.586   5.684  13.994  0.00  0.00    +0.000 NA
ATOM      3  C   UNL     1      36.548   5.263  14.765  0.00  0.00    +0.000 C 
ATOM      4  C   UNL     1      36.228   3.804  14.828  0.00  0.00    +0.000 C 
ATOM      5  C   UNL     1      37.527   3.105  14.672  0.00  0.00    +0.000 A 
ATOM      6  C   UNL     1      38.708   3.661  14.525  0.00  0.00    +0.000 A 
ATOM      7  N   UNL     1      39.653   2.695  14.413  0.00  0.00    +0.000 NA
ATOM      8  C   UNL     1      39.090   1.479  14.488  0.00  0.00    +0.000 A 
ATOM      9  C   UNL     1      39.586   0.209  14.433  0.00  0.00    +0.000 A 
ATOM     10  C   UNL     1      38.750  -0.875  14.541  0.00  0.00    +0.000 A 
ATOM     11  C   UNL     1      37.400  -0.680  14.705  0.00  0.00    +0.000 A 
ATOM     12  C   UNL     1      36.938   0.614  14.756  0.00  0.00    +0.000 A 
ATOM     13  C   UNL     1      37.743   1.715  14.653  0.00  0.00    +0.000 A 
ENDROOT
BRANCH   1  18
ATOM     14  C   UNL     1      38.532   7.235  17.724  0.00  0.00    +0.000 A 
ATOM     15  C   UNL     1      38.719   6.238  18.653  0.00  0.00    +0.000 A 
ATOM     16  C   UNL     1      38.984   4.944  18.292  0.00  0.00    +0.000 A 
ATOM     17  C   UNL     1      39.068   4.618  16.961  0.00  0.00    +0.000 A 
ATOM     18  C   UNL     1      38.895   5.550  16.011  0.00  0.00    +0.000 A 
ATOM     19  C   UNL     1      38.635   6.826  16.391  0.00  0.00    +0.000 A 
BRANCH  14  20
ATOM     20  O   UNL     1      38.267   8.533  18.103  0.00  0.00    +0.000 OA
BRANCH  20  21
ATOM     21  C   UNL     1      37.139   8.937  18.809  0.00  0.00    +0.000 C 
BRANCH  21  22
ATOM     22  C   UNL     1      37.337   8.987  20.304  0.00  0.00    +0.000 C 
BRANCH  22  24
ATOM     23  C   UNL     1      38.762  10.871  21.151  0.00  0.00    +0.000 C 
ATOM     24  C   UNL     1      38.721   9.430  20.691  0.00  0.00    +0.000 C 
ENDBRANCH  22  24
ENDBRANCH  21  22
ENDBRANCH  20  21
ENDBRANCH  14  20
ENDBRANCH   1  18
BRANCH  11  25
ATOM     25  O   UNL     1      36.513  -1.775  14.819  0.00  0.00    +0.000 OA
BRANCH  25  26
ATOM     26  C   UNL     1      35.833  -2.055  16.021  0.00  0.00    +0.000 C 
BRANCH  26  27
ATOM     27  C   UNL     1      36.768  -2.364  17.141  0.00  0.00    +0.000 A 
ATOM     28  C   UNL     1      36.809  -1.597  18.283  0.00  0.00    +0.000 A 
ATOM     29  C   UNL     1      37.663  -1.867  19.328  0.00  0.00    +0.000 A 
ATOM     30  C   UNL     1      38.513  -2.952  19.228  0.00  0.00    +0.000 A 
ATOM     31  C   UNL     1      38.494  -3.727  18.111  0.00  0.00    +0.000 A 
ATOM     32  C   UNL     1      37.634  -3.429  17.096  0.00  0.00    +0.000 A 
ENDBRANCH  26  27
ENDBRANCH  25  26
ENDBRANCH  11  25
TORSDOF 8
ENDMDL
MODEL 10
REMARK VINA RESULT:      -6.9      4.639      8.594
REMARK  Name = 
REMARK  8 active torsions:
REMARK  status: ('A' for Active; 'I' for Inactive)
REMARK    1  A    between atoms: C_2  and  C_3
REMARK    2  A    between atoms: C_3  and  C_4
REMARK    3  A    between atoms: C_4  and  O_5
REMARK    4  A    between atoms: O_5  and  C_6
REMARK    5  A    between atoms: C_10  and  C_11
REMARK    6  A    between atoms: C_21  and  O_22
REMARK    7  A    between atoms: O_22  and  C_23
REMARK    8  A    between atoms: C_23  and  C_24
REMARK                            x       y       z     vdW  Elec       q    Type
REMARK                         _______ _______ _______ _____ _____    ______ ____
ROOT
ATOM      1  C   UNL     1      40.846   6.329  19.921  0.00  0.00    +0.000 C 
ATOM      2  N   UNL     1      42.193   6.622  19.198  0.00  0.00    +0.000 NA
ATOM      3  C   UNL     1      42.088   7.456  18.130  0.00  0.00    +0.000 C 
ATOM      4  C   UNL     1      41.334   7.004  16.920  0.00  0.00    +0.000 C 
ATOM      5  C   UNL     1      40.263   6.113  17.429  0.00  0.00    +0.000 A 
ATOM      6  C   UNL     1      40.025   5.805  18.683  0.00  0.00    +0.000 A 
ATOM      7  N   UNL     1      38.963   4.964  18.750  0.00  0.00    +0.000 NA
ATOM      8  C   UNL     1      38.489   4.712  17.520  0.00  0.00    +0.000 A 
ATOM      9  C   UNL     1      37.460   3.950  17.048  0.00  0.00    +0.000 A 
ATOM     10  C   UNL     1      37.202   3.878  15.701  0.00  0.00    +0.000 A 
ATOM     11  C   UNL     1      37.987   4.579  14.819  0.00  0.00    +0.000 A 
ATOM     12  C   UNL     1      39.014   5.336  15.332  0.00  0.00    +0.000 A 
ATOM     13  C   UNL     1      39.298   5.430  16.667  0.00  0.00    +0.000 A 
ENDROOT
BRANCH   1  18
ATOM     14  C   UNL     1      38.373   9.268  19.700  0.00  0.00    +0.000 A 
ATOM     15  C   UNL     1      39.148  10.269  20.241  0.00  0.00    +0.000 A 
ATOM     16  C   UNL     1      40.427  10.047  20.675  0.00  0.00    +0.000 A 
ATOM     17  C   UNL     1      40.967   8.790  20.572  0.00  0.00    +0.000 A 
ATOM     18  C   UNL     1      40.259   7.775  20.052  0.00  0.00    +0.000 A 
ATOM     19  C   UNL     1      38.993   8.017  19.628  0.00  0.00    +0.000 A 
BRANCH  14  20
ATOM     20  O   UNL     1      37.088   9.506  19.267  0.00  0.00    +0.000 OA
BRANCH  20  21
ATOM     21  C   UNL     1      36.759  10.196  18.105  0.00  0.00    +0.000 C 
BRANCH  21  22
ATOM     22  C   UNL     1      36.122   9.336  17.040  0.00  0.00    +0.000 C 
BRANCH  22  24
ATOM     23  C   UNL     1      38.300   9.037  15.830  0.00  0.00    +0.000 C 
ATOM     24  C   UNL     1      37.088   8.358  16.430  0.00  0.00    +0.000 C 
ENDBRANCH  22  24
ENDBRANCH  21  22
ENDBRANCH  20  21
ENDBRANCH  14  20
ENDBRANCH   1  18
BRANCH  11  25
ATOM     25  O   UNL     1      37.747   4.527  13.426  0.00  0.00    +0.000 OA
BRANCH  25  26
ATOM     26  C   UNL     1      36.443   4.586  12.896  0.00  0.00    +0.000 C 
BRANCH  26  27
ATOM     27  C   UNL     1      35.772   5.886  13.188  0.00  0.00    +0.000 A 
ATOM     28  C   UNL     1      36.279   7.080  12.729  0.00  0.00    +0.000 A 
ATOM     29  C   UNL     1      35.674   8.289  12.986  0.00  0.00    +0.000 A 
ATOM     30  C   UNL     1      34.511   8.307  13.732  0.00  0.00    +0.000 A 
ATOM     31  C   UNL     1      33.989   7.140  14.198  0.00  0.00    +0.000 A 
ATOM     32  C   UNL     1      34.616   5.961  13.925  0.00  0.00    +0.000 A 
ENDBRANCH  26  27
ENDBRANCH  25  26
ENDBRANCH  11  25
TORSDOF 8
ENDMDL
