MODEL 1
REMARK VINA RESULT:      -6.0      0.000      0.000
REMARK  Name = 
REMARK  4 active torsions:
REMARK  status: ('A' for Active; 'I' for Inactive)
REMARK    1  A    between atoms: N_4  and  C_5
REMARK    2  A    between atoms: C_7  and  C_8
REMARK    3  A    between atoms: C_8  and  C_9
REMARK    4  A    between atoms: C_17  and  C_18
REMARK                            x       y       z     vdW  Elec       q    Type
REMARK                         _______ _______ _______ _____ _____    ______ ____
ROOT
ATOM      1  C   UNL     1      30.249  23.968  24.160  0.00  0.00    +0.000 A 
ATOM      2  S   UNL     1      29.383  23.194  25.474  0.00  0.00    +0.000 S 
ATOM      3  C   UNL     1      27.815  23.215  24.838  0.00  0.00    +0.000 A 
ATOM      4  C   UNL     1      27.987  23.817  23.630  0.00  0.00    +0.000 A 
ATOM      5  C   UNL     1      26.752  24.021  22.734  0.00  0.00    +0.000 C 
ATOM      6  C   UNL     1      29.247  24.206  23.281  0.00  0.00    +0.000 A 
ENDROOT
BRANCH   1  10
ATOM      7  C   UNL     1      34.030  24.326  24.578  0.00  0.00    +0.000 C 
ATOM      8  C   UNL     1      32.601  24.558  25.065  0.00  0.00    +0.000 C 
ATOM      9  O   UNL     1      32.420  25.154  26.125  0.00  0.00    +0.000 OA
ATOM     10  N   UNL     1      31.586  24.117  24.348  0.00  0.00    +0.000 NA
ENDBRANCH   1  10
BRANCH   6  11
ATOM     11  C   UNL     1      29.458  24.862  21.970  0.00  0.00    +0.000 C 
ATOM     12  N   UNL     1      29.391  26.275  21.813  0.00  0.00    +0.000 NA
ATOM     13  O   UNL     1      29.698  24.212  20.970  0.00  0.00    +0.000 OA
ENDBRANCH   6  11
BRANCH   3  14
ATOM     14  C   UNL     1      26.559  22.692  25.474  0.00  0.00    +0.000 C 
BRANCH  14  15
ATOM     15  C   UNL     1      26.034  23.646  26.429  0.00  0.00    +0.000 A 
ATOM     16  C   UNL     1      26.326  23.481  27.766  0.00  0.00    +0.000 A 
ATOM     17  C   UNL     1      25.865  24.374  28.710  0.00  0.00    +0.000 A 
ATOM     18  C   UNL     1      25.097  25.463  28.370  0.00  0.00    +0.000 A 
ATOM     19  C   UNL     1      24.803  25.633  27.033  0.00  0.00    +0.000 A 
ATOM     20  C   UNL     1      25.262  24.743  26.088  0.00  0.00    +0.000 A 
ENDBRANCH  14  15
ENDBRANCH   3  14
TORSDOF 4
ENDMDL
MODEL 2
REMARK VINA RESULT:      -6.0      3.242      6.131
REMARK  Name = 
REMARK  4 active torsions:
REMARK  status: ('A' for Active; 'I' for Inactive)
REMARK    1  A    between atoms: N_4  and  C_5
REMARK    2  A    between atoms: C_7  and  C_8
REMARK    3  A    between atoms: C_8  and  C_9
REMARK    4  A    between atoms: C_17  and  C_18
REMARK                            x       y       z     vdW  Elec       q    Type
REMARK                         _______ _______ _______ _____ _____    ______ ____
ROOT
ATOM      1  C   UNL     1      27.888  22.613  27.138  0.00  0.00    +0.000 A 
ATOM      2  S   UNL     1      29.614  22.356  26.959  0.00  0.00    +0.000 S 
ATOM      3  C   UNL     1      29.804  22.794  25.335  0.00  0.00    +0.000 A 
ATOM      4  C   UNL     1      28.539  23.129  24.963  0.00  0.00    +0.000 A 
ATOM      5  C   UNL     1      28.303  23.592  23.514  0.00  0.00    +0.000 C 
ATOM      6  C   UNL     1      27.549  23.035  25.897  0.00  0.00    +0.000 A 
ENDROOT
BRANCH   1  10
ATOM      7  C   UNL     1      26.531  21.752  30.604  0.00  0.00    +0.000 C 
ATOM      8  C   UNL     1      26.616  22.676  29.392  0.00  0.00    +0.000 C 
ATOM      9  O   UNL     1      25.967  23.719  29.389  0.00  0.00    +0.000 OA
ATOM     10  N   UNL     1      27.381  22.346  28.369  0.00  0.00    +0.000 NA
ENDBRANCH   1  10
BRANCH   6  11
ATOM     11  C   UNL     1      26.165  23.395  25.514  0.00  0.00    +0.000 C 
ATOM     12  N   UNL     1      25.544  24.594  25.961  0.00  0.00    +0.000 NA
ATOM     13  O   UNL     1      25.501  22.670  24.796  0.00  0.00    +0.000 OA
ENDBRANCH   6  11
BRANCH   3  14
ATOM     14  C   UNL     1      31.070  22.801  24.528  0.00  0.00    +0.000 C 
BRANCH  14  15
ATOM     15  C   UNL     1      31.825  24.012  24.773  0.00  0.00    +0.000 A 
ATOM     16  C   UNL     1      33.201  23.971  24.689  0.00  0.00    +0.000 A 
ATOM     17  C   UNL     1      33.961  25.102  24.894  0.00  0.00    +0.000 A 
ATOM     18  C   UNL     1      33.392  26.318  25.192  0.00  0.00    +0.000 A 
ATOM     19  C   UNL     1      32.017  26.367  25.277  0.00  0.00    +0.000 A 
ATOM     20  C   UNL     1      31.255  25.238  25.072  0.00  0.00    +0.000 A 
ENDBRANCH  14  15
ENDBRANCH   3  14
TORSDOF 4
ENDMDL
MODEL 3
REMARK VINA RESULT:      -5.9      1.529      3.413
REMARK  Name = 
REMARK  4 active torsions:
REMARK  status: ('A' for Active; 'I' for Inactive)
REMARK    1  A    between atoms: N_4  and  C_5
REMARK    2  A    between atoms: C_7  and  C_8
REMARK    3  A    between atoms: C_8  and  C_9
REMARK    4  A    between atoms: C_17  and  C_18
REMARK                            x       y       z     vdW  Elec       q    Type
REMARK                         _______ _______ _______ _____ _____    ______ ____
ROOT
ATOM      1  C   UNL     1      28.924  24.816  23.345  0.00  0.00    +0.000 A 
ATOM      2  S   UNL     1      27.243  24.484  23.717  0.00  0.00    +0.000 S 
ATOM      3  C   UNL     1      27.439  23.492  25.076  0.00  0.00    +0.000 A 
ATOM      4  C   UNL     1      28.791  23.436  25.215  0.00  0.00    +0.000 A 
ATOM      5  C   UNL     1      29.371  22.604  26.373  0.00  0.00    +0.000 C 
ATOM      6  C   UNL     1      29.558  24.121  24.319  0.00  0.00    +0.000 A 
ENDROOT
BRANCH   1  10
ATOM      7  C   UNL     1      29.494  27.166  20.386  0.00  0.00    +0.000 C 
ATOM      8  C   UNL     1      29.471  25.768  21.000  0.00  0.00    +0.000 C 
ATOM      9  O   UNL     1      29.764  24.802  20.299  0.00  0.00    +0.000 OA
ATOM     10  N   UNL     1      29.137  25.615  22.267  0.00  0.00    +0.000 NA
ENDBRANCH   1  10
BRANCH   6  11
ATOM     11  C   UNL     1      31.032  24.074  24.452  0.00  0.00    +0.000 C 
ATOM     12  N   UNL     1      31.780  25.168  24.972  0.00  0.00    +0.000 NA
ATOM     13  O   UNL     1      31.664  23.090  24.118  0.00  0.00    +0.000 OA
ENDBRANCH   6  11
BRANCH   3  14
ATOM     14  C   UNL     1      26.366  22.846  25.903  0.00  0.00    +0.000 C 
BRANCH  14  15
ATOM     15  C   UNL     1      25.970  23.713  26.993  0.00  0.00    +0.000 A 
ATOM     16  C   UNL     1      25.134  24.777  26.731  0.00  0.00    +0.000 A 
ATOM     17  C   UNL     1      24.714  25.618  27.739  0.00  0.00    +0.000 A 
ATOM     18  C   UNL     1      25.105  25.441  29.046  0.00  0.00    +0.000 A 
ATOM     19  C   UNL     1      25.941  24.378  29.315  0.00  0.00    +0.000 A 
ATOM     20  C   UNL     1      26.362  23.536  28.309  0.00  0.00    +0.000 A 
ENDBRANCH  14  15
ENDBRANCH   3  14
TORSDOF 4
ENDMDL
MODEL 4
REMARK VINA RESULT:      -5.7      3.392      4.395
REMARK  Name = 
REMARK  4 active torsions:
REMARK  status: ('A' for Active; 'I' for Inactive)
REMARK    1  A    between atoms: N_4  and  C_5
REMARK    2  A    between atoms: C_7  and  C_8
REMARK    3  A    between atoms: C_8  and  C_9
REMARK    4  A    between atoms: C_17  and  C_18
REMARK                            x       y       z     vdW  Elec       q    Type
REMARK                         _______ _______ _______ _____ _____    ______ ____
ROOT
ATOM      1  C   UNL     1      27.592  26.008  22.629  0.00  0.00    +0.000 A 
ATOM      2  S   UNL     1      27.201  27.303  23.746  0.00  0.00    +0.000 S 
ATOM      3  C   UNL     1      26.207  26.460  24.827  0.00  0.00    +0.000 A 
ATOM      4  C   UNL     1      26.195  25.203  24.308  0.00  0.00    +0.000 A 
ATOM      5  C   UNL     1      25.374  24.122  25.034  0.00  0.00    +0.000 C 
ATOM      6  C   UNL     1      26.912  24.971  23.171  0.00  0.00    +0.000 A 
ENDROOT
BRANCH   1  10
ATOM      7  C   UNL     1      29.838  27.097  19.737  0.00  0.00    +0.000 C 
ATOM      8  C   UNL     1      29.301  26.028  20.685  0.00  0.00    +0.000 C 
ATOM      9  O   UNL     1      29.716  24.875  20.582  0.00  0.00    +0.000 OA
ATOM     10  N   UNL     1      28.405  26.353  21.597  0.00  0.00    +0.000 NA
ENDBRANCH   1  10
BRANCH   6  11
ATOM     11  C   UNL     1      26.913  23.609  22.589  0.00  0.00    +0.000 C 
ATOM     12  N   UNL     1      25.780  23.074  21.915  0.00  0.00    +0.000 NA
ATOM     13  O   UNL     1      27.893  22.891  22.666  0.00  0.00    +0.000 OA
ENDBRANCH   6  11
BRANCH   3  14
ATOM     14  C   UNL     1      25.519  26.995  26.050  0.00  0.00    +0.000 C 
BRANCH  14  15
ATOM     15  C   UNL     1      24.086  27.041  25.851  0.00  0.00    +0.000 A 
ATOM     16  C   UNL     1      23.264  26.418  26.767  0.00  0.00    +0.000 A 
ATOM     17  C   UNL     1      21.893  26.450  26.630  0.00  0.00    +0.000 A 
ATOM     18  C   UNL     1      21.280  27.098  25.584  0.00  0.00    +0.000 A 
ATOM     19  C   UNL     1      22.096  27.724  24.665  0.00  0.00    +0.000 A 
ATOM     20  C   UNL     1      23.466  27.693  24.799  0.00  0.00    +0.000 A 
ENDBRANCH  14  15
ENDBRANCH   3  14
TORSDOF 4
ENDMDL
MODEL 5
REMARK VINA RESULT:      -5.7      3.472      5.906
REMARK  Name = 
REMARK  4 active torsions:
REMARK  status: ('A' for Active; 'I' for Inactive)
REMARK    1  A    between atoms: N_4  and  C_5
REMARK    2  A    between atoms: C_7  and  C_8
REMARK    3  A    between atoms: C_8  and  C_9
REMARK    4  A    between atoms: C_17  and  C_18
REMARK                            x       y       z     vdW  Elec       q    Type
REMARK                         _______ _______ _______ _____ _____    ______ ____
ROOT
ATOM      1  C   UNL     1      28.518  22.527  27.302  0.00  0.00    +0.000 A 
ATOM      2  S   UNL     1      27.645  22.713  25.793  0.00  0.00    +0.000 S 
ATOM      3  C   UNL     1      28.946  22.922  24.731  0.00  0.00    +0.000 A 
ATOM      4  C   UNL     1      30.024  22.846  25.557  0.00  0.00    +0.000 A 
ATOM      5  C   UNL     1      31.428  22.995  24.941  0.00  0.00    +0.000 C 
ATOM      6  C   UNL     1      29.801  22.641  26.887  0.00  0.00    +0.000 A 
ENDROOT
BRANCH   1  10
ATOM      7  C   UNL     1      26.421  21.883  30.431  0.00  0.00    +0.000 C 
ATOM      8  C   UNL     1      26.735  22.689  29.172  0.00  0.00    +0.000 C 
ATOM      9  O   UNL     1      26.035  23.660  28.895  0.00  0.00    +0.000 OA
ATOM     10  N   UNL     1      27.746  22.334  28.404  0.00  0.00    +0.000 NA
ENDBRANCH   1  10
BRANCH   6  11
ATOM     11  C   UNL     1      30.960  22.554  27.804  0.00  0.00    +0.000 C 
ATOM     12  N   UNL     1      31.513  23.703  28.435  0.00  0.00    +0.000 NA
ATOM     13  O   UNL     1      31.487  21.486  28.055  0.00  0.00    +0.000 OA
ENDBRANCH   6  11
BRANCH   3  14
ATOM     14  C   UNL     1      28.895  23.139  23.246  0.00  0.00    +0.000 C 
BRANCH  14  15
ATOM     15  C   UNL     1      28.705  24.541  22.941  0.00  0.00    +0.000 A 
ATOM     16  C   UNL     1      27.524  24.944  22.354  0.00  0.00    +0.000 A 
ATOM     17  C   UNL     1      27.290  26.271  22.062  0.00  0.00    +0.000 A 
ATOM     18  C   UNL     1      28.214  27.252  22.337  0.00  0.00    +0.000 A 
ATOM     19  C   UNL     1      29.397  26.855  22.925  0.00  0.00    +0.000 A 
ATOM     20  C   UNL     1      29.633  25.530  23.218  0.00  0.00    +0.000 A 
ENDBRANCH  14  15
ENDBRANCH   3  14
TORSDOF 4
ENDMDL
MODEL 6
REMARK VINA RESULT:      -5.6      2.380      3.106
REMARK  Name = 
REMARK  4 active torsions:
REMARK  status: ('A' for Active; 'I' for Inactive)
REMARK    1  A    between atoms: N_4  and  C_5
REMARK    2  A    between atoms: C_7  and  C_8
REMARK    3  A    between atoms: C_8  and  C_9
REMARK    4  A    between atoms: C_17  and  C_18
REMARK                            x       y       z     vdW  Elec       q    Type
REMARK                         _______ _______ _______ _____ _____    ______ ____
ROOT
ATOM      1  C   UNL     1      30.113  22.536  26.864  0.00  0.00    +0.000 A 
ATOM      2  S   UNL     1      28.414  22.222  27.168  0.00  0.00    +0.000 S 
ATOM      3  C   UNL     1      27.754  22.775  25.711  0.00  0.00    +0.000 A 
ATOM      4  C   UNL     1      28.850  23.190  25.021  0.00  0.00    +0.000 A 
ATOM      5  C   UNL     1      28.647  23.775  23.611  0.00  0.00    +0.000 C 
ATOM      6  C   UNL     1      30.070  23.066  25.619  0.00  0.00    +0.000 A 
ENDROOT
BRANCH   1  10
ATOM      7  C   UNL     1      32.423  21.475  29.716  0.00  0.00    +0.000 C 
ATOM      8  C   UNL     1      32.032  22.439  28.598  0.00  0.00    +0.000 C 
ATOM      9  O   UNL     1      32.728  23.431  28.395  0.00  0.00    +0.000 OA
ATOM     10  N   UNL     1      30.959  22.196  27.870  0.00  0.00    +0.000 NA
ENDBRANCH   1  10
BRANCH   6  11
ATOM     11  C   UNL     1      31.277  23.511  24.886  0.00  0.00    +0.000 C 
ATOM     12  N   UNL     1      31.769  24.843  24.978  0.00  0.00    +0.000 NA
ATOM     13  O   UNL     1      31.898  22.747  24.171  0.00  0.00    +0.000 OA
ENDBRANCH   6  11
BRANCH   3  14
ATOM     14  C   UNL     1      26.308  22.793  25.306  0.00  0.00    +0.000 C 
BRANCH  14  15
ATOM     15  C   UNL     1      25.662  24.003  25.771  0.00  0.00    +0.000 A 
ATOM     16  C   UNL     1      25.328  24.976  24.854  0.00  0.00    +0.000 A 
ATOM     17  C   UNL     1      24.695  26.137  25.245  0.00  0.00    +0.000 A 
ATOM     18  C   UNL     1      24.368  26.381  26.559  0.00  0.00    +0.000 A 
ATOM     19  C   UNL     1      24.699  25.410  27.481  0.00  0.00    +0.000 A 
ATOM     20  C   UNL     1      25.331  24.250  27.092  0.00  0.00    +0.000 A 
ENDBRANCH  14  15
ENDBRANCH   3  14
TORSDOF 4
ENDMDL
MODEL 7
REMARK VINA RESULT:      -5.5      4.186      7.190
REMARK  Name = 
REMARK  4 active torsions:
REMARK  status: ('A' for Active; 'I' for Inactive)
REMARK    1  A    between atoms: N_4  and  C_5
REMARK    2  A    between atoms: C_7  and  C_8
REMARK    3  A    between atoms: C_8  and  C_9
REMARK    4  A    between atoms: C_17  and  C_18
REMARK                            x       y       z     vdW  Elec       q    Type
REMARK                         _______ _______ _______ _____ _____    ______ ____
ROOT
ATOM      1  C   UNL     1      26.176  24.233  27.694  0.00  0.00    +0.000 A 
ATOM      2  S   UNL     1      27.083  23.408  26.440  0.00  0.00    +0.000 S 
ATOM      3  C   UNL     1      28.304  22.707  27.381  0.00  0.00    +0.000 A 
ATOM      4  C   UNL     1      27.990  23.121  28.638  0.00  0.00    +0.000 A 
ATOM      5  C   UNL     1      28.896  22.675  29.801  0.00  0.00    +0.000 C 
ATOM      6  C   UNL     1      26.889  23.910  28.799  0.00  0.00    +0.000 A 
ENDROOT
BRANCH   1  10
ATOM      7  C   UNL     1      23.123  26.120  26.383  0.00  0.00    +0.000 C 
ATOM      8  C   UNL     1      24.109  25.779  27.498  0.00  0.00    +0.000 C 
ATOM      9  O   UNL     1      23.975  26.311  28.597  0.00  0.00    +0.000 OA
ATOM     10  N   UNL     1      25.086  24.923  27.269  0.00  0.00    +0.000 NA
ENDBRANCH   1  10
BRANCH   6  11
ATOM     11  C   UNL     1      26.529  24.372  30.159  0.00  0.00    +0.000 C 
ATOM     12  N   UNL     1      26.937  25.640  30.659  0.00  0.00    +0.000 NA
ATOM     13  O   UNL     1      25.865  23.678  30.905  0.00  0.00    +0.000 OA
ENDBRANCH   6  11
BRANCH   3  14
ATOM     14  C   UNL     1      29.442  21.845  26.916  0.00  0.00    +0.000 C 
BRANCH  14  15
ATOM     15  C   UNL     1      30.464  22.649  26.280  0.00  0.00    +0.000 A 
ATOM     16  C   UNL     1      31.332  23.374  27.069  0.00  0.00    +0.000 A 
ATOM     17  C   UNL     1      32.333  24.139  26.510  0.00  0.00    +0.000 A 
ATOM     18  C   UNL     1      32.517  24.217  25.150  0.00  0.00    +0.000 A 
ATOM     19  C   UNL     1      31.653  23.494  24.355  0.00  0.00    +0.000 A 
ATOM     20  C   UNL     1      30.651  22.729  24.911  0.00  0.00    +0.000 A 
ENDBRANCH  14  15
ENDBRANCH   3  14
TORSDOF 4
ENDMDL
MODEL 8
REMARK VINA RESULT:      -5.5      3.946      5.887
REMARK  Name = 
REMARK  4 active torsions:
REMARK  status: ('A' for Active; 'I' for Inactive)
REMARK    1  A    between atoms: N_4  and  C_5
REMARK    2  A    between atoms: C_7  and  C_8
REMARK    3  A    between atoms: C_8  and  C_9
REMARK    4  A    between atoms: C_17  and  C_18
REMARK                            x       y       z     vdW  Elec       q    Type
REMARK                         _______ _______ _______ _____ _____    ______ ____
ROOT
ATOM      1  C   UNL     1      28.373  23.031  28.692  0.00  0.00    +0.000 A 
ATOM      2  S   UNL     1      28.444  22.357  27.074  0.00  0.00    +0.000 S 
ATOM      3  C   UNL     1      27.036  23.031  26.419  0.00  0.00    +0.000 A 
ATOM      4  C   UNL     1      26.540  23.759  27.455  0.00  0.00    +0.000 A 
ATOM      5  C   UNL     1      25.229  24.538  27.238  0.00  0.00    +0.000 C 
ATOM      6  C   UNL     1      27.232  23.758  28.630  0.00  0.00    +0.000 A 
ENDROOT
BRANCH   1  10
ATOM      7  C   UNL     1      31.297  21.981  30.916  0.00  0.00    +0.000 C 
ATOM      8  C   UNL     1      29.960  22.688  30.708  0.00  0.00    +0.000 C 
ATOM      9  O   UNL     1      29.432  23.259  31.660  0.00  0.00    +0.000 OA
ATOM     10  N   UNL     1      29.393  22.678  29.518  0.00  0.00    +0.000 NA
ENDBRANCH   1  10
BRANCH   6  11
ATOM     11  C   UNL     1      26.711  24.544  29.772  0.00  0.00    +0.000 C 
ATOM     12  N   UNL     1      25.887  23.963  30.776  0.00  0.00    +0.000 NA
ATOM     13  O   UNL     1      26.969  25.727  29.893  0.00  0.00    +0.000 OA
ENDBRANCH   6  11
BRANCH   3  14
ATOM     14  C   UNL     1      26.492  22.851  25.031  0.00  0.00    +0.000 C 
BRANCH  14  15
ATOM     15  C   UNL     1      27.189  23.707  24.094  0.00  0.00    +0.000 A 
ATOM     16  C   UNL     1      28.277  23.204  23.412  0.00  0.00    +0.000 A 
ATOM     17  C   UNL     1      28.961  23.975  22.496  0.00  0.00    +0.000 A 
ATOM     18  C   UNL     1      28.597  25.272  22.218  0.00  0.00    +0.000 A 
ATOM     19  C   UNL     1      27.509  25.780  22.897  0.00  0.00    +0.000 A 
ATOM     20  C   UNL     1      26.824  25.012  23.813  0.00  0.00    +0.000 A 
ENDBRANCH  14  15
ENDBRANCH   3  14
TORSDOF 4
ENDMDL
MODEL 9
REMARK VINA RESULT:      -5.5      4.158      7.162
REMARK  Name = 
REMARK  4 active torsions:
REMARK  status: ('A' for Active; 'I' for Inactive)
REMARK    1  A    between atoms: N_4  and  C_5
REMARK    2  A    between atoms: C_7  and  C_8
REMARK    3  A    between atoms: C_8  and  C_9
REMARK    4  A    between atoms: C_17  and  C_18
REMARK                            x       y       z     vdW  Elec       q    Type
REMARK                         _______ _______ _______ _____ _____    ______ ____
ROOT
ATOM      1  C   UNL     1      25.651  24.696  28.355  0.00  0.00    +0.000 A 
ATOM      2  S   UNL     1      25.795  24.764  26.608  0.00  0.00    +0.000 S 
ATOM      3  C   UNL     1      26.912  23.516  26.362  0.00  0.00    +0.000 A 
ATOM      4  C   UNL     1      27.152  23.072  27.625  0.00  0.00    +0.000 A 
ATOM      5  C   UNL     1      28.144  21.910  27.815  0.00  0.00    +0.000 C 
ATOM      6  C   UNL     1      26.499  23.684  28.655  0.00  0.00    +0.000 A 
ENDROOT
BRANCH   1  10
ATOM      7  C   UNL     1      23.225  27.275  29.790  0.00  0.00    +0.000 C 
ATOM      8  C   UNL     1      24.243  26.150  29.968  0.00  0.00    +0.000 C 
ATOM      9  O   UNL     1      24.529  25.777  31.103  0.00  0.00    +0.000 OA
ATOM     10  N   UNL     1      24.800  25.599  28.907  0.00  0.00    +0.000 NA
ENDBRANCH   1  10
BRANCH   6  11
ATOM     11  C   UNL     1      26.745  23.217  30.039  0.00  0.00    +0.000 C 
ATOM     12  N   UNL     1      25.997  22.158  30.624  0.00  0.00    +0.000 NA
ATOM     13  O   UNL     1      27.604  23.727  30.733  0.00  0.00    +0.000 OA
ENDBRANCH   6  11
BRANCH   3  14
ATOM     14  C   UNL     1      27.482  23.037  25.058  0.00  0.00    +0.000 C 
BRANCH  14  15
ATOM     15  C   UNL     1      28.844  23.498  24.895  0.00  0.00    +0.000 A 
ATOM     16  C   UNL     1      29.855  22.568  24.775  0.00  0.00    +0.000 A 
ATOM     17  C   UNL     1      31.165  22.959  24.600  0.00  0.00    +0.000 A 
ATOM     18  C   UNL     1      31.528  24.284  24.537  0.00  0.00    +0.000 A 
ATOM     19  C   UNL     1      30.522  25.219  24.656  0.00  0.00    +0.000 A 
ATOM     20  C   UNL     1      29.212  24.832  24.831  0.00  0.00    +0.000 A 
ENDBRANCH  14  15
ENDBRANCH   3  14
TORSDOF 4
ENDMDL
MODEL 10
REMARK VINA RESULT:      -5.4     13.089     15.607
REMARK  Name = 
REMARK  4 active torsions:
REMARK  status: ('A' for Active; 'I' for Inactive)
REMARK    1  A    between atoms: N_4  and  C_5
REMARK    2  A    between atoms: C_7  and  C_8
REMARK    3  A    between atoms: C_8  and  C_9
REMARK    4  A    between atoms: C_17  and  C_18
REMARK                            x       y       z     vdW  Elec       q    Type
REMARK                         _______ _______ _______ _____ _____    ______ ____
ROOT
ATOM      1  C   UNL     1      33.472  22.371   9.015  0.00  0.00    +0.000 A 
ATOM      2  S   UNL     1      32.995  22.223  10.696  0.00  0.00    +0.000 S 
ATOM      3  C   UNL     1      31.584  21.305  10.515  0.00  0.00    +0.000 A 
ATOM      4  C   UNL     1      31.507  21.132   9.169  0.00  0.00    +0.000 A 
ATOM      5  C   UNL     1      30.324  20.326   8.602  0.00  0.00    +0.000 C 
ATOM      6  C   UNL     1      32.485  21.684   8.394  0.00  0.00    +0.000 A 
ENDROOT
BRANCH   1  10
ATOM      7  C   UNL     1      36.713  24.264   8.302  0.00  0.00    +0.000 C 
ATOM      8  C   UNL     1      35.369  24.132   9.015  0.00  0.00    +0.000 C 
ATOM      9  O   UNL     1      35.015  25.017   9.791  0.00  0.00    +0.000 OA
ATOM     10  N   UNL     1      34.611  23.076   8.791  0.00  0.00    +0.000 NA
ENDBRANCH   1  10
BRANCH   6  11
ATOM     11  C   UNL     1      32.422  21.507   6.925  0.00  0.00    +0.000 C 
ATOM     12  N   UNL     1      33.102  20.448   6.261  0.00  0.00    +0.000 NA
ATOM     13  O   UNL     1      31.780  22.268   6.225  0.00  0.00    +0.000 OA
ENDBRANCH   6  11
BRANCH   3  14
ATOM     14  C   UNL     1      30.661  20.818  11.595  0.00  0.00    +0.000 C 
BRANCH  14  15
ATOM     15  C   UNL     1      29.795  21.886  12.048  0.00  0.00    +0.000 A 
ATOM     16  C   UNL     1      28.621  22.129  11.367  0.00  0.00    +0.000 A 
ATOM     17  C   UNL     1      27.755  23.123  11.772  0.00  0.00    +0.000 A 
ATOM     18  C   UNL     1      28.016  23.915  12.865  0.00  0.00    +0.000 A 
ATOM     19  C   UNL     1      29.188  23.676  13.551  0.00  0.00    +0.000 A 
ATOM     20  C   UNL     1      30.055  22.684  13.149  0.00  0.00    +0.000 A 
ENDBRANCH  14  15
ENDBRANCH   3  14
TORSDOF 4
ENDMDL
