MODEL 1
REMARK VINA RESULT:      -7.4      0.000      0.000
REMARK  Name = 
REMARK  4 active torsions:
REMARK  status: ('A' for Active; 'I' for Inactive)
REMARK    1  A    between atoms: C_2  and  O_3
REMARK    2  A    between atoms: O_3  and  C_4
REMARK    3  A    between atoms: C_4  and  C_6
REMARK    4  A    between atoms: C_8  and  C_9
REMARK                            x       y       z     vdW  Elec       q    Type
REMARK                         _______ _______ _______ _____ _____    ______ ____
ROOT
ATOM      1  C   UNL     1      14.816  12.555  32.879  0.00  0.00    +0.000 A 
ATOM      2  N   UNL     1      15.299  11.916  33.965  0.00  0.00    +0.000 NA
ATOM      3  C   UNL     1      14.969  12.295  35.212  0.00  0.00    +0.000 A 
ATOM      4  C   UNL     1      14.116  13.366  35.366  0.00  0.00    +0.000 A 
ATOM      5  N   UNL     1      13.617  14.025  34.312  0.00  0.00    +0.000 N 
ATOM      6  O   UNL     1      12.778  15.076  34.533  0.00  0.00    +0.000 OA
ATOM      7  C   UNL     1      13.966  13.620  33.085  0.00  0.00    +0.000 A 
ATOM      8  N   UNL     1      13.456  14.296  31.937  0.00  0.00    +0.000 NA
ENDROOT
BRANCH   3   9
ATOM      9  C   UNL     1      15.494  11.600  36.395  0.00  0.00    +0.000 A 
ATOM     10  C   UNL     1      16.767  11.074  36.390  0.00  0.00    +0.000 A 
ATOM     11  C   UNL     1      17.263  10.416  37.511  0.00  0.00    +0.000 A 
ATOM     12  C   UNL     1      16.512  10.265  38.658  0.00  0.00    +0.000 A 
ATOM     13  C   UNL     1      17.060   9.556  39.851  0.00  0.00    +0.000 C 
ATOM     14  C   UNL     1      15.239  10.796  38.653  0.00  0.00    +0.000 A 
ATOM     15  C   UNL     1      14.740  11.452  37.539  0.00  0.00    +0.000 A 
ENDBRANCH   3   9
BRANCH   1  16
ATOM     16  C   UNL     1      15.193  12.118  31.541  0.00  0.00    +0.000 C 
ATOM     17  O   UNL     1      14.414  11.457  30.815  0.00  0.00    +0.000 OA
BRANCH  16  18
ATOM     18  O   UNL     1      16.443  12.430  31.035  0.00  0.00    +0.000 OA
BRANCH  18  20
ATOM     19  C   UNL     1      16.271  14.726  30.368  0.00  0.00    +0.000 C 
ATOM     20  C   UNL     1      16.642  13.320  29.952  0.00  0.00    +0.000 C 
ENDBRANCH  18  20
ENDBRANCH  16  18
ENDBRANCH   1  16
TORSDOF 4
ENDMDL
MODEL 2
REMARK VINA RESULT:      -6.6     21.338     22.910
REMARK  Name = 
REMARK  4 active torsions:
REMARK  status: ('A' for Active; 'I' for Inactive)
REMARK    1  A    between atoms: C_2  and  O_3
REMARK    2  A    between atoms: O_3  and  C_4
REMARK    3  A    between atoms: C_4  and  C_6
REMARK    4  A    between atoms: C_8  and  C_9
REMARK                            x       y       z     vdW  Elec       q    Type
REMARK                         _______ _______ _______ _____ _____    ______ ____
ROOT
ATOM      1  C   UNL     1      18.818  -7.943  26.671  0.00  0.00    +0.000 A 
ATOM      2  N   UNL     1      20.030  -8.115  26.103  0.00  0.00    +0.000 NA
ATOM      3  C   UNL     1      20.731  -7.081  25.606  0.00  0.00    +0.000 A 
ATOM      4  C   UNL     1      20.181  -5.820  25.686  0.00  0.00    +0.000 A 
ATOM      5  N   UNL     1      18.981  -5.610  26.243  0.00  0.00    +0.000 N 
ATOM      6  O   UNL     1      18.494  -4.338  26.291  0.00  0.00    +0.000 OA
ATOM      7  C   UNL     1      18.311  -6.662  26.728  0.00  0.00    +0.000 A 
ATOM      8  N   UNL     1      17.030  -6.480  27.327  0.00  0.00    +0.000 NA
ENDROOT
BRANCH   3   9
ATOM      9  C   UNL     1      22.050  -7.267  24.988  0.00  0.00    +0.000 A 
ATOM     10  C   UNL     1      22.613  -8.521  24.907  0.00  0.00    +0.000 A 
ATOM     11  C   UNL     1      23.863  -8.697  24.321  0.00  0.00    +0.000 A 
ATOM     12  C   UNL     1      24.580  -7.637  23.804  0.00  0.00    +0.000 A 
ATOM     13  C   UNL     1      25.919  -7.844  23.180  0.00  0.00    +0.000 C 
ATOM     14  C   UNL     1      24.007  -6.385  23.891  0.00  0.00    +0.000 A 
ATOM     15  C   UNL     1      22.762  -6.206  24.473  0.00  0.00    +0.000 A 
ENDBRANCH   3   9
BRANCH   1  16
ATOM     16  C   UNL     1      18.086  -9.086  27.200  0.00  0.00    +0.000 C 
ATOM     17  O   UNL     1      17.459  -9.875  26.454  0.00  0.00    +0.000 OA
BRANCH  16  18
ATOM     18  O   UNL     1      18.068  -9.329  28.562  0.00  0.00    +0.000 OA
BRANCH  18  20
ATOM     19  C   UNL     1      18.943  -9.601  30.777  0.00  0.00    +0.000 C 
ATOM     20  C   UNL     1      19.209  -9.735  29.294  0.00  0.00    +0.000 C 
ENDBRANCH  18  20
ENDBRANCH  16  18
ENDBRANCH   1  16
TORSDOF 4
ENDMDL
MODEL 3
REMARK VINA RESULT:      -6.5     21.401     22.899
REMARK  Name = 
REMARK  4 active torsions:
REMARK  status: ('A' for Active; 'I' for Inactive)
REMARK    1  A    between atoms: C_2  and  O_3
REMARK    2  A    between atoms: O_3  and  C_4
REMARK    3  A    between atoms: C_4  and  C_6
REMARK    4  A    between atoms: C_8  and  C_9
REMARK                            x       y       z     vdW  Elec       q    Type
REMARK                         _______ _______ _______ _____ _____    ______ ____
ROOT
ATOM      1  C   UNL     1      18.558  -8.003  26.456  0.00  0.00    +0.000 A 
ATOM      2  N   UNL     1      19.786  -8.165  25.922  0.00  0.00    +0.000 NA
ATOM      3  C   UNL     1      20.549  -7.114  25.573  0.00  0.00    +0.000 A 
ATOM      4  C   UNL     1      20.046  -5.846  25.773  0.00  0.00    +0.000 A 
ATOM      5  N   UNL     1      18.832  -5.646  26.302  0.00  0.00    +0.000 N 
ATOM      6  O   UNL     1      18.394  -4.368  26.474  0.00  0.00    +0.000 OA
ATOM      7  C   UNL     1      18.100  -6.716  26.638  0.00  0.00    +0.000 A 
ATOM      8  N   UNL     1      16.802  -6.545  27.202  0.00  0.00    +0.000 NA
ENDROOT
BRANCH   3   9
ATOM      9  C   UNL     1      21.886  -7.288  24.991  0.00  0.00    +0.000 A 
ATOM     10  C   UNL     1      22.571  -6.208  24.478  0.00  0.00    +0.000 A 
ATOM     11  C   UNL     1      23.838  -6.374  23.927  0.00  0.00    +0.000 A 
ATOM     12  C   UNL     1      24.452  -7.608  23.872  0.00  0.00    +0.000 A 
ATOM     13  C   UNL     1      25.811  -7.767  23.278  0.00  0.00    +0.000 C 
ATOM     14  C   UNL     1      23.758  -8.682  24.389  0.00  0.00    +0.000 A 
ATOM     15  C   UNL     1      22.496  -8.522  24.939  0.00  0.00    +0.000 A 
ENDBRANCH   3   9
BRANCH   1  16
ATOM     16  C   UNL     1      17.758  -9.164  26.823  0.00  0.00    +0.000 C 
ATOM     17  O   UNL     1      17.867  -9.718  27.943  0.00  0.00    +0.000 OA
BRANCH  16  18
ATOM     18  O   UNL     1      16.844  -9.689  25.927  0.00  0.00    +0.000 OA
BRANCH  18  20
ATOM     19  C   UNL     1      14.713  -8.757  25.346  0.00  0.00    +0.000 C 
ATOM     20  C   UNL     1      15.455  -9.769  26.190  0.00  0.00    +0.000 C 
ENDBRANCH  18  20
ENDBRANCH  16  18
ENDBRANCH   1  16
TORSDOF 4
ENDMDL
MODEL 4
REMARK VINA RESULT:      -6.4     28.273     30.867
REMARK  Name = 
REMARK  4 active torsions:
REMARK  status: ('A' for Active; 'I' for Inactive)
REMARK    1  A    between atoms: C_2  and  O_3
REMARK    2  A    between atoms: O_3  and  C_4
REMARK    3  A    between atoms: C_4  and  C_6
REMARK    4  A    between atoms: C_8  and  C_9
REMARK                            x       y       z     vdW  Elec       q    Type
REMARK                         _______ _______ _______ _____ _____    ______ ____
ROOT
ATOM      1  C   UNL     1      31.754  20.564   8.316  0.00  0.00    +0.000 A 
ATOM      2  N   UNL     1      30.863  21.187   9.116  0.00  0.00    +0.000 NA
ATOM      3  C   UNL     1      31.074  21.321  10.437  0.00  0.00    +0.000 A 
ATOM      4  C   UNL     1      32.234  20.802  10.971  0.00  0.00    +0.000 A 
ATOM      5  N   UNL     1      33.141  20.178  10.208  0.00  0.00    +0.000 N 
ATOM      6  O   UNL     1      34.267  19.688  10.797  0.00  0.00    +0.000 OA
ATOM      7  C   UNL     1      32.899  20.062   8.896  0.00  0.00    +0.000 A 
ATOM      8  N   UNL     1      33.840  19.403   8.051  0.00  0.00    +0.000 NA
ENDROOT
BRANCH   3   9
ATOM      9  C   UNL     1      30.106  21.999  11.309  0.00  0.00    +0.000 A 
ATOM     10  C   UNL     1      28.774  22.060  10.962  0.00  0.00    +0.000 A 
ATOM     11  C   UNL     1      27.858  22.702  11.788  0.00  0.00    +0.000 A 
ATOM     12  C   UNL     1      28.238  23.297  12.973  0.00  0.00    +0.000 A 
ATOM     13  C   UNL     1      27.242  23.981  13.848  0.00  0.00    +0.000 C 
ATOM     14  C   UNL     1      29.574  23.230  13.313  0.00  0.00    +0.000 A 
ATOM     15  C   UNL     1      30.491  22.591  12.492  0.00  0.00    +0.000 A 
ENDBRANCH   3   9
BRANCH   1  16
ATOM     16  C   UNL     1      31.494  20.436   6.888  0.00  0.00    +0.000 C 
ATOM     17  O   UNL     1      31.863  21.309   6.066  0.00  0.00    +0.000 OA
BRANCH  16  18
ATOM     18  O   UNL     1      30.824  19.328   6.400  0.00  0.00    +0.000 OA
BRANCH  18  20
ATOM     19  C   UNL     1      29.240  18.028   5.157  0.00  0.00    +0.000 C 
ATOM     20  C   UNL     1      29.678  19.415   5.574  0.00  0.00    +0.000 C 
ENDBRANCH  18  20
ENDBRANCH  16  18
ENDBRANCH   1  16
TORSDOF 4
ENDMDL
MODEL 5
REMARK VINA RESULT:      -6.4     16.145     18.905
REMARK  Name = 
REMARK  4 active torsions:
REMARK  status: ('A' for Active; 'I' for Inactive)
REMARK    1  A    between atoms: C_2  and  O_3
REMARK    2  A    between atoms: O_3  and  C_4
REMARK    3  A    between atoms: C_4  and  C_6
REMARK    4  A    between atoms: C_8  and  C_9
REMARK                            x       y       z     vdW  Elec       q    Type
REMARK                         _______ _______ _______ _____ _____    ______ ____
ROOT
ATOM      1  C   UNL     1      27.374  22.718  29.392  0.00  0.00    +0.000 A 
ATOM      2  N   UNL     1      26.990  22.887  28.110  0.00  0.00    +0.000 NA
ATOM      3  C   UNL     1      27.883  22.940  27.106  0.00  0.00    +0.000 A 
ATOM      4  C   UNL     1      29.221  22.817  27.414  0.00  0.00    +0.000 A 
ATOM      5  N   UNL     1      29.640  22.648  28.675  0.00  0.00    +0.000 N 
ATOM      6  O   UNL     1      30.977  22.532  28.911  0.00  0.00    +0.000 OA
ATOM      7  C   UNL     1      28.724  22.600  29.649  0.00  0.00    +0.000 A 
ATOM      8  N   UNL     1      29.130  22.422  31.004  0.00  0.00    +0.000 NA
ENDROOT
BRANCH   3   9
ATOM      9  C   UNL     1      27.467  23.124  25.710  0.00  0.00    +0.000 A 
ATOM     10  C   UNL     1      28.404  23.344  24.724  0.00  0.00    +0.000 A 
ATOM     11  C   UNL     1      28.009  23.518  23.401  0.00  0.00    +0.000 A 
ATOM     12  C   UNL     1      26.682  23.477  23.027  0.00  0.00    +0.000 A 
ATOM     13  C   UNL     1      26.276  23.666  21.603  0.00  0.00    +0.000 C 
ATOM     14  C   UNL     1      25.752  23.256  24.021  0.00  0.00    +0.000 A 
ATOM     15  C   UNL     1      26.141  23.082  25.340  0.00  0.00    +0.000 A 
ENDBRANCH   3   9
BRANCH   1  16
ATOM     16  C   UNL     1      26.380  22.666  30.456  0.00  0.00    +0.000 C 
ATOM     17  O   UNL     1      25.845  21.589  30.810  0.00  0.00    +0.000 OA
BRANCH  16  18
ATOM     18  O   UNL     1      26.001  23.825  31.110  0.00  0.00    +0.000 OA
BRANCH  18  20
ATOM     19  C   UNL     1      25.040  25.653  29.894  0.00  0.00    +0.000 C 
ATOM     20  C   UNL     1      26.263  25.122  30.607  0.00  0.00    +0.000 C 
ENDBRANCH  18  20
ENDBRANCH  16  18
ENDBRANCH   1  16
TORSDOF 4
ENDMDL
MODEL 6
REMARK VINA RESULT:      -6.2     22.358     24.381
REMARK  Name = 
REMARK  4 active torsions:
REMARK  status: ('A' for Active; 'I' for Inactive)
REMARK    1  A    between atoms: C_2  and  O_3
REMARK    2  A    between atoms: O_3  and  C_4
REMARK    3  A    between atoms: C_4  and  C_6
REMARK    4  A    between atoms: C_8  and  C_9
REMARK                            x       y       z     vdW  Elec       q    Type
REMARK                         _______ _______ _______ _____ _____    ______ ____
ROOT
ATOM      1  C   UNL     1      33.597  -4.289  33.470  0.00  0.00    +0.000 A 
ATOM      2  N   UNL     1      33.479  -2.958  33.278  0.00  0.00    +0.000 NA
ATOM      3  C   UNL     1      34.015  -2.071  34.134  0.00  0.00    +0.000 A 
ATOM      4  C   UNL     1      34.698  -2.550  35.231  0.00  0.00    +0.000 A 
ATOM      5  N   UNL     1      34.837  -3.864  35.454  0.00  0.00    +0.000 N 
ATOM      6  O   UNL     1      35.525  -4.272  36.556  0.00  0.00    +0.000 OA
ATOM      7  C   UNL     1      34.290  -4.719  34.581  0.00  0.00    +0.000 A 
ATOM      8  N   UNL     1      34.415  -6.125  34.784  0.00  0.00    +0.000 NA
ENDROOT
BRANCH   3   9
ATOM      9  C   UNL     1      33.887  -0.623  33.926  0.00  0.00    +0.000 A 
ATOM     10  C   UNL     1      34.147  -0.068  32.692  0.00  0.00    +0.000 A 
ATOM     11  C   UNL     1      34.026   1.305  32.496  0.00  0.00    +0.000 A 
ATOM     12  C   UNL     1      33.647   2.155  33.514  0.00  0.00    +0.000 A 
ATOM     13  C   UNL     1      33.522   3.624  33.285  0.00  0.00    +0.000 C 
ATOM     14  C   UNL     1      33.389   1.589  34.746  0.00  0.00    +0.000 A 
ATOM     15  C   UNL     1      33.508   0.223  34.946  0.00  0.00    +0.000 A 
ENDBRANCH   3   9
BRANCH   1  16
ATOM     16  C   UNL     1      33.004  -5.223  32.523  0.00  0.00    +0.000 C 
ATOM     17  O   UNL     1      31.909  -5.792  32.750  0.00  0.00    +0.000 OA
BRANCH  16  18
ATOM     18  O   UNL     1      33.647  -5.507  31.331  0.00  0.00    +0.000 OA
BRANCH  18  20
ATOM     19  C   UNL     1      34.017  -5.617  28.966  0.00  0.00    +0.000 C 
ATOM     20  C   UNL     1      32.996  -5.492  30.074  0.00  0.00    +0.000 C 
ENDBRANCH  18  20
ENDBRANCH  16  18
ENDBRANCH   1  16
TORSDOF 4
ENDMDL
MODEL 7
REMARK VINA RESULT:      -6.1     28.231     30.912
REMARK  Name = 
REMARK  4 active torsions:
REMARK  status: ('A' for Active; 'I' for Inactive)
REMARK    1  A    between atoms: C_2  and  O_3
REMARK    2  A    between atoms: O_3  and  C_4
REMARK    3  A    between atoms: C_4  and  C_6
REMARK    4  A    between atoms: C_8  and  C_9
REMARK                            x       y       z     vdW  Elec       q    Type
REMARK                         _______ _______ _______ _____ _____    ______ ____
ROOT
ATOM      1  C   UNL     1      32.620  20.483   9.134  0.00  0.00    +0.000 A 
ATOM      2  N   UNL     1      31.564  21.107   9.696  0.00  0.00    +0.000 NA
ATOM      3  C   UNL     1      31.472  21.283  11.026  0.00  0.00    +0.000 A 
ATOM      4  C   UNL     1      32.493  20.806  11.820  0.00  0.00    +0.000 A 
ATOM      5  N   UNL     1      33.557  20.182  11.299  0.00  0.00    +0.000 N 
ATOM      6  O   UNL     1      34.532  19.734  12.139  0.00  0.00    +0.000 OA
ATOM      7  C   UNL     1      33.615  20.024   9.970  0.00  0.00    +0.000 A 
ATOM      8  N   UNL     1      34.731  19.364   9.377  0.00  0.00    +0.000 NA
ENDROOT
BRANCH   3   9
ATOM      9  C   UNL     1      30.324  21.962  11.639  0.00  0.00    +0.000 A 
ATOM     10  C   UNL     1      30.468  22.645  12.827  0.00  0.00    +0.000 A 
ATOM     11  C   UNL     1      29.379  23.289  13.407  0.00  0.00    +0.000 A 
ATOM     12  C   UNL     1      28.128  23.270  12.826  0.00  0.00    +0.000 A 
ATOM     13  C   UNL     1      26.971  23.965  13.462  0.00  0.00    +0.000 C 
ATOM     14  C   UNL     1      27.994  22.582  11.637  0.00  0.00    +0.000 A 
ATOM     15  C   UNL     1      29.076  21.940  11.055  0.00  0.00    +0.000 A 
ENDBRANCH   3   9
BRANCH   1  16
ATOM     16  C   UNL     1      32.687  20.310   7.689  0.00  0.00    +0.000 C 
ATOM     17  O   UNL     1      32.165  19.325   7.115  0.00  0.00    +0.000 OA
BRANCH  16  18
ATOM     18  O   UNL     1      33.340  21.245   6.907  0.00  0.00    +0.000 OA
BRANCH  18  20
ATOM     19  C   UNL     1      32.586  22.016   4.766  0.00  0.00    +0.000 C 
ATOM     20  C   UNL     1      32.674  22.307   6.248  0.00  0.00    +0.000 C 
ENDBRANCH  18  20
ENDBRANCH  16  18
ENDBRANCH   1  16
TORSDOF 4
ENDMDL
MODEL 8
REMARK VINA RESULT:      -6.1     17.700     19.596
REMARK  Name = 
REMARK  4 active torsions:
REMARK  status: ('A' for Active; 'I' for Inactive)
REMARK    1  A    between atoms: C_2  and  O_3
REMARK    2  A    between atoms: O_3  and  C_4
REMARK    3  A    between atoms: C_4  and  C_6
REMARK    4  A    between atoms: C_8  and  C_9
REMARK                            x       y       z     vdW  Elec       q    Type
REMARK                         _______ _______ _______ _____ _____    ______ ____
ROOT
ATOM      1  C   UNL     1      28.215  24.299  23.919  0.00  0.00    +0.000 A 
ATOM      2  N   UNL     1      27.723  24.681  25.116  0.00  0.00    +0.000 NA
ATOM      3  C   UNL     1      26.447  24.439  25.465  0.00  0.00    +0.000 A 
ATOM      4  C   UNL     1      25.636  23.783  24.565  0.00  0.00    +0.000 A 
ATOM      5  N   UNL     1      26.089  23.387  23.368  0.00  0.00    +0.000 N 
ATOM      6  O   UNL     1      25.235  22.743  22.525  0.00  0.00    +0.000 OA
ATOM      7  C   UNL     1      27.364  23.645  23.053  0.00  0.00    +0.000 A 
ATOM      8  N   UNL     1      27.884  23.241  21.789  0.00  0.00    +0.000 NA
ENDROOT
BRANCH   3   9
ATOM      9  C   UNL     1      25.910  24.855  26.767  0.00  0.00    +0.000 A 
ATOM     10  C   UNL     1      26.245  24.167  27.913  0.00  0.00    +0.000 A 
ATOM     11  C   UNL     1      25.736  24.562  29.147  0.00  0.00    +0.000 A 
ATOM     12  C   UNL     1      24.887  25.642  29.273  0.00  0.00    +0.000 A 
ATOM     13  C   UNL     1      24.351  26.051  30.603  0.00  0.00    +0.000 C 
ATOM     14  C   UNL     1      24.558  26.324  28.119  0.00  0.00    +0.000 A 
ATOM     15  C   UNL     1      25.063  25.935  26.888  0.00  0.00    +0.000 A 
ENDBRANCH   3   9
BRANCH   1  16
ATOM     16  C   UNL     1      29.602  24.577  23.572  0.00  0.00    +0.000 C 
ATOM     17  O   UNL     1      29.987  25.726  23.250  0.00  0.00    +0.000 OA
BRANCH  16  18
ATOM     18  O   UNL     1      30.541  23.561  23.593  0.00  0.00    +0.000 OA
BRANCH  18  20
ATOM     19  C   UNL     1      31.254  23.258  25.861  0.00  0.00    +0.000 C 
ATOM     20  C   UNL     1      30.637  22.613  24.640  0.00  0.00    +0.000 C 
ENDBRANCH  18  20
ENDBRANCH  16  18
ENDBRANCH   1  16
TORSDOF 4
ENDMDL
MODEL 9
REMARK VINA RESULT:      -5.9     17.502     19.699
REMARK  Name = 
REMARK  4 active torsions:
REMARK  status: ('A' for Active; 'I' for Inactive)
REMARK    1  A    between atoms: C_2  and  O_3
REMARK    2  A    between atoms: O_3  and  C_4
REMARK    3  A    between atoms: C_4  and  C_6
REMARK    4  A    between atoms: C_8  and  C_9
REMARK                            x       y       z     vdW  Elec       q    Type
REMARK                         _______ _______ _______ _____ _____    ______ ____
ROOT
ATOM      1  C   UNL     1      27.621  23.997  22.841  0.00  0.00    +0.000 A 
ATOM      2  N   UNL     1      27.954  23.871  24.143  0.00  0.00    +0.000 NA
ATOM      3  C   UNL     1      27.112  23.327  25.038  0.00  0.00    +0.000 A 
ATOM      4  C   UNL     1      25.880  22.893  24.598  0.00  0.00    +0.000 A 
ATOM      5  N   UNL     1      25.514  23.000  23.314  0.00  0.00    +0.000 N 
ATOM      6  O   UNL     1      24.283  22.551  22.943  0.00  0.00    +0.000 OA
ATOM      7  C   UNL     1      26.378  23.547  22.449  0.00  0.00    +0.000 A 
ATOM      8  N   UNL     1      26.025  23.680  21.074  0.00  0.00    +0.000 NA
ENDROOT
BRANCH   3   9
ATOM      9  C   UNL     1      27.473  23.189  26.455  0.00  0.00    +0.000 A 
ATOM     10  C   UNL     1      28.737  22.777  26.817  0.00  0.00    +0.000 A 
ATOM     11  C   UNL     1      29.079  22.647  28.160  0.00  0.00    +0.000 A 
ATOM     12  C   UNL     1      28.180  22.921  29.170  0.00  0.00    +0.000 A 
ATOM     13  C   UNL     1      28.564  22.775  30.604  0.00  0.00    +0.000 C 
ATOM     14  C   UNL     1      26.917  23.333  28.797  0.00  0.00    +0.000 A 
ATOM     15  C   UNL     1      26.572  23.464  27.460  0.00  0.00    +0.000 A 
ENDBRANCH   3   9
BRANCH   1  16
ATOM     16  C   UNL     1      28.558  24.592  21.897  0.00  0.00    +0.000 C 
ATOM     17  O   UNL     1      29.452  23.916  21.335  0.00  0.00    +0.000 OA
BRANCH  16  18
ATOM     18  O   UNL     1      28.478  25.940  21.595  0.00  0.00    +0.000 OA
BRANCH  18  20
ATOM     19  C   UNL     1      28.837  27.927  20.305  0.00  0.00    +0.000 C 
ATOM     20  C   UNL     1      29.411  26.606  20.766  0.00  0.00    +0.000 C 
ENDBRANCH  18  20
ENDBRANCH  16  18
ENDBRANCH   1  16
TORSDOF 4
ENDMDL
MODEL 10
REMARK VINA RESULT:      -5.8     23.418     25.474
REMARK  Name = 
REMARK  4 active torsions:
REMARK  status: ('A' for Active; 'I' for Inactive)
REMARK    1  A    between atoms: C_2  and  O_3
REMARK    2  A    between atoms: O_3  and  C_4
REMARK    3  A    between atoms: C_4  and  C_6
REMARK    4  A    between atoms: C_8  and  C_9
REMARK                            x       y       z     vdW  Elec       q    Type
REMARK                         _______ _______ _______ _____ _____    ______ ____
ROOT
ATOM      1  C   UNL     1      33.604  -2.849  34.598  0.00  0.00    +0.000 A 
ATOM      2  N   UNL     1      33.598  -3.455  33.392  0.00  0.00    +0.000 NA
ATOM      3  C   UNL     1      34.169  -4.657  33.201  0.00  0.00    +0.000 A 
ATOM      4  C   UNL     1      34.774  -5.272  34.277  0.00  0.00    +0.000 A 
ATOM      5  N   UNL     1      34.800  -4.702  35.489  0.00  0.00    +0.000 N 
ATOM      6  O   UNL     1      35.413  -5.363  36.511  0.00  0.00    +0.000 OA
ATOM      7  C   UNL     1      34.221  -3.505  35.643  0.00  0.00    +0.000 A 
ATOM      8  N   UNL     1      34.229  -2.865  36.917  0.00  0.00    +0.000 NA
ENDROOT
BRANCH   3   9
ATOM      9  C   UNL     1      34.163  -5.317  31.890  0.00  0.00    +0.000 A 
ATOM     10  C   UNL     1      35.079  -6.305  31.599  0.00  0.00    +0.000 A 
ATOM     11  C   UNL     1      35.071  -6.930  30.356  0.00  0.00    +0.000 A 
ATOM     12  C   UNL     1      34.161  -6.592  29.377  0.00  0.00    +0.000 A 
ATOM     13  C   UNL     1      34.168  -7.273  28.049  0.00  0.00    +0.000 C 
ATOM     14  C   UNL     1      33.248  -5.602  29.678  0.00  0.00    +0.000 A 
ATOM     15  C   UNL     1      33.251  -4.977  30.915  0.00  0.00    +0.000 A 
ENDBRANCH   3   9
BRANCH   1  16
ATOM     16  C   UNL     1      32.976  -1.546  34.769  0.00  0.00    +0.000 C 
ATOM     17  O   UNL     1      31.778  -1.429  35.119  0.00  0.00    +0.000 OA
BRANCH  16  18
ATOM     18  O   UNL     1      33.702  -0.390  34.547  0.00  0.00    +0.000 OA
BRANCH  18  20
ATOM     19  C   UNL     1      34.379   0.314  32.358  0.00  0.00    +0.000 C 
ATOM     20  C   UNL     1      33.412   0.521  33.502  0.00  0.00    +0.000 C 
ENDBRANCH  18  20
ENDBRANCH  16  18
ENDBRANCH   1  16
TORSDOF 4
ENDMDL
