MODEL 1
REMARK VINA RESULT:      -6.9      0.000      0.000
REMARK  Name = 
REMARK  3 active torsions:
REMARK  status: ('A' for Active; 'I' for Inactive)
REMARK    1  A    between atoms: C_2  and  O_3
REMARK    2  A    between atoms: O_3  and  C_4
REMARK    3  A    between atoms: C_4  and  C_6
REMARK                            x       y       z     vdW  Elec       q    Type
REMARK                         _______ _______ _______ _____ _____    ______ ____
ROOT
ATOM      1  C   UNL     1      27.677  22.656  29.655  0.00  0.00    +0.000 A 
ATOM      2  C   UNL     1      29.004  22.618  30.079  0.00  0.00    +0.000 A 
ATOM      3  C   UNL     1      29.458  22.509  31.485  0.00  0.00    +0.000 C 
ATOM      4  N   UNL     1      29.818  22.698  28.997  0.00  0.00    +0.000 N 
ATOM      5  C   UNL     1      31.269  22.692  29.021  0.00  0.00    +0.000 C 
ATOM      6  C   UNL     1      29.079  22.788  27.877  0.00  0.00    +0.000 A 
ATOM      7  C   UNL     1      27.757  22.762  28.280  0.00  0.00    +0.000 A 
ATOM      8  C   UNL     1      26.769  22.839  27.321  0.00  0.00    +0.000 A 
ATOM      9  C   UNL     1      27.072  22.943  25.959  0.00  0.00    +0.000 A 
ATOM     10  O   UNL     1      26.022  23.016  25.052  0.00  0.00    +0.000 OA
ATOM     11  C   UNL     1      28.401  22.968  25.574  0.00  0.00    +0.000 A 
ATOM     12  C   UNL     1      28.715  23.070  24.235  0.00  0.00    +0.000 A 
ATOM     13  C   UNL     1      30.052  23.095  23.833  0.00  0.00    +0.000 A 
ATOM     14  C   UNL     1      31.056  23.020  24.767  0.00  0.00    +0.000 A 
ATOM     15  C   UNL     1      30.706  22.918  26.098  0.00  0.00    +0.000 A 
ATOM     16  C   UNL     1      29.400  22.890  26.537  0.00  0.00    +0.000 A 
ENDROOT
BRANCH   1  17
ATOM     17  C   UNL     1      26.479  22.597  30.490  0.00  0.00    +0.000 C 
ATOM     18  O   UNL     1      25.869  21.557  30.771  0.00  0.00    +0.000 OA
BRANCH  17  19
ATOM     19  O   UNL     1      26.004  23.802  30.997  0.00  0.00    +0.000 OA
BRANCH  19  21
ATOM     20  C   UNL     1      25.172  25.442  29.530  0.00  0.00    +0.000 C 
ATOM     21  C   UNL     1      26.303  25.055  30.479  0.00  0.00    +0.000 C 
ENDBRANCH  19  21
ENDBRANCH  17  19
ENDBRANCH   1  17
TORSDOF 3
ENDMDL
MODEL 2
REMARK VINA RESULT:      -6.4     18.150     20.385
REMARK  Name = 
REMARK  3 active torsions:
REMARK  status: ('A' for Active; 'I' for Inactive)
REMARK    1  A    between atoms: C_2  and  O_3
REMARK    2  A    between atoms: O_3  and  C_4
REMARK    3  A    between atoms: C_4  and  C_6
REMARK                            x       y       z     vdW  Elec       q    Type
REMARK                         _______ _______ _______ _____ _____    ______ ____
ROOT
ATOM      1  C   UNL     1      17.194   9.593  39.573  0.00  0.00    +0.000 A 
ATOM      2  C   UNL     1      18.401   9.300  38.941  0.00  0.00    +0.000 A 
ATOM      3  C   UNL     1      19.564   8.628  39.568  0.00  0.00    +0.000 C 
ATOM      4  N   UNL     1      18.344   9.727  37.655  0.00  0.00    +0.000 N 
ATOM      5  C   UNL     1      19.403   9.607  36.669  0.00  0.00    +0.000 C 
ATOM      6  C   UNL     1      17.146  10.291  37.416  0.00  0.00    +0.000 A 
ATOM      7  C   UNL     1      16.435  10.209  38.599  0.00  0.00    +0.000 A 
ATOM      8  C   UNL     1      15.154  10.718  38.639  0.00  0.00    +0.000 A 
ATOM      9  C   UNL     1      14.563  11.312  37.518  0.00  0.00    +0.000 A 
ATOM     10  O   UNL     1      13.268  11.803  37.635  0.00  0.00    +0.000 OA
ATOM     11  C   UNL     1      15.290  11.386  36.343  0.00  0.00    +0.000 A 
ATOM     12  C   UNL     1      14.720  11.968  35.231  0.00  0.00    +0.000 A 
ATOM     13  C   UNL     1      15.443  12.048  34.038  0.00  0.00    +0.000 A 
ATOM     14  C   UNL     1      16.721  11.549  33.970  0.00  0.00    +0.000 A 
ATOM     15  C   UNL     1      17.261  10.973  35.102  0.00  0.00    +0.000 A 
ATOM     16  C   UNL     1      16.581  10.874  36.298  0.00  0.00    +0.000 A 
ENDROOT
BRANCH   1  17
ATOM     17  C   UNL     1      16.829   9.306  40.959  0.00  0.00    +0.000 C 
ATOM     18  O   UNL     1      17.112  10.027  41.924  0.00  0.00    +0.000 OA
BRANCH  17  19
ATOM     19  O   UNL     1      16.113   8.137  41.193  0.00  0.00    +0.000 OA
BRANCH  19  21
ATOM     20  C   UNL     1      17.255   6.082  41.080  0.00  0.00    +0.000 C 
ATOM     21  C   UNL     1      16.550   7.084  41.988  0.00  0.00    +0.000 C 
ENDBRANCH  19  21
ENDBRANCH  17  19
ENDBRANCH   1  17
TORSDOF 3
ENDMDL
MODEL 3
REMARK VINA RESULT:      -6.3     17.140     19.805
REMARK  Name = 
REMARK  3 active torsions:
REMARK  status: ('A' for Active; 'I' for Inactive)
REMARK    1  A    between atoms: C_2  and  O_3
REMARK    2  A    between atoms: O_3  and  C_4
REMARK    3  A    between atoms: C_4  and  C_6
REMARK                            x       y       z     vdW  Elec       q    Type
REMARK                         _______ _______ _______ _____ _____    ______ ____
ROOT
ATOM      1  C   UNL     1      18.647  10.337  38.009  0.00  0.00    +0.000 A 
ATOM      2  C   UNL     1      18.307   9.818  39.256  0.00  0.00    +0.000 A 
ATOM      3  C   UNL     1      19.252   9.229  40.233  0.00  0.00    +0.000 C 
ATOM      4  N   UNL     1      16.968   9.937  39.437  0.00  0.00    +0.000 N 
ATOM      5  C   UNL     1      16.224   9.513  40.609  0.00  0.00    +0.000 C 
ATOM      6  C   UNL     1      16.412  10.515  38.356  0.00  0.00    +0.000 A 
ATOM      7  C   UNL     1      17.447  10.763  37.473  0.00  0.00    +0.000 A 
ATOM      8  C   UNL     1      17.159  11.360  36.264  0.00  0.00    +0.000 A 
ATOM      9  C   UNL     1      15.852  11.717  35.913  0.00  0.00    +0.000 A 
ATOM     10  O   UNL     1      15.640  12.315  34.676  0.00  0.00    +0.000 OA
ATOM     11  C   UNL     1      14.829  11.461  36.809  0.00  0.00    +0.000 A 
ATOM     12  C   UNL     1      13.537  11.808  36.476  0.00  0.00    +0.000 A 
ATOM     13  C   UNL     1      12.495  11.556  37.372  0.00  0.00    +0.000 A 
ATOM     14  C   UNL     1      12.754  10.962  38.583  0.00  0.00    +0.000 A 
ATOM     15  C   UNL     1      14.059  10.628  38.884  0.00  0.00    +0.000 A 
ATOM     16  C   UNL     1      15.115  10.860  38.029  0.00  0.00    +0.000 A 
ENDROOT
BRANCH   1  17
ATOM     17  C   UNL     1      19.979  10.408  37.414  0.00  0.00    +0.000 C 
ATOM     18  O   UNL     1      20.391   9.658  36.519  0.00  0.00    +0.000 OA
BRANCH  17  19
ATOM     19  O   UNL     1      20.835  11.393  37.898  0.00  0.00    +0.000 OA
BRANCH  19  21
ATOM     20  C   UNL     1      20.984  12.903  39.696  0.00  0.00    +0.000 C 
ATOM     21  C   UNL     1      20.439  12.665  38.291  0.00  0.00    +0.000 C 
ENDBRANCH  19  21
ENDBRANCH  17  19
ENDBRANCH   1  17
TORSDOF 3
ENDMDL
MODEL 4
REMARK VINA RESULT:      -6.3     22.543     24.258
REMARK  Name = 
REMARK  3 active torsions:
REMARK  status: ('A' for Active; 'I' for Inactive)
REMARK    1  A    between atoms: C_2  and  O_3
REMARK    2  A    between atoms: O_3  and  C_4
REMARK    3  A    between atoms: C_4  and  C_6
REMARK                            x       y       z     vdW  Elec       q    Type
REMARK                         _______ _______ _______ _____ _____    ______ ____
ROOT
ATOM      1  C   UNL     1      33.433  -0.551  35.070  0.00  0.00    +0.000 A 
ATOM      2  C   UNL     1      33.560  -0.524  36.458  0.00  0.00    +0.000 A 
ATOM      3  C   UNL     1      33.496  -1.703  37.354  0.00  0.00    +0.000 C 
ATOM      4  N   UNL     1      33.751   0.756  36.861  0.00  0.00    +0.000 N 
ATOM      5  C   UNL     1      33.927   1.201  38.232  0.00  0.00    +0.000 C 
ATOM      6  C   UNL     1      33.755   1.574  35.793  0.00  0.00    +0.000 A 
ATOM      7  C   UNL     1      33.558   0.769  34.686  0.00  0.00    +0.000 A 
ATOM      8  C   UNL     1      33.519   1.355  33.439  0.00  0.00    +0.000 A 
ATOM      9  C   UNL     1      33.671   2.736  33.269  0.00  0.00    +0.000 A 
ATOM     10  O   UNL     1      33.619   3.253  31.980  0.00  0.00    +0.000 OA
ATOM     11  C   UNL     1      33.866   3.526  34.388  0.00  0.00    +0.000 A 
ATOM     12  C   UNL     1      34.018   4.888  34.235  0.00  0.00    +0.000 A 
ATOM     13  C   UNL     1      34.217   5.697  35.357  0.00  0.00    +0.000 A 
ATOM     14  C   UNL     1      34.260   5.139  36.612  0.00  0.00    +0.000 A 
ATOM     15  C   UNL     1      34.105   3.773  36.728  0.00  0.00    +0.000 A 
ATOM     16  C   UNL     1      33.907   2.940  35.647  0.00  0.00    +0.000 A 
ENDROOT
BRANCH   1  17
ATOM     17  C   UNL     1      33.215  -1.723  34.225  0.00  0.00    +0.000 C 
ATOM     18  O   UNL     1      33.832  -1.959  33.178  0.00  0.00    +0.000 OA
BRANCH  17  19
ATOM     19  O   UNL     1      32.241  -2.626  34.637  0.00  0.00    +0.000 OA
BRANCH  19  21
ATOM     20  C   UNL     1      31.940  -4.684  35.738  0.00  0.00    +0.000 C 
ATOM     21  C   UNL     1      32.287  -3.998  34.421  0.00  0.00    +0.000 C 
ENDBRANCH  19  21
ENDBRANCH  17  19
ENDBRANCH   1  17
TORSDOF 3
ENDMDL
MODEL 5
REMARK VINA RESULT:      -6.0      2.066      5.724
REMARK  Name = 
REMARK  3 active torsions:
REMARK  status: ('A' for Active; 'I' for Inactive)
REMARK    1  A    between atoms: C_2  and  O_3
REMARK    2  A    between atoms: O_3  and  C_4
REMARK    3  A    between atoms: C_4  and  C_6
REMARK                            x       y       z     vdW  Elec       q    Type
REMARK                         _______ _______ _______ _____ _____    ______ ____
ROOT
ATOM      1  C   UNL     1      28.734  23.415  24.681  0.00  0.00    +0.000 A 
ATOM      2  C   UNL     1      29.906  22.870  25.201  0.00  0.00    +0.000 A 
ATOM      3  C   UNL     1      31.119  22.529  24.421  0.00  0.00    +0.000 C 
ATOM      4  N   UNL     1      29.762  22.699  26.538  0.00  0.00    +0.000 N 
ATOM      5  C   UNL     1      30.760  22.155  27.441  0.00  0.00    +0.000 C 
ATOM      6  C   UNL     1      28.539  23.110  26.920  0.00  0.00    +0.000 A 
ATOM      7  C   UNL     1      27.903  23.553  25.776  0.00  0.00    +0.000 A 
ATOM      8  C   UNL     1      26.616  24.039  25.877  0.00  0.00    +0.000 A 
ATOM      9  C   UNL     1      25.944  24.091  27.104  0.00  0.00    +0.000 A 
ATOM     10  O   UNL     1      24.649  24.593  27.127  0.00  0.00    +0.000 OA
ATOM     11  C   UNL     1      26.597  23.644  28.239  0.00  0.00    +0.000 A 
ATOM     12  C   UNL     1      25.948  23.690  29.455  0.00  0.00    +0.000 A 
ATOM     13  C   UNL     1      26.595  23.242  30.608  0.00  0.00    +0.000 A 
ATOM     14  C   UNL     1      27.877  22.753  30.535  0.00  0.00    +0.000 A 
ATOM     15  C   UNL     1      28.497  22.721  29.303  0.00  0.00    +0.000 A 
ATOM     16  C   UNL     1      27.894  23.154  28.141  0.00  0.00    +0.000 A 
ENDROOT
BRANCH   1  17
ATOM     17  C   UNL     1      28.460  23.759  23.288  0.00  0.00    +0.000 C 
ATOM     18  O   UNL     1      27.980  22.981  22.453  0.00  0.00    +0.000 OA
BRANCH  17  19
ATOM     19  O   UNL     1      28.765  25.055  22.886  0.00  0.00    +0.000 OA
BRANCH  19  21
ATOM     20  C   UNL     1      29.361  25.739  20.714  0.00  0.00    +0.000 C 
ATOM     21  C   UNL     1      28.249  25.679  21.757  0.00  0.00    +0.000 C 
ENDBRANCH  19  21
ENDBRANCH  17  19
ENDBRANCH   1  17
TORSDOF 3
ENDMDL
MODEL 6
REMARK VINA RESULT:      -6.0      2.733      4.508
REMARK  Name = 
REMARK  3 active torsions:
REMARK  status: ('A' for Active; 'I' for Inactive)
REMARK    1  A    between atoms: C_2  and  O_3
REMARK    2  A    between atoms: O_3  and  C_4
REMARK    3  A    between atoms: C_4  and  C_6
REMARK                            x       y       z     vdW  Elec       q    Type
REMARK                         _______ _______ _______ _____ _____    ______ ____
ROOT
ATOM      1  C   UNL     1      30.535  22.716  28.938  0.00  0.00    +0.000 A 
ATOM      2  C   UNL     1      29.309  22.738  29.598  0.00  0.00    +0.000 A 
ATOM      3  C   UNL     1      29.115  22.661  31.065  0.00  0.00    +0.000 C 
ATOM      4  N   UNL     1      28.314  22.841  28.682  0.00  0.00    +0.000 N 
ATOM      5  C   UNL     1      26.892  22.893  28.970  0.00  0.00    +0.000 C 
ATOM      6  C   UNL     1      28.838  22.887  27.444  0.00  0.00    +0.000 A 
ATOM      7  C   UNL     1      30.210  22.811  27.600  0.00  0.00    +0.000 A 
ATOM      8  C   UNL     1      31.007  22.839  26.476  0.00  0.00    +0.000 A 
ATOM      9  C   UNL     1      30.464  22.941  25.190  0.00  0.00    +0.000 A 
ATOM     10  O   UNL     1      31.332  22.962  24.105  0.00  0.00    +0.000 OA
ATOM     11  C   UNL     1      29.089  23.016  25.053  0.00  0.00    +0.000 A 
ATOM     12  C   UNL     1      28.540  23.117  23.793  0.00  0.00    +0.000 A 
ATOM     13  C   UNL     1      27.153  23.195  23.641  0.00  0.00    +0.000 A 
ATOM     14  C   UNL     1      26.335  23.169  24.744  0.00  0.00    +0.000 A 
ATOM     15  C   UNL     1      26.918  23.067  25.991  0.00  0.00    +0.000 A 
ATOM     16  C   UNL     1      28.281  22.989  26.184  0.00  0.00    +0.000 A 
ENDROOT
BRANCH   1  17
ATOM     17  C   UNL     1      31.863  22.615  29.542  0.00  0.00    +0.000 C 
ATOM     18  O   UNL     1      32.653  23.560  29.664  0.00  0.00    +0.000 OA
BRANCH  17  19
ATOM     19  O   UNL     1      32.251  21.363  30.006  0.00  0.00    +0.000 OA
BRANCH  19  21
ATOM     20  C   UNL     1      33.846  20.864  31.662  0.00  0.00    +0.000 C 
ATOM     21  C   UNL     1      32.361  21.011  31.345  0.00  0.00    +0.000 C 
ENDBRANCH  19  21
ENDBRANCH  17  19
ENDBRANCH   1  17
TORSDOF 3
ENDMDL
MODEL 7
REMARK VINA RESULT:      -6.0      3.982      6.765
REMARK  Name = 
REMARK  3 active torsions:
REMARK  status: ('A' for Active; 'I' for Inactive)
REMARK    1  A    between atoms: C_2  and  O_3
REMARK    2  A    between atoms: O_3  and  C_4
REMARK    3  A    between atoms: C_4  and  C_6
REMARK                            x       y       z     vdW  Elec       q    Type
REMARK                         _______ _______ _______ _____ _____    ______ ____
ROOT
ATOM      1  C   UNL     1      28.882  24.179  23.058  0.00  0.00    +0.000 A 
ATOM      2  C   UNL     1      27.706  23.678  23.613  0.00  0.00    +0.000 A 
ATOM      3  C   UNL     1      26.389  23.619  22.937  0.00  0.00    +0.000 C 
ATOM      4  N   UNL     1      27.958  23.251  24.875  0.00  0.00    +0.000 N 
ATOM      5  C   UNL     1      26.991  22.664  25.785  0.00  0.00    +0.000 C 
ATOM      6  C   UNL     1      29.254  23.452  25.174  0.00  0.00    +0.000 A 
ATOM      7  C   UNL     1      29.827  24.025  24.054  0.00  0.00    +0.000 A 
ATOM      8  C   UNL     1      31.169  24.340  24.082  0.00  0.00    +0.000 A 
ATOM      9  C   UNL     1      31.958  24.096  25.212  0.00  0.00    +0.000 A 
ATOM     10  O   UNL     1      33.304  24.441  25.165  0.00  0.00    +0.000 OA
ATOM     11  C   UNL     1      31.368  23.522  26.323  0.00  0.00    +0.000 A 
ATOM     12  C   UNL     1      32.134  23.275  27.444  0.00  0.00    +0.000 A 
ATOM     13  C   UNL     1      31.551  22.696  28.573  0.00  0.00    +0.000 A 
ATOM     14  C   UNL     1      30.216  22.372  28.571  0.00  0.00    +0.000 A 
ATOM     15  C   UNL     1      29.479  22.632  27.434  0.00  0.00    +0.000 A 
ATOM     16  C   UNL     1      30.016  23.202  26.299  0.00  0.00    +0.000 A 
ENDROOT
BRANCH   1  17
ATOM     17  C   UNL     1      29.060  24.741  21.721  0.00  0.00    +0.000 C 
ATOM     18  O   UNL     1      29.729  24.216  20.821  0.00  0.00    +0.000 OA
BRANCH  17  19
ATOM     19  O   UNL     1      28.427  25.951  21.455  0.00  0.00    +0.000 OA
BRANCH  19  21
ATOM     20  C   UNL     1      29.317  27.613  20.047  0.00  0.00    +0.000 C 
ATOM     21  C   UNL     1      29.045  27.194  21.489  0.00  0.00    +0.000 C 
ENDBRANCH  19  21
ENDBRANCH  17  19
ENDBRANCH   1  17
TORSDOF 3
ENDMDL
MODEL 8
REMARK VINA RESULT:      -5.7     20.513     22.183
REMARK  Name = 
REMARK  3 active torsions:
REMARK  status: ('A' for Active; 'I' for Inactive)
REMARK    1  A    between atoms: C_2  and  O_3
REMARK    2  A    between atoms: O_3  and  C_4
REMARK    3  A    between atoms: C_4  and  C_6
REMARK                            x       y       z     vdW  Elec       q    Type
REMARK                         _______ _______ _______ _____ _____    ______ ____
ROOT
ATOM      1  C   UNL     1      24.295   3.742  16.934  0.00  0.00    +0.000 A 
ATOM      2  C   UNL     1      24.118   3.846  15.555  0.00  0.00    +0.000 A 
ATOM      3  C   UNL     1      23.051   3.186  14.769  0.00  0.00    +0.000 C 
ATOM      4  N   UNL     1      25.082   4.652  15.045  0.00  0.00    +0.000 N 
ATOM      5  C   UNL     1      25.242   5.010  13.647  0.00  0.00    +0.000 C 
ATOM      6  C   UNL     1      25.887   5.082  16.033  0.00  0.00    +0.000 A 
ATOM      7  C   UNL     1      25.403   4.521  17.200  0.00  0.00    +0.000 A 
ATOM      8  C   UNL     1      26.047   4.799  18.387  0.00  0.00    +0.000 A 
ATOM      9  C   UNL     1      27.174   5.629  18.436  0.00  0.00    +0.000 A 
ATOM     10  O   UNL     1      27.769   5.862  19.670  0.00  0.00    +0.000 OA
ATOM     11  C   UNL     1      27.644   6.181  17.259  0.00  0.00    +0.000 A 
ATOM     12  C   UNL     1      28.753   7.001  17.292  0.00  0.00    +0.000 A 
ATOM     13  C   UNL     1      29.238   7.565  16.110  0.00  0.00    +0.000 A 
ATOM     14  C   UNL     1      28.615   7.305  14.913  0.00  0.00    +0.000 A 
ATOM     15  C   UNL     1      27.508   6.481  14.916  0.00  0.00    +0.000 A 
ATOM     16  C   UNL     1      26.997   5.904  16.060  0.00  0.00    +0.000 A 
ENDROOT
BRANCH   1  17
ATOM     17  C   UNL     1      23.481   2.974  17.873  0.00  0.00    +0.000 C 
ATOM     18  O   UNL     1      22.387   3.343  18.321  0.00  0.00    +0.000 OA
BRANCH  17  19
ATOM     19  O   UNL     1      23.984   1.744  18.286  0.00  0.00    +0.000 OA
BRANCH  19  21
ATOM     20  C   UNL     1      25.471   0.263  17.221  0.00  0.00    +0.000 C 
ATOM     21  C   UNL     1      24.009   0.595  17.506  0.00  0.00    +0.000 C 
ENDBRANCH  19  21
ENDBRANCH  17  19
ENDBRANCH   1  17
TORSDOF 3
ENDMDL
MODEL 9
REMARK VINA RESULT:      -5.7     17.172     18.955
REMARK  Name = 
REMARK  3 active torsions:
REMARK  status: ('A' for Active; 'I' for Inactive)
REMARK    1  A    between atoms: C_2  and  O_3
REMARK    2  A    between atoms: O_3  and  C_4
REMARK    3  A    between atoms: C_4  and  C_6
REMARK                            x       y       z     vdW  Elec       q    Type
REMARK                         _______ _______ _______ _____ _____    ______ ____
ROOT
ATOM      1  C   UNL     1      18.945  10.040  38.160  0.00  0.00    +0.000 A 
ATOM      2  C   UNL     1      18.758   9.531  39.443  0.00  0.00    +0.000 A 
ATOM      3  C   UNL     1      17.471   9.491  40.178  0.00  0.00    +0.000 C 
ATOM      4  N   UNL     1      19.944   9.075  39.917  0.00  0.00    +0.000 N 
ATOM      5  C   UNL     1      20.166   8.471  41.219  0.00  0.00    +0.000 C 
ATOM      6  C   UNL     1      20.905   9.264  38.995  0.00  0.00    +0.000 A 
ATOM      7  C   UNL     1      20.291   9.860  37.910  0.00  0.00    +0.000 A 
ATOM      8  C   UNL     1      21.053  10.169  36.803  0.00  0.00    +0.000 A 
ATOM      9  C   UNL     1      22.425   9.897  36.756  0.00  0.00    +0.000 A 
ATOM     10  O   UNL     1      23.127  10.239  35.606  0.00  0.00    +0.000 OA
ATOM     11  C   UNL     1      23.023   9.301  37.852  0.00  0.00    +0.000 A 
ATOM     12  C   UNL     1      24.374   9.027  37.819  0.00  0.00    +0.000 A 
ATOM     13  C   UNL     1      24.990   8.425  38.918  0.00  0.00    +0.000 A 
ATOM     14  C   UNL     1      24.254   8.106  40.034  0.00  0.00    +0.000 A 
ATOM     15  C   UNL     1      22.905   8.394  40.033  0.00  0.00    +0.000 A 
ATOM     16  C   UNL     1      22.258   8.987  38.969  0.00  0.00    +0.000 A 
ENDROOT
BRANCH   1  17
ATOM     17  C   UNL     1      17.933  10.630  37.286  0.00  0.00    +0.000 C 
ATOM     18  O   UNL     1      17.714  11.844  37.184  0.00  0.00    +0.000 OA
BRANCH  17  19
ATOM     19  O   UNL     1      17.170   9.752  36.522  0.00  0.00    +0.000 OA
BRANCH  19  21
ATOM     20  C   UNL     1      17.627  10.009  34.228  0.00  0.00    +0.000 C 
ATOM     21  C   UNL     1      17.634   9.052  35.417  0.00  0.00    +0.000 C 
ENDBRANCH  19  21
ENDBRANCH  17  19
ENDBRANCH   1  17
TORSDOF 3
ENDMDL
MODEL 10
REMARK VINA RESULT:      -5.7      2.186      3.893
REMARK  Name = 
REMARK  3 active torsions:
REMARK  status: ('A' for Active; 'I' for Inactive)
REMARK    1  A    between atoms: C_2  and  O_3
REMARK    2  A    between atoms: O_3  and  C_4
REMARK    3  A    between atoms: C_4  and  C_6
REMARK                            x       y       z     vdW  Elec       q    Type
REMARK                         _______ _______ _______ _____ _____    ______ ____
ROOT
ATOM      1  C   UNL     1      28.074  23.173  28.743  0.00  0.00    +0.000 A 
ATOM      2  C   UNL     1      26.800  23.739  28.769  0.00  0.00    +0.000 A 
ATOM      3  C   UNL     1      26.012  24.035  29.988  0.00  0.00    +0.000 C 
ATOM      4  N   UNL     1      26.394  23.976  27.497  0.00  0.00    +0.000 N 
ATOM      5  C   UNL     1      25.124  24.557  27.102  0.00  0.00    +0.000 C 
ATOM      6  C   UNL     1      27.350  23.588  26.634  0.00  0.00    +0.000 A 
ATOM      7  C   UNL     1      28.388  23.092  27.401  0.00  0.00    +0.000 A 
ATOM      8  C   UNL     1      29.517  22.619  26.765  0.00  0.00    +0.000 A 
ATOM      9  C   UNL     1      29.633  22.628  25.370  0.00  0.00    +0.000 A 
ATOM     10  O   UNL     1      30.801  22.134  24.801  0.00  0.00    +0.000 OA
ATOM     11  C   UNL     1      28.584  23.128  24.618  0.00  0.00    +0.000 A 
ATOM     12  C   UNL     1      28.685  23.144  23.243  0.00  0.00    +0.000 A 
ATOM     13  C   UNL     1      27.634  23.646  22.473  0.00  0.00    +0.000 A 
ATOM     14  C   UNL     1      26.498  24.123  23.081  0.00  0.00    +0.000 A 
ATOM     15  C   UNL     1      26.431  24.093  24.459  0.00  0.00    +0.000 A 
ATOM     16  C   UNL     1      27.445  23.606  25.256  0.00  0.00    +0.000 A 
ENDROOT
BRANCH   1  17
ATOM     17  C   UNL     1      28.882  22.763  29.889  0.00  0.00    +0.000 C 
ATOM     18  O   UNL     1      28.469  22.073  30.830  0.00  0.00    +0.000 OA
BRANCH  17  19
ATOM     19  O   UNL     1      30.208  23.184  29.909  0.00  0.00    +0.000 OA
BRANCH  19  21
ATOM     20  C   UNL     1      32.053  21.852  29.308  0.00  0.00    +0.000 C 
ATOM     21  C   UNL     1      31.261  22.466  30.460  0.00  0.00    +0.000 C 
ENDBRANCH  19  21
ENDBRANCH  17  19
ENDBRANCH   1  17
TORSDOF 3
ENDMDL
