MODEL 1
REMARK VINA RESULT:      -7.1      0.000      0.000
REMARK  Name = 
REMARK  2 active torsions:
REMARK  status: ('A' for Active; 'I' for Inactive)
REMARK    1  A    between atoms: C_7  and  N_8
REMARK    2  A    between atoms: C_9  and  C_11
REMARK                            x       y       z     vdW  Elec       q    Type
REMARK                         _______ _______ _______ _____ _____    ______ ____
ROOT
ATOM      1  N   UNL     1      29.819  22.481  11.096  0.00  0.00    +0.000 NA
ATOM      2  C   UNL     1      30.723  21.451  11.468  0.00  0.00    +0.000 C 
ATOM      3  O   UNL     1      30.347  20.640  12.348  0.00  0.00    +0.000 OA
ENDROOT
BRANCH   2   4
ATOM      4  C   UNL     1      32.057  21.321  10.855  0.00  0.00    +0.000 C 
ATOM      5  C   UNL     1      32.717  22.702  10.830  0.00  0.00    +0.000 C 
ATOM      6  C   UNL     1      34.029  22.678  10.112  0.00  0.00    +0.000 C 
ATOM      7  C   UNL     1      33.793  22.116   8.714  0.00  0.00    +0.000 C 
ATOM      8  C   UNL     1      33.288  20.683   8.799  0.00  0.00    +0.000 C 
ATOM      9  C   UNL     1      34.245  19.822   9.605  0.00  0.00    +0.000 C 
ATOM     10  C   UNL     1      34.314  20.389  11.010  0.00  0.00    +0.000 C 
ATOM     11  C   UNL     1      34.959  21.756  10.906  0.00  0.00    +0.000 C 
ATOM     12  C   UNL     1      32.973  20.427  11.679  0.00  0.00    +0.000 C 
ATOM     13  C   UNL     1      31.934  20.740   9.474  0.00  0.00    +0.000 C 
ENDBRANCH   2   4
BRANCH   1  20
ATOM     14  N   UNL     1      29.612  23.784  13.524  0.00  0.00    +0.000 NA
ATOM     15  C   UNL     1      28.428  23.236  12.906  0.00  0.00    +0.000 A 
ATOM     16  C   UNL     1      27.208  23.363  13.525  0.00  0.00    +0.000 A 
ATOM     17  C   UNL     1      26.091  22.839  12.928  0.00  0.00    +0.000 A 
ATOM     18  C   UNL     1      26.187  22.191  11.725  0.00  0.00    +0.000 A 
ATOM     19  C   UNL     1      27.402  22.070  11.118  0.00  0.00    +0.000 A 
ATOM     20  C   UNL     1      28.526  22.590  11.704  0.00  0.00    +0.000 A 
ENDBRANCH   1  20
TORSDOF 2
ENDMDL
MODEL 2
REMARK VINA RESULT:      -7.0      0.139      1.687
REMARK  Name = 
REMARK  2 active torsions:
REMARK  status: ('A' for Active; 'I' for Inactive)
REMARK    1  A    between atoms: C_7  and  N_8
REMARK    2  A    between atoms: C_9  and  C_11
REMARK                            x       y       z     vdW  Elec       q    Type
REMARK                         _______ _______ _______ _____ _____    ______ ____
ROOT
ATOM      1  N   UNL     1      29.827  22.560  11.150  0.00  0.00    +0.000 NA
ATOM      2  C   UNL     1      30.688  21.458  11.397  0.00  0.00    +0.000 C 
ATOM      3  O   UNL     1      30.273  20.559  12.166  0.00  0.00    +0.000 OA
ENDROOT
BRANCH   2   4
ATOM      4  C   UNL     1      32.023  21.355  10.781  0.00  0.00    +0.000 C 
ATOM      5  C   UNL     1      32.847  20.336  11.572  0.00  0.00    +0.000 C 
ATOM      6  C   UNL     1      34.258  20.261  11.084  0.00  0.00    +0.000 C 
ATOM      7  C   UNL     1      34.853  21.664  11.140  0.00  0.00    +0.000 C 
ATOM      8  C   UNL     1      34.092  22.597  10.210  0.00  0.00    +0.000 C 
ATOM      9  C   UNL     1      34.067  22.045   8.795  0.00  0.00    +0.000 C 
ATOM     10  C   UNL     1      33.347  20.711   8.827  0.00  0.00    +0.000 C 
ATOM     11  C   UNL     1      34.207  19.762   9.637  0.00  0.00    +0.000 C 
ATOM     12  C   UNL     1      31.949  20.826   9.355  0.00  0.00    +0.000 C 
ATOM     13  C   UNL     1      32.685  22.705  10.759  0.00  0.00    +0.000 C 
ENDBRANCH   2   4
BRANCH   1  20
ATOM     14  N   UNL     1      29.607  23.781  13.619  0.00  0.00    +0.000 NA
ATOM     15  C   UNL     1      28.428  23.247  12.981  0.00  0.00    +0.000 A 
ATOM     16  C   UNL     1      27.207  23.347  13.602  0.00  0.00    +0.000 A 
ATOM     17  C   UNL     1      26.094  22.835  12.985  0.00  0.00    +0.000 A 
ATOM     18  C   UNL     1      26.196  22.229  11.762  0.00  0.00    +0.000 A 
ATOM     19  C   UNL     1      27.412  22.134  11.154  0.00  0.00    +0.000 A 
ATOM     20  C   UNL     1      28.532  22.641  11.758  0.00  0.00    +0.000 A 
ENDBRANCH   1  20
TORSDOF 2
ENDMDL
MODEL 3
REMARK VINA RESULT:      -6.6     18.991     19.933
REMARK  Name = 
REMARK  2 active torsions:
REMARK  status: ('A' for Active; 'I' for Inactive)
REMARK    1  A    between atoms: C_7  and  N_8
REMARK    2  A    between atoms: C_9  and  C_11
REMARK                            x       y       z     vdW  Elec       q    Type
REMARK                         _______ _______ _______ _____ _____    ______ ____
ROOT
ATOM      1  N   UNL     1      24.328   3.568  18.176  0.00  0.00    +0.000 NA
ATOM      2  C   UNL     1      24.911   4.279  17.094  0.00  0.00    +0.000 C 
ATOM      3  O   UNL     1      24.333   4.218  15.983  0.00  0.00    +0.000 OA
ENDROOT
BRANCH   2   4
ATOM      4  C   UNL     1      26.147   5.065  17.250  0.00  0.00    +0.000 C 
ATOM      5  C   UNL     1      27.193   4.525  16.270  0.00  0.00    +0.000 C 
ATOM      6  C   UNL     1      28.520   5.192  16.450  0.00  0.00    +0.000 C 
ATOM      7  C   UNL     1      28.940   5.025  17.906  0.00  0.00    +0.000 C 
ATOM      8  C   UNL     1      27.947   5.720  18.825  0.00  0.00    +0.000 C 
ATOM      9  C   UNL     1      27.789   7.181  18.442  0.00  0.00    +0.000 C 
ATOM     10  C   UNL     1      27.250   7.237  17.026  0.00  0.00    +0.000 C 
ATOM     11  C   UNL     1      28.325   6.674  16.119  0.00  0.00    +0.000 C 
ATOM     12  C   UNL     1      25.937   6.528  16.883  0.00  0.00    +0.000 C 
ATOM     13  C   UNL     1      26.629   4.990  18.672  0.00  0.00    +0.000 C 
ENDBRANCH   2   4
BRANCH   1  20
ATOM     14  N   UNL     1      24.540   0.858  17.681  0.00  0.00    +0.000 NA
ATOM     15  C   UNL     1      23.234   1.468  17.759  0.00  0.00    +0.000 A 
ATOM     16  C   UNL     1      22.107   0.702  17.588  0.00  0.00    +0.000 A 
ATOM     17  C   UNL     1      20.872   1.293  17.665  0.00  0.00    +0.000 A 
ATOM     18  C   UNL     1      20.760   2.635  17.909  0.00  0.00    +0.000 A 
ATOM     19  C   UNL     1      21.884   3.388  18.079  0.00  0.00    +0.000 A 
ATOM     20  C   UNL     1      23.124   2.810  18.005  0.00  0.00    +0.000 A 
ENDBRANCH   1  20
TORSDOF 2
ENDMDL
MODEL 4
REMARK VINA RESULT:      -6.5     33.246     34.810
REMARK  Name = 
REMARK  2 active torsions:
REMARK  status: ('A' for Active; 'I' for Inactive)
REMARK    1  A    between atoms: C_7  and  N_8
REMARK    2  A    between atoms: C_9  and  C_11
REMARK                            x       y       z     vdW  Elec       q    Type
REMARK                         _______ _______ _______ _____ _____    ______ ____
ROOT
ATOM      1  N   UNL     1      34.484  -5.092  31.530  0.00  0.00    +0.000 NA
ATOM      2  C   UNL     1      33.415  -5.027  32.462  0.00  0.00    +0.000 C 
ATOM      3  O   UNL     1      32.408  -5.741  32.240  0.00  0.00    +0.000 OA
ENDROOT
BRANCH   2   4
ATOM      4  C   UNL     1      33.466  -4.160  33.652  0.00  0.00    +0.000 C 
ATOM      5  C   UNL     1      32.184  -4.371  34.463  0.00  0.00    +0.000 C 
ATOM      6  C   UNL     1      32.102  -3.437  35.628  0.00  0.00    +0.000 C 
ATOM      7  C   UNL     1      32.233  -2.012  35.101  0.00  0.00    +0.000 C 
ATOM      8  C   UNL     1      33.592  -1.814  34.446  0.00  0.00    +0.000 C 
ATOM      9  C   UNL     1      34.711  -2.170  35.409  0.00  0.00    +0.000 C 
ATOM     10  C   UNL     1      34.565  -3.635  35.774  0.00  0.00    +0.000 C 
ATOM     11  C   UNL     1      33.273  -3.771  36.555  0.00  0.00    +0.000 C 
ATOM     12  C   UNL     1      34.618  -4.532  34.575  0.00  0.00    +0.000 C 
ATOM     13  C   UNL     1      33.627  -2.724  33.237  0.00  0.00    +0.000 C 
ENDBRANCH   2   4
BRANCH   1  20
ATOM     14  N   UNL     1      35.642  -7.596  31.673  0.00  0.00    +0.000 NA
ATOM     15  C   UNL     1      34.991  -7.181  30.454  0.00  0.00    +0.000 A 
ATOM     16  C   UNL     1      34.950  -8.029  29.374  0.00  0.00    +0.000 A 
ATOM     17  C   UNL     1      34.328  -7.624  28.222  0.00  0.00    +0.000 A 
ATOM     18  C   UNL     1      33.752  -6.384  28.144  0.00  0.00    +0.000 A 
ATOM     19  C   UNL     1      33.797  -5.549  29.221  0.00  0.00    +0.000 A 
ATOM     20  C   UNL     1      34.415  -5.942  30.378  0.00  0.00    +0.000 A 
ENDBRANCH   1  20
TORSDOF 2
ENDMDL
MODEL 5
REMARK VINA RESULT:      -6.4     33.269     34.853
REMARK  Name = 
REMARK  2 active torsions:
REMARK  status: ('A' for Active; 'I' for Inactive)
REMARK    1  A    between atoms: C_7  and  N_8
REMARK    2  A    between atoms: C_9  and  C_11
REMARK                            x       y       z     vdW  Elec       q    Type
REMARK                         _______ _______ _______ _____ _____    ______ ____
ROOT
ATOM      1  N   UNL     1      34.488  -5.086  31.652  0.00  0.00    +0.000 NA
ATOM      2  C   UNL     1      33.396  -5.028  32.558  0.00  0.00    +0.000 C 
ATOM      3  O   UNL     1      32.388  -5.726  32.294  0.00  0.00    +0.000 OA
ENDROOT
BRANCH   2   4
ATOM      4  C   UNL     1      33.426  -4.187  33.767  0.00  0.00    +0.000 C 
ATOM      5  C   UNL     1      33.531  -2.721  33.338  0.00  0.00    +0.000 C 
ATOM      6  C   UNL     1      33.689  -1.808  34.512  0.00  0.00    +0.000 C 
ATOM      7  C   UNL     1      34.901  -2.272  35.312  0.00  0.00    +0.000 C 
ATOM      8  C   UNL     1      34.673  -3.677  35.849  0.00  0.00    +0.000 C 
ATOM      9  C   UNL     1      33.394  -3.741  36.665  0.00  0.00    +0.000 C 
ATOM     10  C   UNL     1      32.238  -3.386  35.750  0.00  0.00    +0.000 C 
ATOM     11  C   UNL     1      32.416  -1.934  35.353  0.00  0.00    +0.000 C 
ATOM     12  C   UNL     1      32.137  -4.304  34.570  0.00  0.00    +0.000 C 
ATOM     13  C   UNL     1      34.577  -4.591  34.646  0.00  0.00    +0.000 C 
ENDBRANCH   2   4
BRANCH   1  20
ATOM     14  N   UNL     1      35.648  -7.592  31.759  0.00  0.00    +0.000 NA
ATOM     15  C   UNL     1      35.016  -7.151  30.539  0.00  0.00    +0.000 A 
ATOM     16  C   UNL     1      34.994  -7.975  29.440  0.00  0.00    +0.000 A 
ATOM     17  C   UNL     1      34.390  -7.545  28.287  0.00  0.00    +0.000 A 
ATOM     18  C   UNL     1      33.814  -6.305  28.227  0.00  0.00    +0.000 A 
ATOM     19  C   UNL     1      33.840  -5.494  29.323  0.00  0.00    +0.000 A 
ATOM     20  C   UNL     1      34.440  -5.911  30.481  0.00  0.00    +0.000 A 
ENDBRANCH   1  20
TORSDOF 2
ENDMDL
MODEL 6
REMARK VINA RESULT:      -6.4     31.664     33.079
REMARK  Name = 
REMARK  2 active torsions:
REMARK  status: ('A' for Active; 'I' for Inactive)
REMARK    1  A    between atoms: C_7  and  N_8
REMARK    2  A    between atoms: C_9  and  C_11
REMARK                            x       y       z     vdW  Elec       q    Type
REMARK                         _______ _______ _______ _____ _____    ______ ____
ROOT
ATOM      1  N   UNL     1      33.321   0.266  35.046  0.00  0.00    +0.000 NA
ATOM      2  C   UNL     1      33.733  -0.755  34.149  0.00  0.00    +0.000 C 
ATOM      3  O   UNL     1      34.296  -0.399  33.086  0.00  0.00    +0.000 OA
ENDROOT
BRANCH   2   4
ATOM      4  C   UNL     1      33.519  -2.184  34.437  0.00  0.00    +0.000 C 
ATOM      5  C   UNL     1      34.545  -2.629  35.482  0.00  0.00    +0.000 C 
ATOM      6  C   UNL     1      34.473  -4.100  35.741  0.00  0.00    +0.000 C 
ATOM      7  C   UNL     1      34.642  -4.824  34.410  0.00  0.00    +0.000 C 
ATOM      8  C   UNL     1      33.503  -4.466  33.466  0.00  0.00    +0.000 C 
ATOM      9  C   UNL     1      32.159  -4.761  34.108  0.00  0.00    +0.000 C 
ATOM     10  C   UNL     1      32.036  -3.902  35.352  0.00  0.00    +0.000 C 
ATOM     11  C   UNL     1      33.088  -4.385  36.330  0.00  0.00    +0.000 C 
ATOM     12  C   UNL     1      32.149  -2.438  35.051  0.00  0.00    +0.000 C 
ATOM     13  C   UNL     1      33.634  -2.987  33.171  0.00  0.00    +0.000 C 
ENDBRANCH   2   4
BRANCH   1  20
ATOM     14  N   UNL     1      34.240   1.916  37.062  0.00  0.00    +0.000 NA
ATOM     15  C   UNL     1      33.995   2.464  35.749  0.00  0.00    +0.000 A 
ATOM     16  C   UNL     1      34.218   3.798  35.509  0.00  0.00    +0.000 A 
ATOM     17  C   UNL     1      33.981   4.306  34.258  0.00  0.00    +0.000 A 
ATOM     18  C   UNL     1      33.525   3.494  33.254  0.00  0.00    +0.000 A 
ATOM     19  C   UNL     1      33.307   2.171  33.502  0.00  0.00    +0.000 A 
ATOM     20  C   UNL     1      33.540   1.650  34.747  0.00  0.00    +0.000 A 
ENDBRANCH   1  20
TORSDOF 2
ENDMDL
MODEL 7
REMARK VINA RESULT:      -6.3     18.856     19.764
REMARK  Name = 
REMARK  2 active torsions:
REMARK  status: ('A' for Active; 'I' for Inactive)
REMARK    1  A    between atoms: C_7  and  N_8
REMARK    2  A    between atoms: C_9  and  C_11
REMARK                            x       y       z     vdW  Elec       q    Type
REMARK                         _______ _______ _______ _____ _____    ______ ____
ROOT
ATOM      1  N   UNL     1      24.402   3.177  16.700  0.00  0.00    +0.000 NA
ATOM      2  C   UNL     1      24.688   4.309  17.507  0.00  0.00    +0.000 C 
ATOM      3  O   UNL     1      23.781   4.722  18.268  0.00  0.00    +0.000 OA
ENDROOT
BRANCH   2   4
ATOM      4  C   UNL     1      25.995   4.989  17.467  0.00  0.00    +0.000 C 
ATOM      5  C   UNL     1      25.769   6.457  17.097  0.00  0.00    +0.000 C 
ATOM      6  C   UNL     1      27.059   7.191  16.917  0.00  0.00    +0.000 C 
ATOM      7  C   UNL     1      27.886   6.445  15.874  0.00  0.00    +0.000 C 
ATOM      8  C   UNL     1      28.217   5.044  16.368  0.00  0.00    +0.000 C 
ATOM      9  C   UNL     1      28.914   5.098  17.715  0.00  0.00    +0.000 C 
ATOM     10  C   UNL     1      27.965   5.741  18.708  0.00  0.00    +0.000 C 
ATOM     11  C   UNL     1      27.774   7.180  18.270  0.00  0.00    +0.000 C 
ATOM     12  C   UNL     1      26.671   4.994  18.831  0.00  0.00    +0.000 C 
ATOM     13  C   UNL     1      26.901   4.303  16.484  0.00  0.00    +0.000 C 
ENDBRANCH   2   4
BRANCH   1  20
ATOM     14  N   UNL     1      22.699   3.445  14.540  0.00  0.00    +0.000 NA
ATOM     15  C   UNL     1      22.284   2.665  15.682  0.00  0.00    +0.000 A 
ATOM     16  C   UNL     1      21.050   2.063  15.690  0.00  0.00    +0.000 A 
ATOM     17  C   UNL     1      20.668   1.324  16.780  0.00  0.00    +0.000 A 
ATOM     18  C   UNL     1      21.506   1.188  17.854  0.00  0.00    +0.000 A 
ATOM     19  C   UNL     1      22.730   1.789  17.836  0.00  0.00    +0.000 A 
ATOM     20  C   UNL     1      23.124   2.529  16.753  0.00  0.00    +0.000 A 
ENDBRANCH   1  20
TORSDOF 2
ENDMDL
MODEL 8
REMARK VINA RESULT:      -6.3     28.869     30.589
REMARK  Name = 
REMARK  2 active torsions:
REMARK  status: ('A' for Active; 'I' for Inactive)
REMARK    1  A    between atoms: C_7  and  N_8
REMARK    2  A    between atoms: C_9  and  C_11
REMARK                            x       y       z     vdW  Elec       q    Type
REMARK                         _______ _______ _______ _____ _____    ______ ____
ROOT
ATOM      1  N   UNL     1      19.669  11.278  38.067  0.00  0.00    +0.000 NA
ATOM      2  C   UNL     1      20.488  10.416  37.291  0.00  0.00    +0.000 C 
ATOM      3  O   UNL     1      19.929   9.731  36.403  0.00  0.00    +0.000 OA
ENDROOT
BRANCH   2   4
ATOM      4  C   UNL     1      21.943  10.317  37.505  0.00  0.00    +0.000 C 
ATOM      5  C   UNL     1      22.471  11.696  37.908  0.00  0.00    +0.000 C 
ATOM      6  C   UNL     1      23.962  11.708  38.027  0.00  0.00    +0.000 C 
ATOM      7  C   UNL     1      24.545  11.222  36.704  0.00  0.00    +0.000 C 
ATOM      8  C   UNL     1      24.116   9.787  36.434  0.00  0.00    +0.000 C 
ATOM      9  C   UNL     1      24.499   8.883  37.592  0.00  0.00    +0.000 C 
ATOM     10  C   UNL     1      23.771   9.374  38.829  0.00  0.00    +0.000 C 
ATOM     11  C   UNL     1      24.330  10.744  39.157  0.00  0.00    +0.000 C 
ATOM     12  C   UNL     1      22.283   9.378  38.655  0.00  0.00    +0.000 C 
ATOM     13  C   UNL     1      22.612   9.810  36.258  0.00  0.00    +0.000 C 
ENDBRANCH   2   4
BRANCH   1  20
ATOM     14  N   UNL     1      18.032   9.417  39.288  0.00  0.00    +0.000 NA
ATOM     15  C   UNL     1      17.449  10.437  38.450  0.00  0.00    +0.000 A 
ATOM     16  C   UNL     1      16.089  10.479  38.263  0.00  0.00    +0.000 A 
ATOM     17  C   UNL     1      15.548  11.453  37.465  0.00  0.00    +0.000 A 
ATOM     18  C   UNL     1      16.353  12.379  36.857  0.00  0.00    +0.000 A 
ATOM     19  C   UNL     1      17.702  12.330  37.049  0.00  0.00    +0.000 A 
ATOM     20  C   UNL     1      18.256  11.362  37.844  0.00  0.00    +0.000 A 
ENDBRANCH   1  20
TORSDOF 2
ENDMDL
MODEL 9
REMARK VINA RESULT:      -6.2     28.862     31.070
REMARK  Name = 
REMARK  2 active torsions:
REMARK  status: ('A' for Active; 'I' for Inactive)
REMARK    1  A    between atoms: C_7  and  N_8
REMARK    2  A    between atoms: C_9  and  C_11
REMARK                            x       y       z     vdW  Elec       q    Type
REMARK                         _______ _______ _______ _____ _____    ______ ____
ROOT
ATOM      1  N   UNL     1      19.418   9.741  38.037  0.00  0.00    +0.000 NA
ATOM      2  C   UNL     1      20.451  10.649  38.390  0.00  0.00    +0.000 C 
ATOM      3  O   UNL     1      20.145  11.617  39.125  0.00  0.00    +0.000 OA
ENDROOT
BRANCH   2   4
ATOM      4  C   UNL     1      21.838  10.477  37.921  0.00  0.00    +0.000 C 
ATOM      5  C   UNL     1      22.495   9.365  38.742  0.00  0.00    +0.000 C 
ATOM      6  C   UNL     1      23.945   9.210  38.410  0.00  0.00    +0.000 C 
ATOM      7  C   UNL     1      24.622  10.562  38.608  0.00  0.00    +0.000 C 
ATOM      8  C   UNL     1      24.037  11.591  37.652  0.00  0.00    +0.000 C 
ATOM      9  C   UNL     1      24.137  11.109  36.215  0.00  0.00    +0.000 C 
ATOM     10  C   UNL     1      23.330   9.830  36.094  0.00  0.00    +0.000 C 
ATOM     11  C   UNL     1      24.026   8.784  36.942  0.00  0.00    +0.000 C 
ATOM     12  C   UNL     1      21.892  10.022  36.469  0.00  0.00    +0.000 C 
ATOM     13  C   UNL     1      22.587  11.775  38.046  0.00  0.00    +0.000 C 
ENDBRANCH   2   4
BRANCH   1  20
ATOM     14  N   UNL     1      17.608  11.001  36.373  0.00  0.00    +0.000 NA
ATOM     15  C   UNL     1      17.183  10.550  37.676  0.00  0.00    +0.000 A 
ATOM     16  C   UNL     1      15.886  10.748  38.082  0.00  0.00    +0.000 A 
ATOM     17  C   UNL     1      15.494  10.315  39.323  0.00  0.00    +0.000 A 
ATOM     18  C   UNL     1      16.386   9.690  40.153  0.00  0.00    +0.000 A 
ATOM     19  C   UNL     1      17.672   9.497  39.741  0.00  0.00    +0.000 A 
ATOM     20  C   UNL     1      18.076   9.925  38.504  0.00  0.00    +0.000 A 
ENDBRANCH   1  20
TORSDOF 2
ENDMDL
MODEL 10
REMARK VINA RESULT:      -6.1     13.873     17.007
REMARK  Name = 
REMARK  2 active torsions:
REMARK  status: ('A' for Active; 'I' for Inactive)
REMARK    1  A    between atoms: C_7  and  N_8
REMARK    2  A    between atoms: C_9  and  C_11
REMARK                            x       y       z     vdW  Elec       q    Type
REMARK                         _______ _______ _______ _____ _____    ______ ____
ROOT
ATOM      1  N   UNL     1      27.886  23.169  25.699  0.00  0.00    +0.000 NA
ATOM      2  C   UNL     1      27.728  24.158  26.706  0.00  0.00    +0.000 C 
ATOM      3  O   UNL     1      27.764  25.359  26.348  0.00  0.00    +0.000 OA
ENDROOT
BRANCH   2   4
ATOM      4  C   UNL     1      27.526  23.808  28.123  0.00  0.00    +0.000 C 
ATOM      5  C   UNL     1      28.393  24.734  28.981  0.00  0.00    +0.000 C 
ATOM      6  C   UNL     1      28.338  24.363  30.429  0.00  0.00    +0.000 C 
ATOM      7  C   UNL     1      28.742  22.899  30.558  0.00  0.00    +0.000 C 
ATOM      8  C   UNL     1      27.752  22.011  29.818  0.00  0.00    +0.000 C 
ATOM      9  C   UNL     1      26.336  22.257  30.308  0.00  0.00    +0.000 C 
ATOM     10  C   UNL     1      25.987  23.705  30.022  0.00  0.00    +0.000 C 
ATOM     11  C   UNL     1      26.891  24.559  30.888  0.00  0.00    +0.000 C 
ATOM     12  C   UNL     1      26.088  24.042  28.565  0.00  0.00    +0.000 C 
ATOM     13  C   UNL     1      27.869  22.362  28.349  0.00  0.00    +0.000 C 
ENDBRANCH   2   4
BRANCH   1  20
ATOM     14  N   UNL     1      25.686  23.213  24.027  0.00  0.00    +0.000 NA
ATOM     15  C   UNL     1      26.987  23.550  23.502  0.00  0.00    +0.000 A 
ATOM     16  C   UNL     1      27.127  23.890  22.178  0.00  0.00    +0.000 A 
ATOM     17  C   UNL     1      28.368  24.208  21.691  0.00  0.00    +0.000 A 
ATOM     18  C   UNL     1      29.462  24.188  22.514  0.00  0.00    +0.000 A 
ATOM     19  C   UNL     1      29.314  23.850  23.827  0.00  0.00    +0.000 A 
ATOM     20  C   UNL     1      28.080  23.530  24.326  0.00  0.00    +0.000 A 
ENDBRANCH   1  20
TORSDOF 2
ENDMDL
