MODEL 1
REMARK VINA RESULT:      -6.9      0.000      0.000
REMARK  Name = 
REMARK  3 active torsions:
REMARK  status: ('A' for Active; 'I' for Inactive)
REMARK    1  A    between atoms: O_2  and  C_3
REMARK    2  A    between atoms: C_8  and  N_9
REMARK    3  A    between atoms: C_10  and  C_12
REMARK                            x       y       z     vdW  Elec       q    Type
REMARK                         _______ _______ _______ _____ _____    ______ ____
ROOT
ATOM      1  N   UNL     1      14.568  11.463  34.442  0.00  0.00    +0.000 NA
ATOM      2  C   UNL     1      14.793  12.155  35.653  0.00  0.00    +0.000 C 
ATOM      3  O   UNL     1      15.264  13.310  35.553  0.00  0.00    +0.000 OA
ENDROOT
BRANCH   2   4
ATOM      4  C   UNL     1      14.494  11.563  36.984  0.00  0.00    +0.000 A 
ATOM      5  C   UNL     1      13.209  11.574  37.465  0.00  0.00    +0.000 A 
ATOM      6  N   UNL     1      12.022  12.104  36.847  0.00  0.00    +0.000 NA
ATOM      7  S   UNL     1      13.352  10.808  38.976  0.00  0.00    +0.000 S 
ATOM      8  C   UNL     1      15.028  10.492  38.966  0.00  0.00    +0.000 A 
ATOM      9  C   UNL     1      15.884   9.814  40.013  0.00  0.00    +0.000 C 
ATOM     10  C   UNL     1      15.430  11.003  37.761  0.00  0.00    +0.000 A 
ATOM     11  C   UNL     1      16.898  10.907  37.380  0.00  0.00    +0.000 C 
ENDBRANCH   2   4
BRANCH   1  17
ATOM     12  C   UNL     1      15.834  11.523  32.361  0.00  0.00    +0.000 A 
ATOM     13  C   UNL     1      16.073  12.144  31.156  0.00  0.00    +0.000 A 
ATOM     14  C   UNL     1      15.396  13.260  30.742  0.00  0.00    +0.000 A 
ATOM     15  C   UNL     1      14.435  13.775  31.578  0.00  0.00    +0.000 A 
ATOM     16  C   UNL     1      14.160  13.184  32.799  0.00  0.00    +0.000 A 
ATOM     17  C   UNL     1      14.865  12.057  33.183  0.00  0.00    +0.000 A 
BRANCH  12  19
ATOM     18  C   UNL     1      17.584  10.440  33.712  0.00  0.00    +0.000 C 
ATOM     19  O   UNL     1      16.498  10.402  32.800  0.00  0.00    +0.000 OA
ENDBRANCH  12  19
ENDBRANCH   1  17
TORSDOF 3
ENDMDL
MODEL 2
REMARK VINA RESULT:      -6.9      1.780      2.857
REMARK  Name = 
REMARK  3 active torsions:
REMARK  status: ('A' for Active; 'I' for Inactive)
REMARK    1  A    between atoms: O_2  and  C_3
REMARK    2  A    between atoms: C_8  and  N_9
REMARK    3  A    between atoms: C_10  and  C_12
REMARK                            x       y       z     vdW  Elec       q    Type
REMARK                         _______ _______ _______ _____ _____    ______ ____
ROOT
ATOM      1  N   UNL     1      15.092  11.249  34.377  0.00  0.00    +0.000 NA
ATOM      2  C   UNL     1      16.318  11.436  35.052  0.00  0.00    +0.000 C 
ATOM      3  O   UNL     1      17.200  12.075  34.437  0.00  0.00    +0.000 OA
ENDROOT
BRANCH   2   4
ATOM      4  C   UNL     1      16.568  10.911  36.422  0.00  0.00    +0.000 A 
ATOM      5  C   UNL     1      15.747  11.280  37.457  0.00  0.00    +0.000 A 
ATOM      6  N   UNL     1      14.604  12.154  37.431  0.00  0.00    +0.000 NA
ATOM      7  S   UNL     1      16.405  10.454  38.790  0.00  0.00    +0.000 S 
ATOM      8  C   UNL     1      17.699   9.663  38.010  0.00  0.00    +0.000 A 
ATOM      9  C   UNL     1      18.741   8.729  38.586  0.00  0.00    +0.000 C 
ATOM     10  C   UNL     1      17.575  10.075  36.711  0.00  0.00    +0.000 A 
ATOM     11  C   UNL     1      18.574   9.568  35.685  0.00  0.00    +0.000 C 
ENDBRANCH   2   4
BRANCH   1  17
ATOM     12  C   UNL     1      14.339  13.016  32.878  0.00  0.00    +0.000 A 
ATOM     13  C   UNL     1      14.162  13.455  31.585  0.00  0.00    +0.000 A 
ATOM     14  C   UNL     1      14.499  12.708  30.488  0.00  0.00    +0.000 A 
ATOM     15  C   UNL     1      15.038  11.462  30.700  0.00  0.00    +0.000 A 
ATOM     16  C   UNL     1      15.235  10.979  31.982  0.00  0.00    +0.000 A 
ATOM     17  C   UNL     1      14.882  11.763  33.066  0.00  0.00    +0.000 A 
BRANCH  12  19
ATOM     18  C   UNL     1      13.185  14.898  33.966  0.00  0.00    +0.000 C 
ATOM     19  O   UNL     1      14.010  13.745  33.996  0.00  0.00    +0.000 OA
ENDBRANCH  12  19
ENDBRANCH   1  17
TORSDOF 3
ENDMDL
MODEL 3
REMARK VINA RESULT:      -6.1      3.004      4.533
REMARK  Name = 
REMARK  3 active torsions:
REMARK  status: ('A' for Active; 'I' for Inactive)
REMARK    1  A    between atoms: O_2  and  C_3
REMARK    2  A    between atoms: C_8  and  N_9
REMARK    3  A    between atoms: C_10  and  C_12
REMARK                            x       y       z     vdW  Elec       q    Type
REMARK                         _______ _______ _______ _____ _____    ______ ____
ROOT
ATOM      1  N   UNL     1      17.508  11.263  35.935  0.00  0.00    +0.000 NA
ATOM      2  C   UNL     1      17.805  10.008  36.511  0.00  0.00    +0.000 C 
ATOM      3  O   UNL     1      17.341   9.004  35.926  0.00  0.00    +0.000 OA
ENDROOT
BRANCH   2   4
ATOM      4  C   UNL     1      18.622   9.864  37.746  0.00  0.00    +0.000 A 
ATOM      5  C   UNL     1      19.986   9.740  37.653  0.00  0.00    +0.000 A 
ATOM      6  N   UNL     1      20.809   9.723  36.473  0.00  0.00    +0.000 NA
ATOM      7  S   UNL     1      20.476   9.607  39.276  0.00  0.00    +0.000 S 
ATOM      8  C   UNL     1      18.951   9.712  40.032  0.00  0.00    +0.000 A 
ATOM      9  C   UNL     1      18.604   9.669  41.504  0.00  0.00    +0.000 C 
ATOM     10  C   UNL     1      18.092   9.850  38.976  0.00  0.00    +0.000 A 
ATOM     11  C   UNL     1      16.604   9.978  39.256  0.00  0.00    +0.000 C 
ENDBRANCH   2   4
BRANCH   1  17
ATOM     12  C   UNL     1      15.526  12.052  34.759  0.00  0.00    +0.000 A 
ATOM     13  C   UNL     1      14.814  12.118  33.582  0.00  0.00    +0.000 A 
ATOM     14  C   UNL     1      15.238  11.538  32.418  0.00  0.00    +0.000 A 
ATOM     15  C   UNL     1      16.434  10.860  32.436  0.00  0.00    +0.000 A 
ATOM     16  C   UNL     1      17.184  10.769  33.595  0.00  0.00    +0.000 A 
ATOM     17  C   UNL     1      16.722  11.368  34.753  0.00  0.00    +0.000 A 
BRANCH  12  19
ATOM     18  C   UNL     1      14.029  12.153  36.711  0.00  0.00    +0.000 C 
ATOM     19  O   UNL     1      15.123  12.626  35.941  0.00  0.00    +0.000 OA
ENDBRANCH  12  19
ENDBRANCH   1  17
TORSDOF 3
ENDMDL
MODEL 4
REMARK VINA RESULT:      -5.8     29.073     31.576
REMARK  Name = 
REMARK  3 active torsions:
REMARK  status: ('A' for Active; 'I' for Inactive)
REMARK    1  A    between atoms: O_2  and  C_3
REMARK    2  A    between atoms: C_8  and  N_9
REMARK    3  A    between atoms: C_10  and  C_12
REMARK                            x       y       z     vdW  Elec       q    Type
REMARK                         _______ _______ _______ _____ _____    ______ ____
ROOT
ATOM      1  N   UNL     1      29.970  21.097  10.593  0.00  0.00    +0.000 NA
ATOM      2  C   UNL     1      30.761  21.648   9.561  0.00  0.00    +0.000 C 
ATOM      3  O   UNL     1      30.610  22.869   9.336  0.00  0.00    +0.000 OA
ENDROOT
BRANCH   2   4
ATOM      4  C   UNL     1      31.728  20.838   8.772  0.00  0.00    +0.000 A 
ATOM      5  C   UNL     1      33.057  20.833   9.114  0.00  0.00    +0.000 A 
ATOM      6  N   UNL     1      33.711  21.535  10.186  0.00  0.00    +0.000 NA
ATOM      7  S   UNL     1      33.753  19.796   7.961  0.00  0.00    +0.000 S 
ATOM      8  C   UNL     1      32.352  19.392   7.075  0.00  0.00    +0.000 A 
ATOM      9  C   UNL     1      32.204  18.486   5.872  0.00  0.00    +0.000 C 
ATOM     10  C   UNL     1      31.368  20.092   7.719  0.00  0.00    +0.000 A 
ATOM     11  C   UNL     1      29.941  19.985   7.208  0.00  0.00    +0.000 C 
ENDBRANCH   2   4
BRANCH   1  17
ATOM     12  C   UNL     1      29.470  22.621  12.426  0.00  0.00    +0.000 A 
ATOM     13  C   UNL     1      28.534  23.376  13.097  0.00  0.00    +0.000 A 
ATOM     14  C   UNL     1      27.218  23.437  12.727  0.00  0.00    +0.000 A 
ATOM     15  C   UNL     1      26.824  22.706  11.631  0.00  0.00    +0.000 A 
ATOM     16  C   UNL     1      27.730  21.933  10.927  0.00  0.00    +0.000 A 
ATOM     17  C   UNL     1      29.053  21.897  11.331  0.00  0.00    +0.000 A 
BRANCH  12  19
ATOM     18  C   UNL     1      31.406  21.368  13.287  0.00  0.00    +0.000 C 
ATOM     19  O   UNL     1      30.797  22.543  12.778  0.00  0.00    +0.000 OA
ENDBRANCH  12  19
ENDBRANCH   1  17
TORSDOF 3
ENDMDL
MODEL 5
REMARK VINA RESULT:      -5.8     18.764     19.902
REMARK  Name = 
REMARK  3 active torsions:
REMARK  status: ('A' for Active; 'I' for Inactive)
REMARK    1  A    between atoms: O_2  and  C_3
REMARK    2  A    between atoms: C_8  and  N_9
REMARK    3  A    between atoms: C_10  and  C_12
REMARK                            x       y       z     vdW  Elec       q    Type
REMARK                         _______ _______ _______ _____ _____    ______ ____
ROOT
ATOM      1  N   UNL     1      28.911  22.213  27.116  0.00  0.00    +0.000 NA
ATOM      2  C   UNL     1      29.381  23.150  28.063  0.00  0.00    +0.000 C 
ATOM      3  O   UNL     1      29.352  24.352  27.717  0.00  0.00    +0.000 OA
ENDROOT
BRANCH   2   4
ATOM      4  C   UNL     1      29.887  22.751  29.403  0.00  0.00    +0.000 A 
ATOM      5  C   UNL     1      29.040  22.749  30.483  0.00  0.00    +0.000 A 
ATOM      6  N   UNL     1      27.644  23.096  30.530  0.00  0.00    +0.000 NA
ATOM      7  S   UNL     1      30.037  22.238  31.761  0.00  0.00    +0.000 S 
ATOM      8  C   UNL     1      31.499  22.038  30.905  0.00  0.00    +0.000 A 
ATOM      9  C   UNL     1      32.854  21.590  31.408  0.00  0.00    +0.000 C 
ATOM     10  C   UNL     1      31.156  22.383  29.625  0.00  0.00    +0.000 A 
ATOM     11  C   UNL     1      32.222  22.329  28.543  0.00  0.00    +0.000 C 
ENDBRANCH   2   4
BRANCH   1  17
ATOM     12  C   UNL     1      29.291  22.742  24.768  0.00  0.00    +0.000 A 
ATOM     13  C   UNL     1      28.766  23.144  23.561  0.00  0.00    +0.000 A 
ATOM     14  C   UNL     1      27.440  23.433  23.381  0.00  0.00    +0.000 A 
ATOM     15  C   UNL     1      26.602  23.309  24.464  0.00  0.00    +0.000 A 
ATOM     16  C   UNL     1      27.086  22.907  25.697  0.00  0.00    +0.000 A 
ATOM     17  C   UNL     1      28.433  22.625  25.840  0.00  0.00    +0.000 A 
BRANCH  12  19
ATOM     18  C   UNL     1      31.682  23.300  24.587  0.00  0.00    +0.000 C 
ATOM     19  O   UNL     1      30.618  22.447  24.976  0.00  0.00    +0.000 OA
ENDBRANCH  12  19
ENDBRANCH   1  17
TORSDOF 3
ENDMDL
MODEL 6
REMARK VINA RESULT:      -5.8     18.846     20.354
REMARK  Name = 
REMARK  3 active torsions:
REMARK  status: ('A' for Active; 'I' for Inactive)
REMARK    1  A    between atoms: O_2  and  C_3
REMARK    2  A    between atoms: C_8  and  N_9
REMARK    3  A    between atoms: C_10  and  C_12
REMARK                            x       y       z     vdW  Elec       q    Type
REMARK                         _______ _______ _______ _____ _____    ______ ____
ROOT
ATOM      1  N   UNL     1      30.642  21.949  27.576  0.00  0.00    +0.000 NA
ATOM      2  C   UNL     1      30.954  22.795  28.664  0.00  0.00    +0.000 C 
ATOM      3  O   UNL     1      30.860  24.025  28.457  0.00  0.00    +0.000 OA
ENDROOT
BRANCH   2   4
ATOM      4  C   UNL     1      31.372  22.272  29.992  0.00  0.00    +0.000 A 
ATOM      5  C   UNL     1      30.447  22.136  30.997  0.00  0.00    +0.000 A 
ATOM      6  N   UNL     1      29.041  22.439  30.971  0.00  0.00    +0.000 NA
ATOM      7  S   UNL     1      31.364  21.520  32.290  0.00  0.00    +0.000 S 
ATOM      8  C   UNL     1      32.891  21.449  31.533  0.00  0.00    +0.000 A 
ATOM      9  C   UNL     1      34.219  20.987  32.092  0.00  0.00    +0.000 C 
ATOM     10  C   UNL     1      32.633  21.916  30.273  0.00  0.00    +0.000 A 
ATOM     11  C   UNL     1      33.777  22.002  29.277  0.00  0.00    +0.000 C 
ENDBRANCH   2   4
BRANCH   1  17
ATOM     12  C   UNL     1      28.911  22.598  25.990  0.00  0.00    +0.000 A 
ATOM     13  C   UNL     1      28.592  23.119  24.755  0.00  0.00    +0.000 A 
ATOM     14  C   UNL     1      29.534  23.519  23.846  0.00  0.00    +0.000 A 
ATOM     15  C   UNL     1      30.858  23.390  24.194  0.00  0.00    +0.000 A 
ATOM     16  C   UNL     1      31.225  22.873  25.423  0.00  0.00    +0.000 A 
ATOM     17  C   UNL     1      30.244  22.479  26.316  0.00  0.00    +0.000 A 
BRANCH  12  19
ATOM     18  C   UNL     1      27.231  23.083  27.723  0.00  0.00    +0.000 C 
ATOM     19  O   UNL     1      27.985  22.189  26.920  0.00  0.00    +0.000 OA
ENDBRANCH  12  19
ENDBRANCH   1  17
TORSDOF 3
ENDMDL
MODEL 7
REMARK VINA RESULT:      -5.8     21.373     23.304
REMARK  Name = 
REMARK  3 active torsions:
REMARK  status: ('A' for Active; 'I' for Inactive)
REMARK    1  A    between atoms: O_2  and  C_3
REMARK    2  A    between atoms: C_8  and  N_9
REMARK    3  A    between atoms: C_10  and  C_12
REMARK                            x       y       z     vdW  Elec       q    Type
REMARK                         _______ _______ _______ _____ _____    ______ ____
ROOT
ATOM      1  N   UNL     1      22.276  -7.751  25.595  0.00  0.00    +0.000 NA
ATOM      2  C   UNL     1      20.950  -7.849  25.119  0.00  0.00    +0.000 C 
ATOM      3  O   UNL     1      20.814  -8.057  23.892  0.00  0.00    +0.000 OA
ENDROOT
BRANCH   2   4
ATOM      4  C   UNL     1      19.765  -7.716  26.008  0.00  0.00    +0.000 A 
ATOM      5  C   UNL     1      19.193  -6.484  26.207  0.00  0.00    +0.000 A 
ATOM      6  N   UNL     1      19.583  -5.213  25.658  0.00  0.00    +0.000 NA
ATOM      7  S   UNL     1      17.906  -6.819  27.268  0.00  0.00    +0.000 S 
ATOM      8  C   UNL     1      18.120  -8.504  27.434  0.00  0.00    +0.000 A 
ATOM      9  C   UNL     1      17.319  -9.497  28.246  0.00  0.00    +0.000 C 
ATOM     10  C   UNL     1      19.208  -8.756  26.642  0.00  0.00    +0.000 A 
ATOM     11  C   UNL     1      19.714 -10.184  26.531  0.00  0.00    +0.000 C 
ENDBRANCH   2   4
BRANCH   1  17
ATOM     12  C   UNL     1      23.938  -9.118  24.454  0.00  0.00    +0.000 A 
ATOM     13  C   UNL     1      25.014  -9.178  23.597  0.00  0.00    +0.000 A 
ATOM     14  C   UNL     1      25.560  -8.072  23.004  0.00  0.00    +0.000 A 
ATOM     15  C   UNL     1      24.997  -6.849  23.283  0.00  0.00    +0.000 A 
ATOM     16  C   UNL     1      23.914  -6.742  24.138  0.00  0.00    +0.000 A 
ATOM     17  C   UNL     1      23.390  -7.882  24.719  0.00  0.00    +0.000 A 
BRANCH  12  19
ATOM     18  C   UNL     1      23.965 -10.900  26.153  0.00  0.00    +0.000 C 
ATOM     19  O   UNL     1      23.371 -10.213  25.063  0.00  0.00    +0.000 OA
ENDBRANCH  12  19
ENDBRANCH   1  17
TORSDOF 3
ENDMDL
MODEL 8
REMARK VINA RESULT:      -5.8     29.088     31.463
REMARK  Name = 
REMARK  3 active torsions:
REMARK  status: ('A' for Active; 'I' for Inactive)
REMARK    1  A    between atoms: O_2  and  C_3
REMARK    2  A    between atoms: C_8  and  N_9
REMARK    3  A    between atoms: C_10  and  C_12
REMARK                            x       y       z     vdW  Elec       q    Type
REMARK                         _______ _______ _______ _____ _____    ______ ____
ROOT
ATOM      1  N   UNL     1      29.947  21.081  10.606  0.00  0.00    +0.000 NA
ATOM      2  C   UNL     1      30.749  21.615   9.574  0.00  0.00    +0.000 C 
ATOM      3  O   UNL     1      30.618  22.838   9.343  0.00  0.00    +0.000 OA
ENDROOT
BRANCH   2   4
ATOM      4  C   UNL     1      31.705  20.787   8.790  0.00  0.00    +0.000 A 
ATOM      5  C   UNL     1      31.299  20.194   7.621  0.00  0.00    +0.000 A 
ATOM      6  N   UNL     1      30.009  20.247   6.988  0.00  0.00    +0.000 NA
ATOM      7  S   UNL     1      32.694  19.375   7.095  0.00  0.00    +0.000 S 
ATOM      8  C   UNL     1      33.755  19.800   8.361  0.00  0.00    +0.000 A 
ATOM      9  C   UNL     1      35.206  19.422   8.566  0.00  0.00    +0.000 C 
ATOM     10  C   UNL     1      32.974  20.582   9.169  0.00  0.00    +0.000 A 
ATOM     11  C   UNL     1      33.583  21.164  10.433  0.00  0.00    +0.000 C 
ENDBRANCH   2   4
BRANCH   1  17
ATOM     12  C   UNL     1      29.466  22.619  12.433  0.00  0.00    +0.000 A 
ATOM     13  C   UNL     1      28.540  23.391  13.098  0.00  0.00    +0.000 A 
ATOM     14  C   UNL     1      27.226  23.473  12.722  0.00  0.00    +0.000 A 
ATOM     15  C   UNL     1      26.824  22.745  11.627  0.00  0.00    +0.000 A 
ATOM     16  C   UNL     1      27.720  21.956  10.928  0.00  0.00    +0.000 A 
ATOM     17  C   UNL     1      29.040  21.899  11.338  0.00  0.00    +0.000 A 
BRANCH  12  19
ATOM     18  C   UNL     1      31.368  21.347  13.342  0.00  0.00    +0.000 C 
ATOM     19  O   UNL     1      30.789  22.519  12.790  0.00  0.00    +0.000 OA
ENDBRANCH  12  19
ENDBRANCH   1  17
TORSDOF 3
ENDMDL
MODEL 9
REMARK VINA RESULT:      -5.8      3.779      6.634
REMARK  Name = 
REMARK  3 active torsions:
REMARK  status: ('A' for Active; 'I' for Inactive)
REMARK    1  A    between atoms: O_2  and  C_3
REMARK    2  A    between atoms: C_8  and  N_9
REMARK    3  A    between atoms: C_10  and  C_12
REMARK                            x       y       z     vdW  Elec       q    Type
REMARK                         _______ _______ _______ _____ _____    ______ ____
ROOT
ATOM      1  N   UNL     1      18.916  10.979  37.220  0.00  0.00    +0.000 NA
ATOM      2  C   UNL     1      17.872  10.230  36.633  0.00  0.00    +0.000 C 
ATOM      3  O   UNL     1      18.023   8.988  36.611  0.00  0.00    +0.000 OA
ENDROOT
BRANCH   2   4
ATOM      4  C   UNL     1      16.651  10.862  36.066  0.00  0.00    +0.000 A 
ATOM      5  C   UNL     1      16.561  11.087  34.715  0.00  0.00    +0.000 A 
ATOM      6  N   UNL     1      17.524  10.790  33.688  0.00  0.00    +0.000 NA
ATOM      7  S   UNL     1      15.030  11.806  34.541  0.00  0.00    +0.000 S 
ATOM      8  C   UNL     1      14.540  11.806  36.175  0.00  0.00    +0.000 A 
ATOM      9  C   UNL     1      13.252  12.306  36.791  0.00  0.00    +0.000 C 
ATOM     10  C   UNL     1      15.606  11.234  36.816  0.00  0.00    +0.000 A 
ATOM     11  C   UNL     1      15.542  11.057  38.324  0.00  0.00    +0.000 C 
ENDBRANCH   2   4
BRANCH   1  17
ATOM     12  C   UNL     1      20.098   9.907  39.060  0.00  0.00    +0.000 A 
ATOM     13  C   UNL     1      21.248   9.301  39.516  0.00  0.00    +0.000 A 
ATOM     14  C   UNL     1      22.357   9.119  38.735  0.00  0.00    +0.000 A 
ATOM     15  C   UNL     1      22.309   9.565  37.436  0.00  0.00    +0.000 A 
ATOM     16  C   UNL     1      21.175  10.178  36.935  0.00  0.00    +0.000 A 
ATOM     17  C   UNL     1      20.073  10.345  37.754  0.00  0.00    +0.000 A 
BRANCH  12  19
ATOM     18  C   UNL     1      18.101   9.056  40.221  0.00  0.00    +0.000 C 
ATOM     19  O   UNL     1      18.972  10.103  39.823  0.00  0.00    +0.000 OA
ENDBRANCH  12  19
ENDBRANCH   1  17
TORSDOF 3
ENDMDL
MODEL 10
REMARK VINA RESULT:      -5.7     18.783     20.280
REMARK  Name = 
REMARK  3 active torsions:
REMARK  status: ('A' for Active; 'I' for Inactive)
REMARK    1  A    between atoms: O_2  and  C_3
REMARK    2  A    between atoms: C_8  and  N_9
REMARK    3  A    between atoms: C_10  and  C_12
REMARK                            x       y       z     vdW  Elec       q    Type
REMARK                         _______ _______ _______ _____ _____    ______ ____
ROOT
ATOM      1  N   UNL     1      30.669  21.942  27.631  0.00  0.00    +0.000 NA
ATOM      2  C   UNL     1      31.062  22.798  28.684  0.00  0.00    +0.000 C 
ATOM      3  O   UNL     1      31.015  24.026  28.449  0.00  0.00    +0.000 OA
ENDROOT
BRANCH   2   4
ATOM      4  C   UNL     1      31.510  22.288  30.008  0.00  0.00    +0.000 A 
ATOM      5  C   UNL     1      32.830  21.968  30.207  0.00  0.00    +0.000 A 
ATOM      6  N   UNL     1      33.925  22.051  29.278  0.00  0.00    +0.000 NA
ATOM      7  S   UNL     1      32.864  21.446  31.825  0.00  0.00    +0.000 S 
ATOM      8  C   UNL     1      31.214  21.644  32.212  0.00  0.00    +0.000 A 
ATOM      9  C   UNL     1      30.493  21.370  33.514  0.00  0.00    +0.000 C 
ATOM     10  C   UNL     1      30.679  22.120  31.045  0.00  0.00    +0.000 A 
ATOM     11  C   UNL     1      29.192  22.426  30.995  0.00  0.00    +0.000 C 
ENDBRANCH   2   4
BRANCH   1  17
ATOM     12  C   UNL     1      28.905  22.586  26.079  0.00  0.00    +0.000 A 
ATOM     13  C   UNL     1      28.560  23.094  24.847  0.00  0.00    +0.000 A 
ATOM     14  C   UNL     1      29.483  23.474  23.910  0.00  0.00    +0.000 A 
ATOM     15  C   UNL     1      30.814  23.339  24.227  0.00  0.00    +0.000 A 
ATOM     16  C   UNL     1      31.206  22.833  25.454  0.00  0.00    +0.000 A 
ATOM     17  C   UNL     1      30.245  22.459  26.375  0.00  0.00    +0.000 A 
BRANCH  12  19
ATOM     18  C   UNL     1      27.152  23.098  27.730  0.00  0.00    +0.000 C 
ATOM     19  O   UNL     1      27.999  22.196  27.037  0.00  0.00    +0.000 OA
ENDBRANCH  12  19
ENDBRANCH   1  17
TORSDOF 3
ENDMDL
