MODEL 1
REMARK VINA RESULT:      -8.2      0.000      0.000
REMARK  Name = 
REMARK  6 active torsions:
REMARK  status: ('A' for Active; 'I' for Inactive)
REMARK    1  A    between atoms: O_2  and  C_3
REMARK    2  A    between atoms: C_6  and  C_7
REMARK    3  A    between atoms: C_7  and  N_8
REMARK    4  A    between atoms: C_11  and  C_12
REMARK    5  A    between atoms: C_12  and  O_14
REMARK    6  A    between atoms: O_14  and  C_15
REMARK                            x       y       z     vdW  Elec       q    Type
REMARK                         _______ _______ _______ _____ _____    ______ ____
ROOT
ATOM      1  N   UNL     1      36.893   1.275  15.729  0.00  0.00    +0.000 N 
ATOM      2  C   UNL     1      36.066   0.522  16.442  0.00  0.00    +0.000 A 
ATOM      3  N   UNL     1      34.815   0.960  16.954  0.00  0.00    +0.000 NA
ATOM      4  C   UNL     1      36.577  -0.746  16.624  0.00  0.00    +0.000 A 
ATOM      5  C   UNL     1      37.792  -0.753  15.976  0.00  0.00    +0.000 A 
ATOM      6  N   UNL     1      38.738  -1.700  15.811  0.00  0.00    +0.000 NA
ATOM      7  C   UNL     1      39.865  -1.413  15.103  0.00  0.00    +0.000 A 
ATOM      8  C   UNL     1      40.852  -2.357  14.914  0.00  0.00    +0.000 A 
ATOM      9  C   UNL     1      42.002  -2.073  14.197  0.00  0.00    +0.000 A 
ATOM     10  C   UNL     1      42.200  -0.821  13.641  0.00  0.00    +0.000 A 
ATOM     11  C   UNL     1      41.207   0.117  13.835  0.00  0.00    +0.000 A 
ATOM     12  C   UNL     1      40.063  -0.166  14.550  0.00  0.00    +0.000 A 
ATOM     13  N   UNL     1      39.088   0.752  14.741  0.00  0.00    +0.000 NA
ATOM     14  C   UNL     1      37.970   0.511  15.427  0.00  0.00    +0.000 A 
ENDROOT
BRANCH   4  15
ATOM     15  C   UNL     1      35.956  -1.862  17.358  0.00  0.00    +0.000 C 
ATOM     16  O   UNL     1      36.437  -2.191  18.470  0.00  0.00    +0.000 OA
BRANCH  15  17
ATOM     17  O   UNL     1      34.878  -2.552  16.879  0.00  0.00    +0.000 OA
BRANCH  17  18
ATOM     18  C   UNL     1      34.866  -3.291  15.678  0.00  0.00    +0.000 C 
ATOM     19  C   UNL     1      33.530  -3.866  15.355  0.00  0.00    +0.000 C 
ATOM     20  C   UNL     1      33.714  -4.835  14.182  0.00  0.00    +0.000 C 
ATOM     21  C   UNL     1      34.487  -6.053  14.660  0.00  0.00    +0.000 C 
ATOM     22  C   UNL     1      35.349  -5.668  15.864  0.00  0.00    +0.000 C 
ATOM     23  C   UNL     1      35.967  -4.306  15.593  0.00  0.00    +0.000 C 
ENDBRANCH  17  18
ENDBRANCH  15  17
ENDBRANCH   4  15
BRANCH   1  24
ATOM     24  C   UNL     1      36.727   2.654  15.323  0.00  0.00    +0.000 C 
BRANCH  24  28
ATOM     25  C   UNL     1      39.444   5.355  17.222  0.00  0.00    +0.000 A 
ATOM     26  C   UNL     1      39.467   5.136  15.860  0.00  0.00    +0.000 A 
ATOM     27  C   UNL     1      38.573   4.255  15.278  0.00  0.00    +0.000 A 
ATOM     28  C   UNL     1      37.634   3.569  16.025  0.00  0.00    +0.000 A 
ATOM     29  C   UNL     1      37.621   3.795  17.377  0.00  0.00    +0.000 A 
ATOM     30  C   UNL     1      38.519   4.679  17.962  0.00  0.00    +0.000 A 
BRANCH  25  32
ATOM     31  C   UNL     1      40.427   6.425  19.179  0.00  0.00    +0.000 C 
ATOM     32  O   UNL     1      40.359   6.250  17.778  0.00  0.00    +0.000 OA
ENDBRANCH  25  32
ENDBRANCH  24  28
ENDBRANCH   1  24
TORSDOF 6
ENDMDL
MODEL 2
REMARK VINA RESULT:      -8.1      1.859      2.595
REMARK  Name = 
REMARK  6 active torsions:
REMARK  status: ('A' for Active; 'I' for Inactive)
REMARK    1  A    between atoms: O_2  and  C_3
REMARK    2  A    between atoms: C_6  and  C_7
REMARK    3  A    between atoms: C_7  and  N_8
REMARK    4  A    between atoms: C_11  and  C_12
REMARK    5  A    between atoms: C_12  and  O_14
REMARK    6  A    between atoms: O_14  and  C_15
REMARK                            x       y       z     vdW  Elec       q    Type
REMARK                         _______ _______ _______ _____ _____    ______ ____
ROOT
ATOM      1  N   UNL     1      37.585   2.686  15.311  0.00  0.00    +0.000 N 
ATOM      2  C   UNL     1      36.482   2.155  15.823  0.00  0.00    +0.000 A 
ATOM      3  N   UNL     1      35.334   2.897  16.208  0.00  0.00    +0.000 NA
ATOM      4  C   UNL     1      36.594   0.784  15.933  0.00  0.00    +0.000 A 
ATOM      5  C   UNL     1      37.847   0.474  15.455  0.00  0.00    +0.000 A 
ATOM      6  N   UNL     1      38.513  -0.691  15.316  0.00  0.00    +0.000 NA
ATOM      7  C   UNL     1      39.773  -0.690  14.799  0.00  0.00    +0.000 A 
ATOM      8  C   UNL     1      40.483  -1.863  14.642  0.00  0.00    +0.000 A 
ATOM      9  C   UNL     1      41.764  -1.872  14.119  0.00  0.00    +0.000 A 
ATOM     10  C   UNL     1      42.380  -0.694  13.732  0.00  0.00    +0.000 A 
ATOM     11  C   UNL     1      41.663   0.473  13.893  0.00  0.00    +0.000 A 
ATOM     12  C   UNL     1      40.387   0.482  14.414  0.00  0.00    +0.000 A 
ATOM     13  N   UNL     1      39.682   1.625  14.573  0.00  0.00    +0.000 NA
ATOM     14  C   UNL     1      38.447   1.668  15.074  0.00  0.00    +0.000 A 
ENDROOT
BRANCH   4  15
ATOM     15  C   UNL     1      35.584  -0.153  16.453  0.00  0.00    +0.000 C 
ATOM     16  O   UNL     1      34.491   0.308  16.865  0.00  0.00    +0.000 OA
BRANCH  15  17
ATOM     17  O   UNL     1      35.787  -1.504  16.506  0.00  0.00    +0.000 OA
BRANCH  17  18
ATOM     18  C   UNL     1      36.202  -2.210  17.654  0.00  0.00    +0.000 C 
ATOM     19  C   UNL     1      36.891  -1.350  18.656  0.00  0.00    +0.000 C 
ATOM     20  C   UNL     1      37.500  -2.272  19.718  0.00  0.00    +0.000 C 
ATOM     21  C   UNL     1      38.654  -3.046  19.101  0.00  0.00    +0.000 C 
ATOM     22  C   UNL     1      38.440  -3.162  17.591  0.00  0.00    +0.000 C 
ATOM     23  C   UNL     1      36.970  -3.460  17.340  0.00  0.00    +0.000 C 
ENDBRANCH  17  18
ENDBRANCH  15  17
ENDBRANCH   4  15
BRANCH   1  24
ATOM     24  C   UNL     1      37.866   4.079  15.037  0.00  0.00    +0.000 C 
BRANCH  24  28
ATOM     25  C   UNL     1      40.314   5.990  17.976  0.00  0.00    +0.000 A 
ATOM     26  C   UNL     1      40.604   6.061  16.629  0.00  0.00    +0.000 A 
ATOM     27  C   UNL     1      39.790   5.431  15.704  0.00  0.00    +0.000 A 
ATOM     28  C   UNL     1      38.670   4.715  16.086  0.00  0.00    +0.000 A 
ATOM     29  C   UNL     1      38.394   4.653  17.427  0.00  0.00    +0.000 A 
ATOM     30  C   UNL     1      39.210   5.285  18.356  0.00  0.00    +0.000 A 
BRANCH  25  32
ATOM     31  C   UNL     1      40.772   6.782  20.235  0.00  0.00    +0.000 C 
ATOM     32  O   UNL     1      41.155   6.637  18.883  0.00  0.00    +0.000 OA
ENDBRANCH  25  32
ENDBRANCH  24  28
ENDBRANCH   1  24
TORSDOF 6
ENDMDL
MODEL 3
REMARK VINA RESULT:      -7.9      2.900      6.730
REMARK  Name = 
REMARK  6 active torsions:
REMARK  status: ('A' for Active; 'I' for Inactive)
REMARK    1  A    between atoms: O_2  and  C_3
REMARK    2  A    between atoms: C_6  and  C_7
REMARK    3  A    between atoms: C_7  and  N_8
REMARK    4  A    between atoms: C_11  and  C_12
REMARK    5  A    between atoms: C_12  and  O_14
REMARK    6  A    between atoms: O_14  and  C_15
REMARK                            x       y       z     vdW  Elec       q    Type
REMARK                         _______ _______ _______ _____ _____    ______ ____
ROOT
ATOM      1  N   UNL     1      36.546   2.354  15.701  0.00  0.00    +0.000 N 
ATOM      2  C   UNL     1      36.719   2.168  14.399  0.00  0.00    +0.000 A 
ATOM      3  N   UNL     1      35.946   1.283  13.602  0.00  0.00    +0.000 NA
ATOM      4  C   UNL     1      37.749   2.949  13.918  0.00  0.00    +0.000 A 
ATOM      5  C   UNL     1      38.225   3.648  15.003  0.00  0.00    +0.000 A 
ATOM      6  N   UNL     1      39.214   4.554  15.149  0.00  0.00    +0.000 NA
ATOM      7  C   UNL     1      39.461   5.091  16.375  0.00  0.00    +0.000 A 
ATOM      8  C   UNL     1      40.464   6.020  16.561  0.00  0.00    +0.000 A 
ATOM      9  C   UNL     1      40.724   6.571  17.804  0.00  0.00    +0.000 A 
ATOM     10  C   UNL     1      39.979   6.204  18.912  0.00  0.00    +0.000 A 
ATOM     11  C   UNL     1      38.978   5.275  18.717  0.00  0.00    +0.000 A 
ATOM     12  C   UNL     1      38.720   4.727  17.479  0.00  0.00    +0.000 A 
ATOM     13  N   UNL     1      37.740   3.815  17.285  0.00  0.00    +0.000 NA
ATOM     14  C   UNL     1      37.465   3.265  16.101  0.00  0.00    +0.000 A 
ENDROOT
BRANCH   4  15
ATOM     15  C   UNL     1      38.240   3.020  12.531  0.00  0.00    +0.000 C 
ATOM     16  O   UNL     1      37.458   3.429  11.637  0.00  0.00    +0.000 OA
BRANCH  15  17
ATOM     17  O   UNL     1      39.510   2.660  12.176  0.00  0.00    +0.000 OA
BRANCH  17  18
ATOM     18  C   UNL     1      40.033   1.355  12.280  0.00  0.00    +0.000 C 
ATOM     19  C   UNL     1      39.024   0.293  12.010  0.00  0.00    +0.000 C 
ATOM     20  C   UNL     1      39.650  -1.051  12.396  0.00  0.00    +0.000 C 
ATOM     21  C   UNL     1      39.797  -1.115  13.908  0.00  0.00    +0.000 C 
ATOM     22  C   UNL     1      39.899   0.304  14.470  0.00  0.00    +0.000 C 
ATOM     23  C   UNL     1      40.795   1.117  13.551  0.00  0.00    +0.000 C 
ENDBRANCH  17  18
ENDBRANCH  15  17
ENDBRANCH   4  15
BRANCH   1  24
ATOM     24  C   UNL     1      35.576   1.730  16.576  0.00  0.00    +0.000 C 
BRANCH  24  28
ATOM     25  C   UNL     1      37.221  -1.708  18.517  0.00  0.00    +0.000 A 
ATOM     26  C   UNL     1      37.386  -1.485  17.166  0.00  0.00    +0.000 A 
ATOM     27  C   UNL     1      36.841  -0.362  16.569  0.00  0.00    +0.000 A 
ATOM     28  C   UNL     1      36.119   0.569  17.292  0.00  0.00    +0.000 A 
ATOM     29  C   UNL     1      35.962   0.337  18.634  0.00  0.00    +0.000 A 
ATOM     30  C   UNL     1      36.509  -0.790  19.233  0.00  0.00    +0.000 A 
BRANCH  25  32
ATOM     31  C   UNL     1      38.586  -3.716  18.312  0.00  0.00    +0.000 C 
ATOM     32  O   UNL     1      37.784  -2.850  19.088  0.00  0.00    +0.000 OA
ENDBRANCH  25  32
ENDBRANCH  24  28
ENDBRANCH   1  24
TORSDOF 6
ENDMDL
MODEL 4
REMARK VINA RESULT:      -7.9      1.802      7.829
REMARK  Name = 
REMARK  6 active torsions:
REMARK  status: ('A' for Active; 'I' for Inactive)
REMARK    1  A    between atoms: O_2  and  C_3
REMARK    2  A    between atoms: C_6  and  C_7
REMARK    3  A    between atoms: C_7  and  N_8
REMARK    4  A    between atoms: C_11  and  C_12
REMARK    5  A    between atoms: C_12  and  O_14
REMARK    6  A    between atoms: O_14  and  C_15
REMARK                            x       y       z     vdW  Elec       q    Type
REMARK                         _______ _______ _______ _____ _____    ______ ____
ROOT
ATOM      1  N   UNL     1      36.587  -0.992  16.747  0.00  0.00    +0.000 N 
ATOM      2  C   UNL     1      35.954   0.163  16.589  0.00  0.00    +0.000 A 
ATOM      3  N   UNL     1      34.679   0.465  17.138  0.00  0.00    +0.000 NA
ATOM      4  C   UNL     1      36.695   1.036  15.821  0.00  0.00    +0.000 A 
ATOM      5  C   UNL     1      37.849   0.358  15.497  0.00  0.00    +0.000 A 
ATOM      6  N   UNL     1      38.938   0.694  14.775  0.00  0.00    +0.000 NA
ATOM      7  C   UNL     1      39.949  -0.204  14.622  0.00  0.00    +0.000 A 
ATOM      8  C   UNL     1      41.077   0.105  13.890  0.00  0.00    +0.000 A 
ATOM      9  C   UNL     1      42.110  -0.803  13.729  0.00  0.00    +0.000 A 
ATOM     10  C   UNL     1      42.045  -2.061  14.302  0.00  0.00    +0.000 A 
ATOM     11  C   UNL     1      40.914  -2.361  15.032  0.00  0.00    +0.000 A 
ATOM     12  C   UNL     1      39.885  -1.458  15.192  0.00  0.00    +0.000 A 
ATOM     13  N   UNL     1      38.775  -1.750  15.908  0.00  0.00    +0.000 NA
ATOM     14  C   UNL     1      37.763  -0.899  16.081  0.00  0.00    +0.000 A 
ENDROOT
BRANCH   4  15
ATOM     15  C   UNL     1      36.331   2.408  15.428  0.00  0.00    +0.000 C 
ATOM     16  O   UNL     1      35.706   2.578  14.351  0.00  0.00    +0.000 OA
BRANCH  15  17
ATOM     17  O   UNL     1      36.643   3.502  16.185  0.00  0.00    +0.000 OA
BRANCH  17  18
ATOM     18  C   UNL     1      37.938   4.042  16.321  0.00  0.00    +0.000 C 
ATOM     19  C   UNL     1      38.195   4.622  17.668  0.00  0.00    +0.000 C 
ATOM     20  C   UNL     1      39.522   5.384  17.599  0.00  0.00    +0.000 C 
ATOM     21  C   UNL     1      39.340   6.624  16.739  0.00  0.00    +0.000 C 
ATOM     22  C   UNL     1      38.197   6.393  15.750  0.00  0.00    +0.000 C 
ATOM     23  C   UNL     1      38.313   4.977  15.209  0.00  0.00    +0.000 C 
ENDBRANCH  17  18
ENDBRANCH  15  17
ENDBRANCH   4  15
BRANCH   1  24
ATOM     24  C   UNL     1      36.150  -2.162  17.480  0.00  0.00    +0.000 C 
BRANCH  24  28
ATOM     25  C   UNL     1      34.619  -5.281  14.987  0.00  0.00    +0.000 A 
ATOM     26  C   UNL     1      35.801  -5.420  15.685  0.00  0.00    +0.000 A 
ATOM     27  C   UNL     1      36.267  -4.391  16.484  0.00  0.00    +0.000 A 
ATOM     28  C   UNL     1      35.579  -3.198  16.612  0.00  0.00    +0.000 A 
ATOM     29  C   UNL     1      34.407  -3.073  15.913  0.00  0.00    +0.000 A 
ATOM     30  C   UNL     1      33.939  -4.105  15.111  0.00  0.00    +0.000 A 
BRANCH  25  32
ATOM     31  C   UNL     1      33.829  -7.577  14.775  0.00  0.00    +0.000 C 
ATOM     32  O   UNL     1      34.176  -6.338  14.190  0.00  0.00    +0.000 OA
ENDBRANCH  25  32
ENDBRANCH  24  28
ENDBRANCH   1  24
TORSDOF 6
ENDMDL
MODEL 5
REMARK VINA RESULT:      -7.8      3.549      6.021
REMARK  Name = 
REMARK  6 active torsions:
REMARK  status: ('A' for Active; 'I' for Inactive)
REMARK    1  A    between atoms: O_2  and  C_3
REMARK    2  A    between atoms: C_6  and  C_7
REMARK    3  A    between atoms: C_7  and  N_8
REMARK    4  A    between atoms: C_11  and  C_12
REMARK    5  A    between atoms: C_12  and  O_14
REMARK    6  A    between atoms: O_14  and  C_15
REMARK                            x       y       z     vdW  Elec       q    Type
REMARK                         _______ _______ _______ _____ _____    ______ ____
ROOT
ATOM      1  N   UNL     1      37.426   3.221  14.208  0.00  0.00    +0.000 N 
ATOM      2  C   UNL     1      36.588   2.333  14.726  0.00  0.00    +0.000 A 
ATOM      3  N   UNL     1      35.788   1.440  13.965  0.00  0.00    +0.000 NA
ATOM      4  C   UNL     1      36.594   2.388  16.104  0.00  0.00    +0.000 A 
ATOM      5  C   UNL     1      37.496   3.375  16.433  0.00  0.00    +0.000 A 
ATOM      6  N   UNL     1      37.918   3.875  17.613  0.00  0.00    +0.000 NA
ATOM      7  C   UNL     1      38.843   4.874  17.629  0.00  0.00    +0.000 A 
ATOM      8  C   UNL     1      39.298   5.409  18.817  0.00  0.00    +0.000 A 
ATOM      9  C   UNL     1      40.237   6.426  18.843  0.00  0.00    +0.000 A 
ATOM     10  C   UNL     1      40.755   6.944  17.668  0.00  0.00    +0.000 A 
ATOM     11  C   UNL     1      40.294   6.403  16.486  0.00  0.00    +0.000 A 
ATOM     12  C   UNL     1      39.359   5.391  16.460  0.00  0.00    +0.000 A 
ATOM     13  N   UNL     1      38.905   4.859  15.302  0.00  0.00    +0.000 NA
ATOM     14  C   UNL     1      38.001   3.880  15.242  0.00  0.00    +0.000 A 
ENDROOT
BRANCH   4  15
ATOM     15  C   UNL     1      35.801   1.564  17.033  0.00  0.00    +0.000 C 
ATOM     16  O   UNL     1      34.549   1.575  16.927  0.00  0.00    +0.000 OA
BRANCH  15  17
ATOM     17  O   UNL     1      36.370   0.788  18.003  0.00  0.00    +0.000 OA
BRANCH  17  18
ATOM     18  C   UNL     1      36.507  -0.613  17.934  0.00  0.00    +0.000 C 
ATOM     19  C   UNL     1      37.443  -1.164  18.953  0.00  0.00    +0.000 C 
ATOM     20  C   UNL     1      37.688  -2.637  18.609  0.00  0.00    +0.000 C 
ATOM     21  C   UNL     1      38.508  -2.721  17.332  0.00  0.00    +0.000 C 
ATOM     22  C   UNL     1      38.278  -1.460  16.497  0.00  0.00    +0.000 C 
ATOM     23  C   UNL     1      36.798  -1.116  16.550  0.00  0.00    +0.000 C 
ENDBRANCH  17  18
ENDBRANCH  15  17
ENDBRANCH   4  15
BRANCH   1  24
ATOM     24  C   UNL     1      37.711   3.478  12.812  0.00  0.00    +0.000 C 
BRANCH  24  28
ATOM     25  C   UNL     1      35.255   6.462  10.981  0.00  0.00    +0.000 A 
ATOM     26  C   UNL     1      36.118   5.676  10.245  0.00  0.00    +0.000 A 
ATOM     27  C   UNL     1      36.898   4.719  10.870  0.00  0.00    +0.000 A 
ATOM     28  C   UNL     1      36.846   4.515  12.236  0.00  0.00    +0.000 A 
ATOM     29  C   UNL     1      35.985   5.302  12.955  0.00  0.00    +0.000 A 
ATOM     30  C   UNL     1      35.202   6.263  12.329  0.00  0.00    +0.000 A 
BRANCH  25  32
ATOM     31  C   UNL     1      34.134   7.243   8.962  0.00  0.00    +0.000 C 
ATOM     32  O   UNL     1      34.481   7.418  10.321  0.00  0.00    +0.000 OA
ENDBRANCH  25  32
ENDBRANCH  24  28
ENDBRANCH   1  24
TORSDOF 6
ENDMDL
MODEL 6
REMARK VINA RESULT:      -7.8      2.824      6.257
REMARK  Name = 
REMARK  6 active torsions:
REMARK  status: ('A' for Active; 'I' for Inactive)
REMARK    1  A    between atoms: O_2  and  C_3
REMARK    2  A    between atoms: C_6  and  C_7
REMARK    3  A    between atoms: C_7  and  N_8
REMARK    4  A    between atoms: C_11  and  C_12
REMARK    5  A    between atoms: C_12  and  O_14
REMARK    6  A    between atoms: O_14  and  C_15
REMARK                            x       y       z     vdW  Elec       q    Type
REMARK                         _______ _______ _______ _____ _____    ______ ____
ROOT
ATOM      1  N   UNL     1      39.506  -1.075  15.128  0.00  0.00    +0.000 N 
ATOM      2  C   UNL     1      39.096  -2.065  15.910  0.00  0.00    +0.000 A 
ATOM      3  N   UNL     1      39.860  -3.224  16.213  0.00  0.00    +0.000 NA
ATOM      4  C   UNL     1      37.827  -1.824  16.395  0.00  0.00    +0.000 A 
ATOM      5  C   UNL     1      37.452  -0.609  15.867  0.00  0.00    +0.000 A 
ATOM      6  N   UNL     1      36.333   0.135  15.983  0.00  0.00    +0.000 NA
ATOM      7  C   UNL     1      36.244   1.326  15.329  0.00  0.00    +0.000 A 
ATOM      8  C   UNL     1      35.115   2.113  15.425  0.00  0.00    +0.000 A 
ATOM      9  C   UNL     1      35.016   3.325  14.763  0.00  0.00    +0.000 A 
ATOM     10  C   UNL     1      36.055   3.791  13.977  0.00  0.00    +0.000 A 
ATOM     11  C   UNL     1      37.180   2.998  13.887  0.00  0.00    +0.000 A 
ATOM     12  C   UNL     1      37.279   1.791  14.546  0.00  0.00    +0.000 A 
ATOM     13  N   UNL     1      38.381   1.012  14.459  0.00  0.00    +0.000 NA
ATOM     14  C   UNL     1      38.508  -0.160  15.084  0.00  0.00    +0.000 A 
ENDROOT
BRANCH   4  15
ATOM     15  C   UNL     1      37.036  -2.686  17.290  0.00  0.00    +0.000 C 
ATOM     16  O   UNL     1      37.519  -2.996  18.407  0.00  0.00    +0.000 OA
BRANCH  15  17
ATOM     17  O   UNL     1      35.799  -3.161  16.956  0.00  0.00    +0.000 OA
BRANCH  17  18
ATOM     18  C   UNL     1      35.485  -3.798  15.738  0.00  0.00    +0.000 C 
ATOM     19  C   UNL     1      34.028  -3.789  15.429  0.00  0.00    +0.000 C 
ATOM     20  C   UNL     1      33.804  -4.717  14.229  0.00  0.00    +0.000 C 
ATOM     21  C   UNL     1      34.037  -6.155  14.662  0.00  0.00    +0.000 C 
ATOM     22  C   UNL     1      34.992  -6.178  15.858  0.00  0.00    +0.000 C 
ATOM     23  C   UNL     1      36.095  -5.163  15.606  0.00  0.00    +0.000 C 
ENDBRANCH  17  18
ENDBRANCH  15  17
ENDBRANCH   4  15
BRANCH   1  24
ATOM     24  C   UNL     1      40.768  -0.947  14.430  0.00  0.00    +0.000 C 
BRANCH  24  28
ATOM     25  C   UNL     1      41.029  -3.266  10.847  0.00  0.00    +0.000 A 
ATOM     26  C   UNL     1      41.942  -3.404  11.872  0.00  0.00    +0.000 A 
ATOM     27  C   UNL     1      41.827  -2.638  13.019  0.00  0.00    +0.000 A 
ATOM     28  C   UNL     1      40.809  -1.716  13.181  0.00  0.00    +0.000 A 
ATOM     29  C   UNL     1      39.910  -1.588  12.155  0.00  0.00    +0.000 A 
ATOM     30  C   UNL     1      40.024  -2.357  11.004  0.00  0.00    +0.000 A 
BRANCH  25  32
ATOM     31  C   UNL     1      42.045  -5.165   9.706  0.00  0.00    +0.000 C 
ATOM     32  O   UNL     1      41.172  -4.054   9.704  0.00  0.00    +0.000 OA
ENDBRANCH  25  32
ENDBRANCH  24  28
ENDBRANCH   1  24
TORSDOF 6
ENDMDL
MODEL 7
REMARK VINA RESULT:      -7.7      2.840      6.086
REMARK  Name = 
REMARK  6 active torsions:
REMARK  status: ('A' for Active; 'I' for Inactive)
REMARK    1  A    between atoms: O_2  and  C_3
REMARK    2  A    between atoms: C_6  and  C_7
REMARK    3  A    between atoms: C_7  and  N_8
REMARK    4  A    between atoms: C_11  and  C_12
REMARK    5  A    between atoms: C_12  and  O_14
REMARK    6  A    between atoms: O_14  and  C_15
REMARK                            x       y       z     vdW  Elec       q    Type
REMARK                         _______ _______ _______ _____ _____    ______ ____
ROOT
ATOM      1  N   UNL     1      37.874   2.641  14.340  0.00  0.00    +0.000 N 
ATOM      2  C   UNL     1      36.894   1.894  14.832  0.00  0.00    +0.000 A 
ATOM      3  N   UNL     1      36.173   0.920  14.091  0.00  0.00    +0.000 NA
ATOM      4  C   UNL     1      36.665   2.185  16.161  0.00  0.00    +0.000 A 
ATOM      5  C   UNL     1      37.568   3.172  16.486  0.00  0.00    +0.000 A 
ATOM      6  N   UNL     1      37.817   3.848  17.627  0.00  0.00    +0.000 NA
ATOM      7  C   UNL     1      38.796   4.793  17.651  0.00  0.00    +0.000 A 
ATOM      8  C   UNL     1      39.078   5.503  18.800  0.00  0.00    +0.000 A 
ATOM      9  C   UNL     1      40.072   6.466  18.834  0.00  0.00    +0.000 A 
ATOM     10  C   UNL     1      40.823   6.750  17.706  0.00  0.00    +0.000 A 
ATOM     11  C   UNL     1      40.535   6.035  16.563  0.00  0.00    +0.000 A 
ATOM     12  C   UNL     1      39.545   5.077  16.529  0.00  0.00    +0.000 A 
ATOM     13  N   UNL     1      39.260   4.375  15.408  0.00  0.00    +0.000 NA
ATOM     14  C   UNL     1      38.309   3.442  15.342  0.00  0.00    +0.000 A 
ENDROOT
BRANCH   4  15
ATOM     15  C   UNL     1      35.664   1.569  17.048  0.00  0.00    +0.000 C 
ATOM     16  O   UNL     1      34.448   1.688  16.757  0.00  0.00    +0.000 OA
BRANCH  15  17
ATOM     17  O   UNL     1      36.003   0.874  18.175  0.00  0.00    +0.000 OA
BRANCH  17  18
ATOM     18  C   UNL     1      36.209  -0.519  18.228  0.00  0.00    +0.000 C 
ATOM     19  C   UNL     1      37.299  -0.918  19.163  0.00  0.00    +0.000 C 
ATOM     20  C   UNL     1      37.581  -2.407  18.937  0.00  0.00    +0.000 C 
ATOM     21  C   UNL     1      38.235  -2.588  17.577  0.00  0.00    +0.000 C 
ATOM     22  C   UNL     1      37.829  -1.434  16.659  0.00  0.00    +0.000 C 
ATOM     23  C   UNL     1      36.351  -1.152  16.874  0.00  0.00    +0.000 C 
ENDBRANCH  17  18
ENDBRANCH  15  17
ENDBRANCH   4  15
BRANCH   1  24
ATOM     24  C   UNL     1      38.414   2.642  12.997  0.00  0.00    +0.000 C 
BRANCH  24  28
ATOM     25  C   UNL     1      40.782  -0.839  12.243  0.00  0.00    +0.000 A 
ATOM     26  C   UNL     1      41.080   0.037  13.267  0.00  0.00    +0.000 A 
ATOM     27  C   UNL     1      40.292   1.154  13.483  0.00  0.00    +0.000 A 
ATOM     28  C   UNL     1      39.191   1.434  12.695  0.00  0.00    +0.000 A 
ATOM     29  C   UNL     1      38.907   0.556  11.681  0.00  0.00    +0.000 A 
ATOM     30  C   UNL     1      39.697  -0.565  11.464  0.00  0.00    +0.000 A 
BRANCH  25  32
ATOM     31  C   UNL     1      41.397  -3.126  12.818  0.00  0.00    +0.000 C 
ATOM     32  O   UNL     1      41.596  -1.956  12.051  0.00  0.00    +0.000 OA
ENDBRANCH  25  32
ENDBRANCH  24  28
ENDBRANCH   1  24
TORSDOF 6
ENDMDL
MODEL 8
REMARK VINA RESULT:      -7.7      2.544      8.069
REMARK  Name = 
REMARK  6 active torsions:
REMARK  status: ('A' for Active; 'I' for Inactive)
REMARK    1  A    between atoms: O_2  and  C_3
REMARK    2  A    between atoms: C_6  and  C_7
REMARK    3  A    between atoms: C_7  and  N_8
REMARK    4  A    between atoms: C_11  and  C_12
REMARK    5  A    between atoms: C_12  and  O_14
REMARK    6  A    between atoms: O_14  and  C_15
REMARK                            x       y       z     vdW  Elec       q    Type
REMARK                         _______ _______ _______ _____ _____    ______ ____
ROOT
ATOM      1  N   UNL     1      38.987   1.269  13.991  0.00  0.00    +0.000 N 
ATOM      2  C   UNL     1      39.138   2.528  14.381  0.00  0.00    +0.000 A 
ATOM      3  N   UNL     1      40.097   3.429  13.846  0.00  0.00    +0.000 NA
ATOM      4  C   UNL     1      38.239   2.852  15.376  0.00  0.00    +0.000 A 
ATOM      5  C   UNL     1      37.502   1.711  15.597  0.00  0.00    +0.000 A 
ATOM      6  N   UNL     1      36.490   1.422  16.441  0.00  0.00    +0.000 NA
ATOM      7  C   UNL     1      35.942   0.176  16.435  0.00  0.00    +0.000 A 
ATOM      8  C   UNL     1      34.906  -0.155  17.284  0.00  0.00    +0.000 A 
ATOM      9  C   UNL     1      34.343  -1.419  17.286  0.00  0.00    +0.000 A 
ATOM     10  C   UNL     1      34.805  -2.403  16.427  0.00  0.00    +0.000 A 
ATOM     11  C   UNL     1      35.840  -2.063  15.582  0.00  0.00    +0.000 A 
ATOM     12  C   UNL     1      36.401  -0.804  15.581  0.00  0.00    +0.000 A 
ATOM     13  N   UNL     1      37.417  -0.469  14.753  0.00  0.00    +0.000 NA
ATOM     14  C   UNL     1      37.981   0.740  14.727  0.00  0.00    +0.000 A 
ENDROOT
BRANCH   4  15
ATOM     15  C   UNL     1      38.097   4.148  16.062  0.00  0.00    +0.000 C 
ATOM     16  O   UNL     1      37.282   4.985  15.601  0.00  0.00    +0.000 OA
BRANCH  15  17
ATOM     17  O   UNL     1      38.814   4.477  17.177  0.00  0.00    +0.000 OA
BRANCH  17  18
ATOM     18  C   UNL     1      39.287   5.771  17.476  0.00  0.00    +0.000 C 
ATOM     19  C   UNL     1      40.688   6.004  17.027  0.00  0.00    +0.000 C 
ATOM     20  C   UNL     1      41.151   7.336  17.628  0.00  0.00    +0.000 C 
ATOM     21  C   UNL     1      41.312   7.175  19.131  0.00  0.00    +0.000 C 
ATOM     22  C   UNL     1      40.400   6.049  19.622  0.00  0.00    +0.000 C 
ATOM     23  C   UNL     1      39.064   6.170  18.906  0.00  0.00    +0.000 C 
ENDBRANCH  17  18
ENDBRANCH  15  17
ENDBRANCH   4  15
BRANCH   1  24
ATOM     24  C   UNL     1      39.728   0.549  12.977  0.00  0.00    +0.000 C 
BRANCH  24  28
ATOM     25  C   UNL     1      43.213  -1.384  14.528  0.00  0.00    +0.000 A 
ATOM     26  C   UNL     1      43.244  -0.083  14.073  0.00  0.00    +0.000 A 
ATOM     27  C   UNL     1      42.097   0.513  13.577  0.00  0.00    +0.000 A 
ATOM     28  C   UNL     1      40.892  -0.162  13.519  0.00  0.00    +0.000 A 
ATOM     29  C   UNL     1      40.875  -1.454  13.975  0.00  0.00    +0.000 A 
ATOM     30  C   UNL     1      42.025  -2.052  14.472  0.00  0.00    +0.000 A 
BRANCH  25  32
ATOM     31  C   UNL     1      45.271  -2.635  14.155  0.00  0.00    +0.000 C 
ATOM     32  O   UNL     1      44.386  -1.956  15.022  0.00  0.00    +0.000 OA
ENDBRANCH  25  32
ENDBRANCH  24  28
ENDBRANCH   1  24
TORSDOF 6
ENDMDL
MODEL 9
REMARK VINA RESULT:      -7.6      2.782      5.032
REMARK  Name = 
REMARK  6 active torsions:
REMARK  status: ('A' for Active; 'I' for Inactive)
REMARK    1  A    between atoms: O_2  and  C_3
REMARK    2  A    between atoms: C_6  and  C_7
REMARK    3  A    between atoms: C_7  and  N_8
REMARK    4  A    between atoms: C_11  and  C_12
REMARK    5  A    between atoms: C_12  and  O_14
REMARK    6  A    between atoms: O_14  and  C_15
REMARK                            x       y       z     vdW  Elec       q    Type
REMARK                         _______ _______ _______ _____ _____    ______ ____
ROOT
ATOM      1  N   UNL     1      37.233   3.445  14.919  0.00  0.00    +0.000 N 
ATOM      2  C   UNL     1      37.614   3.129  13.689  0.00  0.00    +0.000 A 
ATOM      3  N   UNL     1      37.967   4.071  12.686  0.00  0.00    +0.000 NA
ATOM      4  C   UNL     1      37.624   1.762  13.507  0.00  0.00    +0.000 A 
ATOM      5  C   UNL     1      37.222   1.223  14.708  0.00  0.00    +0.000 A 
ATOM      6  N   UNL     1      37.043  -0.045  15.131  0.00  0.00    +0.000 NA
ATOM      7  C   UNL     1      36.628  -0.279  16.407  0.00  0.00    +0.000 A 
ATOM      8  C   UNL     1      36.435  -1.563  16.873  0.00  0.00    +0.000 A 
ATOM      9  C   UNL     1      36.013  -1.810  18.168  0.00  0.00    +0.000 A 
ATOM     10  C   UNL     1      35.770  -0.767  19.046  0.00  0.00    +0.000 A 
ATOM     11  C   UNL     1      35.967   0.513  18.572  0.00  0.00    +0.000 A 
ATOM     12  C   UNL     1      36.386   0.759  17.282  0.00  0.00    +0.000 A 
ATOM     13  N   UNL     1      36.579   2.013  16.814  0.00  0.00    +0.000 NA
ATOM     14  C   UNL     1      36.984   2.285  15.572  0.00  0.00    +0.000 A 
ENDROOT
BRANCH   4  15
ATOM     15  C   UNL     1      37.988   1.028  12.282  0.00  0.00    +0.000 C 
ATOM     16  O   UNL     1      37.070   0.654  11.511  0.00  0.00    +0.000 OA
BRANCH  15  17
ATOM     17  O   UNL     1      39.282   0.738  11.951  0.00  0.00    +0.000 OA
BRANCH  17  18
ATOM     18  C   UNL     1      39.956  -0.448  12.308  0.00  0.00    +0.000 C 
ATOM     19  C   UNL     1      39.035  -1.570  12.641  0.00  0.00    +0.000 C 
ATOM     20  C   UNL     1      39.879  -2.699  13.243  0.00  0.00    +0.000 C 
ATOM     21  C   UNL     1      40.380  -2.270  14.613  0.00  0.00    +0.000 C 
ATOM     22  C   UNL     1      40.452  -0.742  14.672  0.00  0.00    +0.000 C 
ATOM     23  C   UNL     1      41.014  -0.240  13.352  0.00  0.00    +0.000 C 
ENDBRANCH  17  18
ENDBRANCH  15  17
ENDBRANCH   4  15
BRANCH   1  24
ATOM     24  C   UNL     1      37.093   4.762  15.505  0.00  0.00    +0.000 C 
BRANCH  24  28
ATOM     25  C   UNL     1      40.474   5.942  17.842  0.00  0.00    +0.000 A 
ATOM     26  C   UNL     1      39.321   5.454  18.423  0.00  0.00    +0.000 A 
ATOM     27  C   UNL     1      38.246   5.080  17.636  0.00  0.00    +0.000 A 
ATOM     28  C   UNL     1      38.281   5.180  16.258  0.00  0.00    +0.000 A 
ATOM     29  C   UNL     1      39.431   5.667  15.694  0.00  0.00    +0.000 A 
ATOM     30  C   UNL     1      40.511   6.042  16.483  0.00  0.00    +0.000 A 
BRANCH  25  32
ATOM     31  C   UNL     1      41.364   6.417  20.061  0.00  0.00    +0.000 C 
ATOM     32  O   UNL     1      41.541   6.310  18.663  0.00  0.00    +0.000 OA
ENDBRANCH  25  32
ENDBRANCH  24  28
ENDBRANCH   1  24
TORSDOF 6
ENDMDL
MODEL 10
REMARK VINA RESULT:      -7.6      2.567      6.086
REMARK  Name = 
REMARK  6 active torsions:
REMARK  status: ('A' for Active; 'I' for Inactive)
REMARK    1  A    between atoms: O_2  and  C_3
REMARK    2  A    between atoms: C_6  and  C_7
REMARK    3  A    between atoms: C_7  and  N_8
REMARK    4  A    between atoms: C_11  and  C_12
REMARK    5  A    between atoms: C_12  and  O_14
REMARK    6  A    between atoms: O_14  and  C_15
REMARK                            x       y       z     vdW  Elec       q    Type
REMARK                         _______ _______ _______ _____ _____    ______ ____
ROOT
ATOM      1  N   UNL     1      38.428   2.659  14.720  0.00  0.00    +0.000 N 
ATOM      2  C   UNL     1      39.495   2.188  14.088  0.00  0.00    +0.000 A 
ATOM      3  N   UNL     1      40.489   2.994  13.470  0.00  0.00    +0.000 NA
ATOM      4  C   UNL     1      39.517   0.809  14.108  0.00  0.00    +0.000 A 
ATOM      5  C   UNL     1      38.387   0.429  14.798  0.00  0.00    +0.000 A 
ATOM      6  N   UNL     1      37.878  -0.774  15.133  0.00  0.00    +0.000 NA
ATOM      7  C   UNL     1      36.715  -0.842  15.836  0.00  0.00    +0.000 A 
ATOM      8  C   UNL     1      36.166  -2.056  16.196  0.00  0.00    +0.000 A 
ATOM      9  C   UNL     1      34.983  -2.135  16.911  0.00  0.00    +0.000 A 
ATOM     10  C   UNL     1      34.306  -0.988  17.291  0.00  0.00    +0.000 A 
ATOM     11  C   UNL     1      34.862   0.220  16.927  0.00  0.00    +0.000 A 
ATOM     12  C   UNL     1      36.040   0.298  16.215  0.00  0.00    +0.000 A 
ATOM     13  N   UNL     1      36.588   1.482  15.857  0.00  0.00    +0.000 NA
ATOM     14  C   UNL     1      37.725   1.593  15.169  0.00  0.00    +0.000 A 
ENDROOT
BRANCH   4  15
ATOM     15  C   UNL     1      40.535  -0.076  13.515  0.00  0.00    +0.000 C 
ATOM     16  O   UNL     1      40.454  -0.350  12.292  0.00  0.00    +0.000 OA
BRANCH  15  17
ATOM     17  O   UNL     1      41.563  -0.609  14.240  0.00  0.00    +0.000 OA
BRANCH  17  18
ATOM     18  C   UNL     1      42.870  -0.812  13.751  0.00  0.00    +0.000 C 
ATOM     19  C   UNL     1      43.361  -2.205  13.947  0.00  0.00    +0.000 C 
ATOM     20  C   UNL     1      44.855  -2.220  13.608  0.00  0.00    +0.000 C 
ATOM     21  C   UNL     1      45.617  -1.452  14.676  0.00  0.00    +0.000 C 
ATOM     22  C   UNL     1      44.686  -0.424  15.323  0.00  0.00    +0.000 C 
ATOM     23  C   UNL     1      43.851   0.219  14.228  0.00  0.00    +0.000 C 
ENDBRANCH  17  18
ENDBRANCH  15  17
ENDBRANCH   4  15
BRANCH   1  24
ATOM     24  C   UNL     1      38.041   4.040  14.920  0.00  0.00    +0.000 C 
BRANCH  24  28
ATOM     25  C   UNL     1      39.851   5.758  18.393  0.00  0.00    +0.000 A 
ATOM     26  C   UNL     1      38.748   4.934  18.478  0.00  0.00    +0.000 A 
ATOM     27  C   UNL     1      38.188   4.394  17.334  0.00  0.00    +0.000 A 
ATOM     28  C   UNL     1      38.702   4.655  16.077  0.00  0.00    +0.000 A 
ATOM     29  C   UNL     1      39.798   5.475  16.006  0.00  0.00    +0.000 A 
ATOM     30  C   UNL     1      40.361   6.017  17.154  0.00  0.00    +0.000 A 
BRANCH  25  32
ATOM     31  C   UNL     1      39.702   7.285  20.286  0.00  0.00    +0.000 C 
ATOM     32  O   UNL     1      40.393   6.286  19.566  0.00  0.00    +0.000 OA
ENDBRANCH  25  32
ENDBRANCH  24  28
ENDBRANCH   1  24
TORSDOF 6
ENDMDL
