MODEL 1
REMARK VINA RESULT:      -7.3      0.000      0.000
REMARK  Name = 
REMARK  8 active torsions:
REMARK  status: ('A' for Active; 'I' for Inactive)
REMARK    1  A    between atoms: O_2  and  C_3
REMARK    2  A    between atoms: C_3  and  C_4
REMARK    3  A    between atoms: C_5  and  C_6
REMARK    4  A    between atoms: C_6  and  O_8
REMARK    5  A    between atoms: O_8  and  C_9
REMARK    6  A    between atoms: C_20  and  O_21
REMARK    7  A    between atoms: O_21  and  C_22
REMARK    8  A    between atoms: C_22  and  C_23
REMARK                            x       y       z     vdW  Elec       q    Type
REMARK                         _______ _______ _______ _____ _____    ______ ____
ROOT
ATOM      1  C   UNL     1      38.139  -1.024  15.843  0.00  0.00    +0.000 A 
ATOM      2  C   UNL     1      38.054  -2.334  16.363  0.00  0.00    +0.000 A 
ATOM      3  N   UNL     1      39.042  -3.185  16.161  0.00  0.00    +0.000 NA
ATOM      4  C   UNL     1      40.153  -2.898  15.482  0.00  0.00    +0.000 A 
ATOM      5  C   UNL     1      40.309  -1.638  14.948  0.00  0.00    +0.000 A 
ATOM      6  N   UNL     1      41.314  -1.065  14.268  0.00  0.00    +0.000 NA
ATOM      7  C   UNL     1      41.033   0.201  13.993  0.00  0.00    +0.000 A 
ATOM      8  C   UNL     1      41.692   1.243  13.358  0.00  0.00    +0.000 A 
ATOM      9  C   UNL     1      41.079   2.471  13.284  0.00  0.00    +0.000 A 
ATOM     10  C   UNL     1      39.824   2.732  13.815  0.00  0.00    +0.000 A 
ATOM     11  C   UNL     1      39.194   1.679  14.437  0.00  0.00    +0.000 A 
ATOM     12  C   UNL     1      39.770   0.445  14.530  0.00  0.00    +0.000 A 
ATOM     13  C   UNL     1      39.283  -0.716  15.144  0.00  0.00    +0.000 A 
ENDROOT
BRANCH   2  14
ATOM     14  C   UNL     1      36.868  -2.722  17.119  0.00  0.00    +0.000 C 
ATOM     15  O   UNL     1      36.897  -2.873  18.371  0.00  0.00    +0.000 OA
BRANCH  14  16
ATOM     16  O   UNL     1      35.645  -2.948  16.509  0.00  0.00    +0.000 OA
BRANCH  16  17
ATOM     17  C   UNL     1      35.434  -4.047  15.627  0.00  0.00    +0.000 C 
ATOM     18  C   UNL     1      36.116  -3.793  14.304  0.00  0.00    +0.000 C 
ATOM     19  C   UNL     1      35.941  -5.340  16.209  0.00  0.00    +0.000 C 
ATOM     20  C   UNL     1      33.942  -4.151  15.338  0.00  0.00    +0.000 C 
ENDBRANCH  16  17
ENDBRANCH  14  16
ENDBRANCH   2  14
BRANCH   1  21
ATOM     21  C   UNL     1      37.057  -0.168  16.128  0.00  0.00    +0.000 C 
BRANCH  21  23
ATOM     22  C   UNL     1      35.559   0.863  17.523  0.00  0.00    +0.000 C 
ATOM     23  O   UNL     1      36.866   0.781  16.986  0.00  0.00    +0.000 OA
ENDBRANCH  21  23
ENDBRANCH   1  21
BRANCH  10  24
ATOM     24  O   UNL     1      39.217   3.981  13.733  0.00  0.00    +0.000 OA
BRANCH  24  25
ATOM     25  C   UNL     1      38.305   4.390  14.703  0.00  0.00    +0.000 C 
BRANCH  25  26
ATOM     26  C   UNL     1      38.958   4.903  15.924  0.00  0.00    +0.000 A 
ATOM     27  C   UNL     1      38.445   4.622  17.182  0.00  0.00    +0.000 A 
ATOM     28  C   UNL     1      39.044   5.102  18.322  0.00  0.00    +0.000 A 
ATOM     29  C   UNL     1      40.176   5.875  18.237  0.00  0.00    +0.000 A 
ATOM     30  C   UNL     1      40.719   6.178  17.014  0.00  0.00    +0.000 A 
ATOM     31  C   UNL     1      40.106   5.689  15.884  0.00  0.00    +0.000 A 
ENDBRANCH  25  26
ENDBRANCH  24  25
ENDBRANCH  10  24
TORSDOF 8
ENDMDL
MODEL 2
REMARK VINA RESULT:      -7.2      2.605      4.966
REMARK  Name = 
REMARK  8 active torsions:
REMARK  status: ('A' for Active; 'I' for Inactive)
REMARK    1  A    between atoms: O_2  and  C_3
REMARK    2  A    between atoms: C_3  and  C_4
REMARK    3  A    between atoms: C_5  and  C_6
REMARK    4  A    between atoms: C_6  and  O_8
REMARK    5  A    between atoms: O_8  and  C_9
REMARK    6  A    between atoms: C_20  and  O_21
REMARK    7  A    between atoms: O_21  and  C_22
REMARK    8  A    between atoms: C_22  and  C_23
REMARK                            x       y       z     vdW  Elec       q    Type
REMARK                         _______ _______ _______ _____ _____    ______ ____
ROOT
ATOM      1  C   UNL     1      38.296  -1.130  13.789  0.00  0.00    +0.000 A 
ATOM      2  C   UNL     1      38.601  -2.333  13.115  0.00  0.00    +0.000 A 
ATOM      3  N   UNL     1      37.884  -3.416  13.350  0.00  0.00    +0.000 NA
ATOM      4  C   UNL     1      36.859  -3.468  14.202  0.00  0.00    +0.000 A 
ATOM      5  C   UNL     1      36.500  -2.332  14.893  0.00  0.00    +0.000 A 
ATOM      6  N   UNL     1      35.511  -2.082  15.765  0.00  0.00    +0.000 NA
ATOM      7  C   UNL     1      35.528  -0.811  16.143  0.00  0.00    +0.000 A 
ATOM      8  C   UNL     1      34.755  -0.018  16.977  0.00  0.00    +0.000 A 
ATOM      9  C   UNL     1      35.068   1.314  17.107  0.00  0.00    +0.000 A 
ATOM     10  C   UNL     1      36.126   1.918  16.444  0.00  0.00    +0.000 A 
ATOM     11  C   UNL     1      36.876   1.108  15.626  0.00  0.00    +0.000 A 
ATOM     12  C   UNL     1      36.597  -0.220  15.470  0.00  0.00    +0.000 A 
ATOM     13  C   UNL     1      37.237  -1.172  14.667  0.00  0.00    +0.000 A 
ENDROOT
BRANCH   2  14
ATOM     14  C   UNL     1      39.708  -2.355  12.165  0.00  0.00    +0.000 C 
ATOM     15  O   UNL     1      39.641  -1.767  11.052  0.00  0.00    +0.000 OA
BRANCH  14  16
ATOM     16  O   UNL     1      40.893  -3.020  12.430  0.00  0.00    +0.000 OA
BRANCH  16  17
ATOM     17  C   UNL     1      42.046  -2.342  12.920  0.00  0.00    +0.000 C 
ATOM     18  C   UNL     1      43.274  -3.201  12.737  0.00  0.00    +0.000 C 
ATOM     19  C   UNL     1      42.255  -1.020  12.231  0.00  0.00    +0.000 C 
ATOM     20  C   UNL     1      41.877  -2.131  14.419  0.00  0.00    +0.000 C 
ENDBRANCH  16  17
ENDBRANCH  14  16
ENDBRANCH   2  14
BRANCH   1  21
ATOM     21  C   UNL     1      39.088  -0.013  13.459  0.00  0.00    +0.000 C 
BRANCH  21  23
ATOM     22  C   UNL     1      37.740   1.039  11.933  0.00  0.00    +0.000 C 
ATOM     23  O   UNL     1      38.882   1.061  12.769  0.00  0.00    +0.000 OA
ENDBRANCH  21  23
ENDBRANCH   1  21
BRANCH  10  24
ATOM     24  O   UNL     1      36.430   3.269  16.586  0.00  0.00    +0.000 OA
BRANCH  24  25
ATOM     25  C   UNL     1      37.415   3.860  15.798  0.00  0.00    +0.000 C 
BRANCH  25  26
ATOM     26  C   UNL     1      38.409   4.609  16.591  0.00  0.00    +0.000 A 
ATOM     27  C   UNL     1      38.325   4.666  17.975  0.00  0.00    +0.000 A 
ATOM     28  C   UNL     1      39.243   5.368  18.719  0.00  0.00    +0.000 A 
ATOM     29  C   UNL     1      40.273   6.032  18.100  0.00  0.00    +0.000 A 
ATOM     30  C   UNL     1      40.397   6.004  16.734  0.00  0.00    +0.000 A 
ATOM     31  C   UNL     1      39.469   5.297  16.006  0.00  0.00    +0.000 A 
ENDBRANCH  25  26
ENDBRANCH  24  25
ENDBRANCH  10  24
TORSDOF 8
ENDMDL
MODEL 3
REMARK VINA RESULT:      -7.1      3.037      5.397
REMARK  Name = 
REMARK  8 active torsions:
REMARK  status: ('A' for Active; 'I' for Inactive)
REMARK    1  A    between atoms: O_2  and  C_3
REMARK    2  A    between atoms: C_3  and  C_4
REMARK    3  A    between atoms: C_5  and  C_6
REMARK    4  A    between atoms: C_6  and  O_8
REMARK    5  A    between atoms: O_8  and  C_9
REMARK    6  A    between atoms: C_20  and  O_21
REMARK    7  A    between atoms: O_21  and  C_22
REMARK    8  A    between atoms: C_22  and  C_23
REMARK                            x       y       z     vdW  Elec       q    Type
REMARK                         _______ _______ _______ _____ _____    ______ ____
ROOT
ATOM      1  C   UNL     1      39.200  -1.442  15.418  0.00  0.00    +0.000 A 
ATOM      2  C   UNL     1      40.170  -2.468  15.388  0.00  0.00    +0.000 A 
ATOM      3  N   UNL     1      39.999  -3.554  16.116  0.00  0.00    +0.000 NA
ATOM      4  C   UNL     1      38.947  -3.770  16.907  0.00  0.00    +0.000 A 
ATOM      5  C   UNL     1      37.957  -2.816  16.986  0.00  0.00    +0.000 A 
ATOM      6  N   UNL     1      36.792  -2.777  17.651  0.00  0.00    +0.000 NA
ATOM      7  C   UNL     1      36.135  -1.657  17.383  0.00  0.00    +0.000 A 
ATOM      8  C   UNL     1      34.914  -1.116  17.756  0.00  0.00    +0.000 A 
ATOM      9  C   UNL     1      34.540   0.100  17.237  0.00  0.00    +0.000 A 
ATOM     10  C   UNL     1      35.322   0.827  16.352  0.00  0.00    +0.000 A 
ATOM     11  C   UNL     1      36.528   0.266  16.002  0.00  0.00    +0.000 A 
ATOM     12  C   UNL     1      36.936  -0.940  16.496  0.00  0.00    +0.000 A 
ATOM     13  C   UNL     1      38.108  -1.657  16.228  0.00  0.00    +0.000 A 
ENDROOT
BRANCH   2  14
ATOM     14  C   UNL     1      41.349  -2.305  14.544  0.00  0.00    +0.000 C 
ATOM     15  O   UNL     1      42.224  -1.429  14.784  0.00  0.00    +0.000 OA
BRANCH  14  16
ATOM     16  O   UNL     1      41.576  -3.099  13.432  0.00  0.00    +0.000 OA
BRANCH  16  17
ATOM     17  C   UNL     1      41.273  -2.656  12.113  0.00  0.00    +0.000 C 
ATOM     18  C   UNL     1      39.779  -2.666  11.890  0.00  0.00    +0.000 C 
ATOM     19  C   UNL     1      41.807  -1.273  11.848  0.00  0.00    +0.000 C 
ATOM     20  C   UNL     1      41.871  -3.648  11.124  0.00  0.00    +0.000 C 
ENDBRANCH  16  17
ENDBRANCH  14  16
ENDBRANCH   2  14
BRANCH   1  21
ATOM     21  C   UNL     1      39.441  -0.330  14.588  0.00  0.00    +0.000 C 
BRANCH  21  23
ATOM     22  C   UNL     1      40.310   1.597  13.701  0.00  0.00    +0.000 C 
ATOM     23  O   UNL     1      39.773   0.900  14.810  0.00  0.00    +0.000 OA
ENDBRANCH  21  23
ENDBRANCH   1  21
BRANCH  10  24
ATOM     24  O   UNL     1      34.929   2.057  15.834  0.00  0.00    +0.000 OA
BRANCH  24  25
ATOM     25  C   UNL     1      35.773   3.163  15.916  0.00  0.00    +0.000 C 
BRANCH  25  26
ATOM     26  C   UNL     1      36.023   3.790  14.603  0.00  0.00    +0.000 A 
ATOM     27  C   UNL     1      35.365   4.952  14.228  0.00  0.00    +0.000 A 
ATOM     28  C   UNL     1      35.588   5.537  13.004  0.00  0.00    +0.000 A 
ATOM     29  C   UNL     1      36.478   4.978  12.121  0.00  0.00    +0.000 A 
ATOM     30  C   UNL     1      37.153   3.830  12.449  0.00  0.00    +0.000 A 
ATOM     31  C   UNL     1      36.917   3.257  13.678  0.00  0.00    +0.000 A 
ENDBRANCH  25  26
ENDBRANCH  24  25
ENDBRANCH  10  24
TORSDOF 8
ENDMDL
MODEL 4
REMARK VINA RESULT:      -6.7      3.573      5.681
REMARK  Name = 
REMARK  8 active torsions:
REMARK  status: ('A' for Active; 'I' for Inactive)
REMARK    1  A    between atoms: O_2  and  C_3
REMARK    2  A    between atoms: C_3  and  C_4
REMARK    3  A    between atoms: C_5  and  C_6
REMARK    4  A    between atoms: C_6  and  O_8
REMARK    5  A    between atoms: O_8  and  C_9
REMARK    6  A    between atoms: C_20  and  O_21
REMARK    7  A    between atoms: O_21  and  C_22
REMARK    8  A    between atoms: C_22  and  C_23
REMARK                            x       y       z     vdW  Elec       q    Type
REMARK                         _______ _______ _______ _____ _____    ______ ____
ROOT
ATOM      1  C   UNL     1      38.773  -0.911  14.960  0.00  0.00    +0.000 A 
ATOM      2  C   UNL     1      37.441  -0.449  15.046  0.00  0.00    +0.000 A 
ATOM      3  N   UNL     1      37.131   0.748  14.587  0.00  0.00    +0.000 NA
ATOM      4  C   UNL     1      38.005   1.588  14.029  0.00  0.00    +0.000 A 
ATOM      5  C   UNL     1      39.322   1.205  13.907  0.00  0.00    +0.000 A 
ATOM      6  N   UNL     1      40.390   1.810  13.365  0.00  0.00    +0.000 NA
ATOM      7  C   UNL     1      41.459   1.030  13.438  0.00  0.00    +0.000 A 
ATOM      8  C   UNL     1      42.781   1.126  13.030  0.00  0.00    +0.000 A 
ATOM      9  C   UNL     1      43.626   0.067  13.260  0.00  0.00    +0.000 A 
ATOM     10  C   UNL     1      43.229  -1.107  13.884  0.00  0.00    +0.000 A 
ATOM     11  C   UNL     1      41.914  -1.172  14.278  0.00  0.00    +0.000 A 
ATOM     12  C   UNL     1      41.043  -0.142  14.069  0.00  0.00    +0.000 A 
ATOM     13  C   UNL     1      39.681  -0.054  14.382  0.00  0.00    +0.000 A 
ENDROOT
BRANCH   2  14
ATOM     14  C   UNL     1      36.428  -1.313  15.643  0.00  0.00    +0.000 C 
ATOM     15  O   UNL     1      35.703  -2.071  14.943  0.00  0.00    +0.000 OA
BRANCH  14  16
ATOM     16  O   UNL     1      36.202  -1.350  17.009  0.00  0.00    +0.000 OA
BRANCH  16  17
ATOM     17  C   UNL     1      35.108  -0.666  17.612  0.00  0.00    +0.000 C 
ATOM     18  C   UNL     1      35.383  -0.434  19.079  0.00  0.00    +0.000 C 
ATOM     19  C   UNL     1      34.831   0.653  16.941  0.00  0.00    +0.000 C 
ATOM     20  C   UNL     1      33.880  -1.564  17.533  0.00  0.00    +0.000 C 
ENDBRANCH  16  17
ENDBRANCH  14  16
ENDBRANCH   2  14
BRANCH   1  21
ATOM     21  C   UNL     1      39.015  -2.212  15.444  0.00  0.00    +0.000 C 
BRANCH  21  23
ATOM     22  C   UNL     1      38.862  -3.629  17.238  0.00  0.00    +0.000 C 
ATOM     23  O   UNL     1      39.606  -2.683  16.493  0.00  0.00    +0.000 OA
ENDBRANCH  21  23
ENDBRANCH   1  21
BRANCH  10  24
ATOM     24  O   UNL     1      44.097  -2.171  14.108  0.00  0.00    +0.000 OA
BRANCH  24  25
ATOM     25  C   UNL     1      45.441  -1.941  14.395  0.00  0.00    +0.000 C 
BRANCH  25  26
ATOM     26  C   UNL     1      45.680  -1.655  15.823  0.00  0.00    +0.000 A 
ATOM     27  C   UNL     1      45.559  -0.367  16.325  0.00  0.00    +0.000 A 
ATOM     28  C   UNL     1      45.787  -0.093  17.652  0.00  0.00    +0.000 A 
ATOM     29  C   UNL     1      46.142  -1.099  18.517  0.00  0.00    +0.000 A 
ATOM     30  C   UNL     1      46.274  -2.388  18.066  0.00  0.00    +0.000 A 
ATOM     31  C   UNL     1      46.042  -2.644  16.734  0.00  0.00    +0.000 A 
ENDBRANCH  25  26
ENDBRANCH  24  25
ENDBRANCH  10  24
TORSDOF 8
ENDMDL
MODEL 5
REMARK VINA RESULT:      -6.7     27.038     30.148
REMARK  Name = 
REMARK  8 active torsions:
REMARK  status: ('A' for Active; 'I' for Inactive)
REMARK    1  A    between atoms: O_2  and  C_3
REMARK    2  A    between atoms: C_3  and  C_4
REMARK    3  A    between atoms: C_5  and  C_6
REMARK    4  A    between atoms: C_6  and  O_8
REMARK    5  A    between atoms: O_8  and  C_9
REMARK    6  A    between atoms: C_20  and  O_21
REMARK    7  A    between atoms: O_21  and  C_22
REMARK    8  A    between atoms: C_22  and  C_23
REMARK                            x       y       z     vdW  Elec       q    Type
REMARK                         _______ _______ _______ _____ _____    ______ ____
ROOT
ATOM      1  C   UNL     1      27.242  12.463  41.691  0.00  0.00    +0.000 A 
ATOM      2  C   UNL     1      27.201  11.802  42.939  0.00  0.00    +0.000 A 
ATOM      3  N   UNL     1      26.215  12.049  43.779  0.00  0.00    +0.000 NA
ATOM      4  C   UNL     1      25.218  12.903  43.538  0.00  0.00    +0.000 A 
ATOM      5  C   UNL     1      25.189  13.582  42.341  0.00  0.00    +0.000 A 
ATOM      6  N   UNL     1      24.311  14.451  41.818  0.00  0.00    +0.000 NA
ATOM      7  C   UNL     1      24.679  14.815  40.597  0.00  0.00    +0.000 A 
ATOM      8  C   UNL     1      24.157  15.641  39.614  0.00  0.00    +0.000 A 
ATOM      9  C   UNL     1      24.825  15.757  38.419  0.00  0.00    +0.000 A 
ATOM     10  C   UNL     1      26.006  15.087  38.136  0.00  0.00    +0.000 A 
ATOM     11  C   UNL     1      26.501  14.276  39.130  0.00  0.00    +0.000 A 
ATOM     12  C   UNL     1      25.867  14.136  40.331  0.00  0.00    +0.000 A 
ATOM     13  C   UNL     1      26.217  13.342  41.431  0.00  0.00    +0.000 A 
ENDROOT
BRANCH   2  14
ATOM     14  C   UNL     1      28.256  10.851  43.274  0.00  0.00    +0.000 C 
ATOM     15  O   UNL     1      29.459  11.208  43.395  0.00  0.00    +0.000 OA
BRANCH  14  16
ATOM     16  O   UNL     1      27.998   9.505  43.477  0.00  0.00    +0.000 OA
BRANCH  16  17
ATOM     17  C   UNL     1      27.985   8.569  42.404  0.00  0.00    +0.000 C 
ATOM     18  C   UNL     1      26.760   8.776  41.546  0.00  0.00    +0.000 C 
ATOM     19  C   UNL     1      29.218   8.680  41.547  0.00  0.00    +0.000 C 
ATOM     20  C   UNL     1      27.878   7.168  42.990  0.00  0.00    +0.000 C 
ENDBRANCH  16  17
ENDBRANCH  14  16
ENDBRANCH   2  14
BRANCH   1  21
ATOM     21  C   UNL     1      28.310  12.120  40.839  0.00  0.00    +0.000 C 
BRANCH  21  23
ATOM     22  C   UNL     1      30.451  11.926  40.044  0.00  0.00    +0.000 C 
ATOM     23  O   UNL     1      29.362  12.747  40.421  0.00  0.00    +0.000 OA
ENDBRANCH  21  23
ENDBRANCH   1  21
BRANCH  10  24
ATOM     24  O   UNL     1      26.671  15.213  36.919  0.00  0.00    +0.000 OA
BRANCH  24  25
ATOM     25  C   UNL     1      26.525  16.364  36.149  0.00  0.00    +0.000 C 
BRANCH  25  26
ATOM     26  C   UNL     1      25.938  16.094  34.822  0.00  0.00    +0.000 A 
ATOM     27  C   UNL     1      25.256  17.083  34.127  0.00  0.00    +0.000 A 
ATOM     28  C   UNL     1      24.700  16.837  32.894  0.00  0.00    +0.000 A 
ATOM     29  C   UNL     1      24.813  15.595  32.319  0.00  0.00    +0.000 A 
ATOM     30  C   UNL     1      25.479  14.587  32.969  0.00  0.00    +0.000 A 
ATOM     31  C   UNL     1      26.028  14.851  34.203  0.00  0.00    +0.000 A 
ENDBRANCH  25  26
ENDBRANCH  24  25
ENDBRANCH  10  24
TORSDOF 8
ENDMDL
MODEL 6
REMARK VINA RESULT:      -6.7      2.730      6.959
REMARK  Name = 
REMARK  8 active torsions:
REMARK  status: ('A' for Active; 'I' for Inactive)
REMARK    1  A    between atoms: O_2  and  C_3
REMARK    2  A    between atoms: C_3  and  C_4
REMARK    3  A    between atoms: C_5  and  C_6
REMARK    4  A    between atoms: C_6  and  O_8
REMARK    5  A    between atoms: O_8  and  C_9
REMARK    6  A    between atoms: C_20  and  O_21
REMARK    7  A    between atoms: O_21  and  C_22
REMARK    8  A    between atoms: C_22  and  C_23
REMARK                            x       y       z     vdW  Elec       q    Type
REMARK                         _______ _______ _______ _____ _____    ______ ____
ROOT
ATOM      1  C   UNL     1      37.157   1.157  15.374  0.00  0.00    +0.000 A 
ATOM      2  C   UNL     1      36.208   2.199  15.470  0.00  0.00    +0.000 A 
ATOM      3  N   UNL     1      35.180   2.076  16.288  0.00  0.00    +0.000 NA
ATOM      4  C   UNL     1      34.956   1.010  17.059  0.00  0.00    +0.000 A 
ATOM      5  C   UNL     1      35.841  -0.045  17.021  0.00  0.00    +0.000 A 
ATOM      6  N   UNL     1      35.894  -1.203  17.698  0.00  0.00    +0.000 NA
ATOM      7  C   UNL     1      36.970  -1.898  17.357  0.00  0.00    +0.000 A 
ATOM      8  C   UNL     1      37.525  -3.109  17.741  0.00  0.00    +0.000 A 
ATOM      9  C   UNL     1      38.710  -3.508  17.170  0.00  0.00    +0.000 A 
ATOM     10  C   UNL     1      39.391  -2.760  16.221  0.00  0.00    +0.000 A 
ATOM     11  C   UNL     1      38.816  -1.564  15.859  0.00  0.00    +0.000 A 
ATOM     12  C   UNL     1      37.640  -1.133  16.403  0.00  0.00    +0.000 A 
ATOM     13  C   UNL     1      36.938   0.055  16.168  0.00  0.00    +0.000 A 
ENDROOT
BRANCH   2  14
ATOM     14  C   UNL     1      36.386   3.399  14.660  0.00  0.00    +0.000 C 
ATOM     15  O   UNL     1      36.336   3.365  13.400  0.00  0.00    +0.000 OA
BRANCH  14  16
ATOM     16  O   UNL     1      36.619   4.642  15.225  0.00  0.00    +0.000 OA
BRANCH  16  17
ATOM     17  C   UNL     1      37.910   5.030  15.687  0.00  0.00    +0.000 C 
ATOM     18  C   UNL     1      38.166   4.457  17.060  0.00  0.00    +0.000 C 
ATOM     19  C   UNL     1      39.000   4.584  14.749  0.00  0.00    +0.000 C 
ATOM     20  C   UNL     1      37.931   6.546  15.834  0.00  0.00    +0.000 C 
ENDBRANCH  16  17
ENDBRANCH  14  16
ENDBRANCH   2  14
BRANCH   1  21
ATOM     21  C   UNL     1      38.241   1.380  14.502  0.00  0.00    +0.000 C 
BRANCH  21  23
ATOM     22  C   UNL     1      37.571   0.152  12.686  0.00  0.00    +0.000 C 
ATOM     23  O   UNL     1      38.568   0.914  13.341  0.00  0.00    +0.000 OA
ENDBRANCH  21  23
ENDBRANCH   1  21
BRANCH  10  24
ATOM     24  O   UNL     1      40.591  -3.177  15.653  0.00  0.00    +0.000 OA
BRANCH  24  25
ATOM     25  C   UNL     1      40.901  -2.853  14.334  0.00  0.00    +0.000 C 
BRANCH  25  26
ATOM     26  C   UNL     1      41.907  -1.777  14.230  0.00  0.00    +0.000 A 
ATOM     27  C   UNL     1      43.207  -1.968  14.677  0.00  0.00    +0.000 A 
ATOM     28  C   UNL     1      44.146  -0.968  14.590  0.00  0.00    +0.000 A 
ATOM     29  C   UNL     1      43.814   0.250  14.051  0.00  0.00    +0.000 A 
ATOM     30  C   UNL     1      42.541   0.484  13.595  0.00  0.00    +0.000 A 
ATOM     31  C   UNL     1      41.613  -0.528  13.691  0.00  0.00    +0.000 A 
ENDBRANCH  25  26
ENDBRANCH  24  25
ENDBRANCH  10  24
TORSDOF 8
ENDMDL
MODEL 7
REMARK VINA RESULT:      -6.6      2.813      7.127
REMARK  Name = 
REMARK  8 active torsions:
REMARK  status: ('A' for Active; 'I' for Inactive)
REMARK    1  A    between atoms: O_2  and  C_3
REMARK    2  A    between atoms: C_3  and  C_4
REMARK    3  A    between atoms: C_5  and  C_6
REMARK    4  A    between atoms: C_6  and  O_8
REMARK    5  A    between atoms: O_8  and  C_9
REMARK    6  A    between atoms: C_20  and  O_21
REMARK    7  A    between atoms: O_21  and  C_22
REMARK    8  A    between atoms: C_22  and  C_23
REMARK                            x       y       z     vdW  Elec       q    Type
REMARK                         _______ _______ _______ _____ _____    ______ ____
ROOT
ATOM      1  C   UNL     1      39.418   0.285  14.307  0.00  0.00    +0.000 A 
ATOM      2  C   UNL     1      40.619   0.697  13.688  0.00  0.00    +0.000 A 
ATOM      3  N   UNL     1      40.827   1.978  13.448  0.00  0.00    +0.000 NA
ATOM      4  C   UNL     1      39.964   2.949  13.753  0.00  0.00    +0.000 A 
ATOM      5  C   UNL     1      38.772   2.624  14.362  0.00  0.00    +0.000 A 
ATOM      6  N   UNL     1      37.754   3.375  14.810  0.00  0.00    +0.000 NA
ATOM      7  C   UNL     1      36.825   2.617  15.375  0.00  0.00    +0.000 A 
ATOM      8  C   UNL     1      35.613   2.848  16.007  0.00  0.00    +0.000 A 
ATOM      9  C   UNL     1      34.911   1.779  16.512  0.00  0.00    +0.000 A 
ATOM     10  C   UNL     1      35.351   0.467  16.425  0.00  0.00    +0.000 A 
ATOM     11  C   UNL     1      36.555   0.268  15.791  0.00  0.00    +0.000 A 
ATOM     12  C   UNL     1      37.281   1.303  15.276  0.00  0.00    +0.000 A 
ATOM     13  C   UNL     1      38.523   1.280  14.630  0.00  0.00    +0.000 A 
ENDROOT
BRANCH   2  14
ATOM     14  C   UNL     1      41.612  -0.308  13.327  0.00  0.00    +0.000 C 
ATOM     15  O   UNL     1      41.645  -0.829  12.179  0.00  0.00    +0.000 OA
BRANCH  14  16
ATOM     16  O   UNL     1      42.575  -0.747  14.221  0.00  0.00    +0.000 OA
BRANCH  16  17
ATOM     17  C   UNL     1      43.958  -0.457  14.042  0.00  0.00    +0.000 C 
ATOM     18  C   UNL     1      44.653  -1.619  13.372  0.00  0.00    +0.000 C 
ATOM     19  C   UNL     1      44.170   0.789  13.225  0.00  0.00    +0.000 C 
ATOM     20  C   UNL     1      44.597  -0.299  15.416  0.00  0.00    +0.000 C 
ENDBRANCH  16  17
ENDBRANCH  14  16
ENDBRANCH   2  14
BRANCH   1  21
ATOM     21  C   UNL     1      39.286  -1.095  14.557  0.00  0.00    +0.000 C 
BRANCH  21  23
ATOM     22  C   UNL     1      38.837  -2.810  13.105  0.00  0.00    +0.000 C 
ATOM     23  O   UNL     1      38.434  -1.996  14.191  0.00  0.00    +0.000 OA
ENDBRANCH  21  23
ENDBRANCH   1  21
BRANCH  10  24
ATOM     24  O   UNL     1      34.630  -0.605  16.942  0.00  0.00    +0.000 OA
BRANCH  24  25
ATOM     25  C   UNL     1      35.101  -1.308  18.049  0.00  0.00    +0.000 C 
BRANCH  25  26
ATOM     26  C   UNL     1      36.193  -2.242  17.711  0.00  0.00    +0.000 A 
ATOM     27  C   UNL     1      35.986  -3.300  16.837  0.00  0.00    +0.000 A 
ATOM     28  C   UNL     1      36.996  -4.177  16.524  0.00  0.00    +0.000 A 
ATOM     29  C   UNL     1      38.245  -4.021  17.075  0.00  0.00    +0.000 A 
ATOM     30  C   UNL     1      38.497  -2.990  17.943  0.00  0.00    +0.000 A 
ATOM     31  C   UNL     1      37.473  -2.121  18.246  0.00  0.00    +0.000 A 
ENDBRANCH  25  26
ENDBRANCH  24  25
ENDBRANCH  10  24
TORSDOF 8
ENDMDL
MODEL 8
REMARK VINA RESULT:      -6.4      3.637      5.867
REMARK  Name = 
REMARK  8 active torsions:
REMARK  status: ('A' for Active; 'I' for Inactive)
REMARK    1  A    between atoms: O_2  and  C_3
REMARK    2  A    between atoms: C_3  and  C_4
REMARK    3  A    between atoms: C_5  and  C_6
REMARK    4  A    between atoms: C_6  and  O_8
REMARK    5  A    between atoms: O_8  and  C_9
REMARK    6  A    between atoms: C_20  and  O_21
REMARK    7  A    between atoms: O_21  and  C_22
REMARK    8  A    between atoms: C_22  and  C_23
REMARK                            x       y       z     vdW  Elec       q    Type
REMARK                         _______ _______ _______ _____ _____    ______ ____
ROOT
ATOM      1  C   UNL     1      36.360  -0.762  15.417  0.00  0.00    +0.000 A 
ATOM      2  C   UNL     1      35.885  -1.779  16.274  0.00  0.00    +0.000 A 
ATOM      3  N   UNL     1      34.953  -1.502  17.166  0.00  0.00    +0.000 NA
ATOM      4  C   UNL     1      34.404  -0.297  17.330  0.00  0.00    +0.000 A 
ATOM      5  C   UNL     1      34.815   0.744  16.528  0.00  0.00    +0.000 A 
ATOM      6  N   UNL     1      34.421   2.024  16.440  0.00  0.00    +0.000 NA
ATOM      7  C   UNL     1      35.078   2.652  15.475  0.00  0.00    +0.000 A 
ATOM      8  C   UNL     1      35.063   3.932  14.941  0.00  0.00    +0.000 A 
ATOM      9  C   UNL     1      35.895   4.223  13.887  0.00  0.00    +0.000 A 
ATOM     10  C   UNL     1      36.761   3.299  13.319  0.00  0.00    +0.000 A 
ATOM     11  C   UNL     1      36.756   2.040  13.871  0.00  0.00    +0.000 A 
ATOM     12  C   UNL     1      35.944   1.711  14.918  0.00  0.00    +0.000 A 
ATOM     13  C   UNL     1      35.797   0.484  15.575  0.00  0.00    +0.000 A 
ENDROOT
BRANCH   2  14
ATOM     14  C   UNL     1      36.436  -3.124  16.154  0.00  0.00    +0.000 C 
ATOM     15  O   UNL     1      36.400  -3.763  15.067  0.00  0.00    +0.000 OA
BRANCH  14  16
ATOM     16  O   UNL     1      37.029  -3.777  17.222  0.00  0.00    +0.000 OA
BRANCH  16  17
ATOM     17  C   UNL     1      38.332  -3.436  17.685  0.00  0.00    +0.000 C 
ATOM     18  C   UNL     1      38.843  -4.495  18.633  0.00  0.00    +0.000 C 
ATOM     19  C   UNL     1      39.307  -3.272  16.549  0.00  0.00    +0.000 C 
ATOM     20  C   UNL     1      38.235  -2.143  18.484  0.00  0.00    +0.000 C 
ENDBRANCH  16  17
ENDBRANCH  14  16
ENDBRANCH   2  14
BRANCH   1  21
ATOM     21  C   UNL     1      37.332  -1.146  14.473  0.00  0.00    +0.000 C 
BRANCH  21  23
ATOM     22  C   UNL     1      38.590  -1.123  12.557  0.00  0.00    +0.000 C 
ATOM     23  O   UNL     1      37.331  -1.275  13.186  0.00  0.00    +0.000 OA
ENDBRANCH  21  23
ENDBRANCH   1  21
BRANCH  10  24
ATOM     24  O   UNL     1      37.598   3.609  12.251  0.00  0.00    +0.000 OA
BRANCH  24  25
ATOM     25  C   UNL     1      37.997   2.621  11.354  0.00  0.00    +0.000 C 
BRANCH  25  26
ATOM     26  C   UNL     1      37.335   2.740  10.040  0.00  0.00    +0.000 A 
ATOM     27  C   UNL     1      36.678   3.905   9.673  0.00  0.00    +0.000 A 
ATOM     28  C   UNL     1      36.054   4.020   8.454  0.00  0.00    +0.000 A 
ATOM     29  C   UNL     1      36.070   2.973   7.565  0.00  0.00    +0.000 A 
ATOM     30  C   UNL     1      36.708   1.802   7.885  0.00  0.00    +0.000 A 
ATOM     31  C   UNL     1      37.327   1.704   9.110  0.00  0.00    +0.000 A 
ENDBRANCH  25  26
ENDBRANCH  24  25
ENDBRANCH  10  24
TORSDOF 8
ENDMDL
MODEL 9
REMARK VINA RESULT:      -6.3      3.570      5.644
REMARK  Name = 
REMARK  8 active torsions:
REMARK  status: ('A' for Active; 'I' for Inactive)
REMARK    1  A    between atoms: O_2  and  C_3
REMARK    2  A    between atoms: C_3  and  C_4
REMARK    3  A    between atoms: C_5  and  C_6
REMARK    4  A    between atoms: C_6  and  O_8
REMARK    5  A    between atoms: O_8  and  C_9
REMARK    6  A    between atoms: C_20  and  O_21
REMARK    7  A    between atoms: O_21  and  C_22
REMARK    8  A    between atoms: C_22  and  C_23
REMARK                            x       y       z     vdW  Elec       q    Type
REMARK                         _______ _______ _______ _____ _____    ______ ____
ROOT
ATOM      1  C   UNL     1      36.978   0.054  15.967  0.00  0.00    +0.000 A 
ATOM      2  C   UNL     1      36.522  -0.784  17.009  0.00  0.00    +0.000 A 
ATOM      3  N   UNL     1      35.480  -0.421  17.733  0.00  0.00    +0.000 NA
ATOM      4  C   UNL     1      34.798   0.712  17.554  0.00  0.00    +0.000 A 
ATOM      5  C   UNL     1      35.182   1.577  16.554  0.00  0.00    +0.000 A 
ATOM      6  N   UNL     1      34.673   2.742  16.125  0.00  0.00    +0.000 NA
ATOM      7  C   UNL     1      35.359   3.201  15.087  0.00  0.00    +0.000 A 
ATOM      8  C   UNL     1      35.270   4.307  14.256  0.00  0.00    +0.000 A 
ATOM      9  C   UNL     1      36.173   4.442  13.229  0.00  0.00    +0.000 A 
ATOM     10  C   UNL     1      37.181   3.524  12.973  0.00  0.00    +0.000 A 
ATOM     11  C   UNL     1      37.246   2.439  13.814  0.00  0.00    +0.000 A 
ATOM     12  C   UNL     1      36.368   2.270  14.846  0.00  0.00    +0.000 A 
ATOM     13  C   UNL     1      36.279   1.223  15.771  0.00  0.00    +0.000 A 
ENDROOT
BRANCH   2  14
ATOM     14  C   UNL     1      37.215  -2.041  17.265  0.00  0.00    +0.000 C 
ATOM     15  O   UNL     1      38.439  -2.077  17.566  0.00  0.00    +0.000 OA
BRANCH  14  16
ATOM     16  O   UNL     1      36.573  -3.266  17.191  0.00  0.00    +0.000 OA
BRANCH  16  17
ATOM     17  C   UNL     1      36.204  -3.850  15.946  0.00  0.00    +0.000 C 
ATOM     18  C   UNL     1      35.907  -5.320  16.127  0.00  0.00    +0.000 C 
ATOM     19  C   UNL     1      35.005  -3.171  15.339  0.00  0.00    +0.000 C 
ATOM     20  C   UNL     1      37.394  -3.757  15.001  0.00  0.00    +0.000 C 
ENDBRANCH  16  17
ENDBRANCH  14  16
ENDBRANCH   2  14
BRANCH   1  21
ATOM     21  C   UNL     1      38.076  -0.419  15.222  0.00  0.00    +0.000 C 
BRANCH  21  23
ATOM     22  C   UNL     1      40.196  -1.116  14.701  0.00  0.00    +0.000 C 
ATOM     23  O   UNL     1      39.328  -0.100  15.168  0.00  0.00    +0.000 OA
ENDBRANCH  21  23
ENDBRANCH   1  21
BRANCH  10  24
ATOM     24  O   UNL     1      38.088   3.674  11.927  0.00  0.00    +0.000 OA
BRANCH  24  25
ATOM     25  C   UNL     1      38.282   2.648  11.006  0.00  0.00    +0.000 C 
BRANCH  25  26
ATOM     26  C   UNL     1      37.473   2.815   9.783  0.00  0.00    +0.000 A 
ATOM     27  C   UNL     1      37.423   1.821   8.816  0.00  0.00    +0.000 A 
ATOM     28  C   UNL     1      36.678   1.973   7.671  0.00  0.00    +0.000 A 
ATOM     29  C   UNL     1      35.958   3.124   7.462  0.00  0.00    +0.000 A 
ATOM     30  C   UNL     1      35.976   4.133   8.391  0.00  0.00    +0.000 A 
ATOM     31  C   UNL     1      36.728   3.964   9.530  0.00  0.00    +0.000 A 
ENDBRANCH  25  26
ENDBRANCH  24  25
ENDBRANCH  10  24
TORSDOF 8
ENDMDL
MODEL 10
REMARK VINA RESULT:      -6.3      3.286      6.161
REMARK  Name = 
REMARK  8 active torsions:
REMARK  status: ('A' for Active; 'I' for Inactive)
REMARK    1  A    between atoms: O_2  and  C_3
REMARK    2  A    between atoms: C_3  and  C_4
REMARK    3  A    between atoms: C_5  and  C_6
REMARK    4  A    between atoms: C_6  and  O_8
REMARK    5  A    between atoms: O_8  and  C_9
REMARK    6  A    between atoms: C_20  and  O_21
REMARK    7  A    between atoms: O_21  and  C_22
REMARK    8  A    between atoms: C_22  and  C_23
REMARK                            x       y       z     vdW  Elec       q    Type
REMARK                         _______ _______ _______ _____ _____    ______ ____
ROOT
ATOM      1  C   UNL     1      39.528   0.130  14.502  0.00  0.00    +0.000 A 
ATOM      2  C   UNL     1      40.560  -0.830  14.416  0.00  0.00    +0.000 A 
ATOM      3  N   UNL     1      40.464  -1.958  15.094  0.00  0.00    +0.000 NA
ATOM      4  C   UNL     1      39.435  -2.275  15.882  0.00  0.00    +0.000 A 
ATOM      5  C   UNL     1      38.389  -1.389  16.012  0.00  0.00    +0.000 A 
ATOM      6  N   UNL     1      37.231  -1.455  16.687  0.00  0.00    +0.000 NA
ATOM      7  C   UNL     1      36.503  -0.366  16.477  0.00  0.00    +0.000 A 
ATOM      8  C   UNL     1      35.255   0.080  16.884  0.00  0.00    +0.000 A 
ATOM      9  C   UNL     1      34.801   1.294  16.425  0.00  0.00    +0.000 A 
ATOM     10  C   UNL     1      35.528   2.108  15.569  0.00  0.00    +0.000 A 
ATOM     11  C   UNL     1      36.762   1.640  15.185  0.00  0.00    +0.000 A 
ATOM     12  C   UNL     1      37.249   0.440  15.618  0.00  0.00    +0.000 A 
ATOM     13  C   UNL     1      38.460  -0.189  15.308  0.00  0.00    +0.000 A 
ENDROOT
BRANCH   2  14
ATOM     14  C   UNL     1      41.718  -0.555  13.573  0.00  0.00    +0.000 C 
ATOM     15  O   UNL     1      41.752  -0.892  12.358  0.00  0.00    +0.000 OA
BRANCH  14  16
ATOM     16  O   UNL     1      42.845   0.089  14.055  0.00  0.00    +0.000 OA
BRANCH  16  17
ATOM     17  C   UNL     1      44.097  -0.578  14.189  0.00  0.00    +0.000 C 
ATOM     18  C   UNL     1      44.708  -0.274  15.536  0.00  0.00    +0.000 C 
ATOM     19  C   UNL     1      43.958  -2.069  14.029  0.00  0.00    +0.000 C 
ATOM     20  C   UNL     1      45.051  -0.024  13.139  0.00  0.00    +0.000 C 
ENDBRANCH  16  17
ENDBRANCH  14  16
ENDBRANCH   2  14
BRANCH   1  21
ATOM     21  C   UNL     1      39.692   1.293  13.724  0.00  0.00    +0.000 C 
BRANCH  21  23
ATOM     22  C   UNL     1      40.542   3.260  12.911  0.00  0.00    +0.000 C 
ATOM     23  O   UNL     1      40.018   2.515  13.994  0.00  0.00    +0.000 OA
ENDBRANCH  21  23
ENDBRANCH   1  21
BRANCH  10  24
ATOM     24  O   UNL     1      35.054   3.334  15.113  0.00  0.00    +0.000 OA
BRANCH  24  25
ATOM     25  C   UNL     1      35.940   4.335  14.721  0.00  0.00    +0.000 C 
BRANCH  25  26
ATOM     26  C   UNL     1      35.330   5.310  13.796  0.00  0.00    +0.000 A 
ATOM     27  C   UNL     1      34.216   6.048  14.167  0.00  0.00    +0.000 A 
ATOM     28  C   UNL     1      33.638   6.952  13.308  0.00  0.00    +0.000 A 
ATOM     29  C   UNL     1      34.160   7.146  12.053  0.00  0.00    +0.000 A 
ATOM     30  C   UNL     1      35.262   6.439  11.643  0.00  0.00    +0.000 A 
ATOM     31  C   UNL     1      35.826   5.538  12.515  0.00  0.00    +0.000 A 
ENDBRANCH  25  26
ENDBRANCH  24  25
ENDBRANCH  10  24
TORSDOF 8
ENDMDL
