MODEL 1
REMARK VINA RESULT:      -6.3      0.000      0.000
REMARK  Name = 
REMARK  3 active torsions:
REMARK  status: ('A' for Active; 'I' for Inactive)
REMARK    1  A    between atoms: O_2  and  C_3
REMARK    2  A    between atoms: C_6  and  C_7
REMARK    3  A    between atoms: C_8  and  C_9
REMARK                            x       y       z     vdW  Elec       q    Type
REMARK                         _______ _______ _______ _____ _____    ______ ____
ROOT
ATOM      1  C   UNL     1      18.537  10.685  38.600  0.00  0.00    +0.000 C 
ATOM      2  C   UNL     1      20.068  10.472  38.537  0.00  0.00    +0.000 C 
ATOM      3  C   UNL     1      20.714   9.996  37.554  0.00  0.00    +0.000 C 
ATOM      4  N   UNL     1      22.147   9.847  37.622  0.00  0.00    +0.000 NA
ATOM      5  O   UNL     1      20.108   9.607  36.410  0.00  0.00    +0.000 OA
ATOM      6  C   UNL     1      18.753   9.719  36.280  0.00  0.00    +0.000 C 
ATOM      7  C   UNL     1      18.052  10.195  37.242  0.00  0.00    +0.000 C 
ATOM      8  C   UNL     1      16.593  10.300  37.057  0.00  0.00    +0.000 C 
ATOM      9  C   UNL     1      16.373  11.013  35.742  0.00  0.00    +0.000 C 
ATOM     10  C   UNL     1      17.159  10.429  34.607  0.00  0.00    +0.000 C 
ATOM     11  C   UNL     1      18.063   9.282  34.989  0.00  0.00    +0.000 C 
ENDROOT
BRANCH   1  15
ATOM     12  C   UNL     1      17.339   7.233  40.967  0.00  0.00    +0.000 A 
ATOM     13  C   UNL     1      16.729   8.454  41.125  0.00  0.00    +0.000 A 
ATOM     14  C   UNL     1      17.135   9.551  40.349  0.00  0.00    +0.000 A 
ATOM     15  C   UNL     1      18.144   9.404  39.425  0.00  0.00    +0.000 A 
ATOM     16  C   UNL     1      18.731   8.215  39.280  0.00  0.00    +0.000 A 
ATOM     17  C   UNL     1      18.342   7.105  40.044  0.00  0.00    +0.000 A 
BRANCH  12  19
ATOM     18  C   UNL     1      17.861   5.127  42.128  0.00  0.00    +0.000 C 
ATOM     19  O   UNL     1      16.965   6.116  41.720  0.00  0.00    +0.000 OA
ENDBRANCH  12  19
ENDBRANCH   1  15
BRANCH   2  20
ATOM     20  C   UNL     1      20.735  10.873  39.729  0.00  0.00    +0.000 C 
ATOM     21  N   UNL     1      21.291  11.185  40.721  0.00  0.00    +0.000 NA
ENDBRANCH   2  20
TORSDOF 3
ENDMDL
MODEL 2
REMARK VINA RESULT:      -6.1     21.563     23.321
REMARK  Name = 
REMARK  3 active torsions:
REMARK  status: ('A' for Active; 'I' for Inactive)
REMARK    1  A    between atoms: O_2  and  C_3
REMARK    2  A    between atoms: C_6  and  C_7
REMARK    3  A    between atoms: C_8  and  C_9
REMARK                            x       y       z     vdW  Elec       q    Type
REMARK                         _______ _______ _______ _____ _____    ______ ____
ROOT
ATOM      1  C   UNL     1      27.463  23.360  24.271  0.00  0.00    +0.000 C 
ATOM      2  C   UNL     1      27.932  23.690  22.834  0.00  0.00    +0.000 C 
ATOM      3  C   UNL     1      29.118  23.975  22.485  0.00  0.00    +0.000 C 
ATOM      4  N   UNL     1      29.427  24.266  21.106  0.00  0.00    +0.000 NA
ATOM      5  O   UNL     1      30.140  24.024  23.368  0.00  0.00    +0.000 OA
ATOM      6  C   UNL     1      29.918  23.761  24.689  0.00  0.00    +0.000 C 
ATOM      7  C   UNL     1      28.738  23.466  25.096  0.00  0.00    +0.000 C 
ATOM      8  C   UNL     1      28.544  23.188  26.531  0.00  0.00    +0.000 C 
ATOM      9  C   UNL     1      29.589  22.166  26.920  0.00  0.00    +0.000 C 
ATOM     10  C   UNL     1      30.975  22.531  26.482  0.00  0.00    +0.000 C 
ATOM     11  C   UNL     1      31.069  23.813  25.692  0.00  0.00    +0.000 C 
ENDROOT
BRANCH   1  15
ATOM     12  C   UNL     1      25.641  27.158  25.373  0.00  0.00    +0.000 A 
ATOM     13  C   UNL     1      24.927  25.984  25.413  0.00  0.00    +0.000 A 
ATOM     14  C   UNL     1      25.539  24.774  25.053  0.00  0.00    +0.000 A 
ATOM     15  C   UNL     1      26.857  24.759  24.660  0.00  0.00    +0.000 A 
ATOM     16  C   UNL     1      27.542  25.904  24.623  0.00  0.00    +0.000 A 
ATOM     17  C   UNL     1      26.952  27.125  24.979  0.00  0.00    +0.000 A 
BRANCH  12  19
ATOM     18  C   UNL     1      24.009  28.510  26.622  0.00  0.00    +0.000 C 
ATOM     19  O   UNL     1      25.069  28.384  25.724  0.00  0.00    +0.000 OA
ENDBRANCH  12  19
ENDBRANCH   1  15
BRANCH   2  20
ATOM     20  C   UNL     1      26.876  23.647  21.881  0.00  0.00    +0.000 C 
ATOM     21  N   UNL     1      25.995  23.593  21.098  0.00  0.00    +0.000 NA
ENDBRANCH   2  20
TORSDOF 3
ENDMDL
MODEL 3
REMARK VINA RESULT:      -5.8     21.488     24.291
REMARK  Name = 
REMARK  3 active torsions:
REMARK  status: ('A' for Active; 'I' for Inactive)
REMARK    1  A    between atoms: O_2  and  C_3
REMARK    2  A    between atoms: C_6  and  C_7
REMARK    3  A    between atoms: C_8  and  C_9
REMARK                            x       y       z     vdW  Elec       q    Type
REMARK                         _______ _______ _______ _____ _____    ______ ____
ROOT
ATOM      1  C   UNL     1      28.639  25.424  25.207  0.00  0.00    +0.000 C 
ATOM      2  C   UNL     1      27.245  24.757  25.154  0.00  0.00    +0.000 C 
ATOM      3  C   UNL     1      26.998  23.528  25.356  0.00  0.00    +0.000 C 
ATOM      4  N   UNL     1      25.647  23.029  25.275  0.00  0.00    +0.000 NA
ATOM      5  O   UNL     1      27.968  22.635  25.652  0.00  0.00    +0.000 OA
ATOM      6  C   UNL     1      29.269  23.040  25.743  0.00  0.00    +0.000 C 
ATOM      7  C   UNL     1      29.573  24.270  25.549  0.00  0.00    +0.000 C 
ATOM      8  C   UNL     1      30.990  24.664  25.658  0.00  0.00    +0.000 C 
ATOM      9  C   UNL     1      31.490  24.121  26.978  0.00  0.00    +0.000 C 
ATOM     10  C   UNL     1      31.172  22.671  27.187  0.00  0.00    +0.000 C 
ATOM     11  C   UNL     1      30.369  22.035  26.078  0.00  0.00    +0.000 C 
ENDROOT
BRANCH   1  15
ATOM     12  C   UNL     1      29.495  25.740  20.950  0.00  0.00    +0.000 A 
ATOM     13  C   UNL     1      29.444  26.854  21.754  0.00  0.00    +0.000 A 
ATOM     14  C   UNL     1      29.167  26.724  23.123  0.00  0.00    +0.000 A 
ATOM     15  C   UNL     1      28.945  25.478  23.665  0.00  0.00    +0.000 A 
ATOM     16  C   UNL     1      28.996  24.403  22.877  0.00  0.00    +0.000 A 
ATOM     17  C   UNL     1      29.271  24.509  21.506  0.00  0.00    +0.000 A 
BRANCH  12  19
ATOM     18  C   UNL     1      30.134  27.013  18.944  0.00  0.00    +0.000 C 
ATOM     19  O   UNL     1      29.767  25.827  19.582  0.00  0.00    +0.000 OA
ENDBRANCH  12  19
ENDBRANCH   1  15
BRANCH   2  20
ATOM     20  C   UNL     1      26.201  25.674  24.843  0.00  0.00    +0.000 C 
ATOM     21  N   UNL     1      25.350  26.445  24.575  0.00  0.00    +0.000 NA
ENDBRANCH   2  20
TORSDOF 3
ENDMDL
MODEL 4
REMARK VINA RESULT:      -5.7     20.367     21.979
REMARK  Name = 
REMARK  3 active torsions:
REMARK  status: ('A' for Active; 'I' for Inactive)
REMARK    1  A    between atoms: O_2  and  C_3
REMARK    2  A    between atoms: C_6  and  C_7
REMARK    3  A    between atoms: C_8  and  C_9
REMARK                            x       y       z     vdW  Elec       q    Type
REMARK                         _______ _______ _______ _____ _____    ______ ____
ROOT
ATOM      1  C   UNL     1      18.195  -9.289  25.794  0.00  0.00    +0.000 C 
ATOM      2  C   UNL     1      16.659  -9.183  25.645  0.00  0.00    +0.000 C 
ATOM      3  C   UNL     1      15.961  -8.143  25.846  0.00  0.00    +0.000 C 
ATOM      4  N   UNL     1      14.529  -8.176  25.672  0.00  0.00    +0.000 NA
ATOM      5  O   UNL     1      16.508  -6.967  26.226  0.00  0.00    +0.000 OA
ATOM      6  C   UNL     1      17.857  -6.866  26.410  0.00  0.00    +0.000 C 
ATOM      7  C   UNL     1      18.609  -7.886  26.220  0.00  0.00    +0.000 C 
ATOM      8  C   UNL     1      20.061  -7.731  26.429  0.00  0.00    +0.000 C 
ATOM      9  C   UNL     1      20.485  -6.515  25.637  0.00  0.00    +0.000 C 
ATOM     10  C   UNL     1      19.632  -5.309  25.891  0.00  0.00    +0.000 C 
ATOM     11  C   UNL     1      18.481  -5.539  26.839  0.00  0.00    +0.000 C 
ENDROOT
BRANCH   1  15
ATOM     12  C   UNL     1      18.461 -11.260  29.668  0.00  0.00    +0.000 A 
ATOM     13  C   UNL     1      19.076 -11.784  28.555  0.00  0.00    +0.000 A 
ATOM     14  C   UNL     1      18.974 -11.128  27.319  0.00  0.00    +0.000 A 
ATOM     15  C   UNL     1      18.259  -9.956  27.218  0.00  0.00    +0.000 A 
ATOM     16  C   UNL     1      17.666  -9.456  28.303  0.00  0.00    +0.000 A 
ATOM     17  C   UNL     1      17.754 -10.094  29.549  0.00  0.00    +0.000 A 
BRANCH  12  19
ATOM     18  C   UNL     1      18.459 -11.192  32.127  0.00  0.00    +0.000 C 
ATOM     19  O   UNL     1      18.538 -11.882  30.917  0.00  0.00    +0.000 OA
ENDBRANCH  12  19
ENDBRANCH   1  15
BRANCH   2  20
ATOM     20  C   UNL     1      16.054 -10.408  25.245  0.00  0.00    +0.000 C 
ATOM     21  N   UNL     1      15.571 -11.433  24.918  0.00  0.00    +0.000 NA
ENDBRANCH   2  20
TORSDOF 3
ENDMDL
MODEL 5
REMARK VINA RESULT:      -5.6     20.419     22.009
REMARK  Name = 
REMARK  3 active torsions:
REMARK  status: ('A' for Active; 'I' for Inactive)
REMARK    1  A    between atoms: O_2  and  C_3
REMARK    2  A    between atoms: C_6  and  C_7
REMARK    3  A    between atoms: C_8  and  C_9
REMARK                            x       y       z     vdW  Elec       q    Type
REMARK                         _______ _______ _______ _____ _____    ______ ____
ROOT
ATOM      1  C   UNL     1      19.073  -8.737  25.213  0.00  0.00    +0.000 C 
ATOM      2  C   UNL     1      18.352  -7.526  25.849  0.00  0.00    +0.000 C 
ATOM      3  C   UNL     1      18.874  -6.398  26.105  0.00  0.00    +0.000 C 
ATOM      4  N   UNL     1      18.090  -5.345  26.703  0.00  0.00    +0.000 NA
ATOM      5  O   UNL     1      20.170  -6.123  25.836  0.00  0.00    +0.000 OA
ATOM      6  C   UNL     1      20.969  -7.074  25.270  0.00  0.00    +0.000 C 
ATOM      7  C   UNL     1      20.492  -8.231  24.991  0.00  0.00    +0.000 C 
ATOM      8  C   UNL     1      21.391  -9.228  24.381  0.00  0.00    +0.000 C 
ATOM      9  C   UNL     1      22.053  -8.549  23.202  0.00  0.00    +0.000 C 
ATOM     10  C   UNL     1      22.649  -7.216  23.538  0.00  0.00    +0.000 C 
ATOM     11  C   UNL     1      22.434  -6.770  24.964  0.00  0.00    +0.000 C 
ENDROOT
BRANCH   1  15
ATOM     12  C   UNL     1      19.793 -11.166  28.754  0.00  0.00    +0.000 A 
ATOM     13  C   UNL     1      19.197 -11.694  27.634  0.00  0.00    +0.000 A 
ATOM     14  C   UNL     1      18.977 -10.889  26.506  0.00  0.00    +0.000 A 
ATOM     15  C   UNL     1      19.359  -9.567  26.519  0.00  0.00    +0.000 A 
ATOM     16  C   UNL     1      19.936  -9.063  27.611  0.00  0.00    +0.000 A 
ATOM     17  C   UNL     1      20.165  -9.849  28.750  0.00  0.00    +0.000 A 
BRANCH  12  19
ATOM     18  C   UNL     1      19.352 -11.747  31.104  0.00  0.00    +0.000 C 
ATOM     19  O   UNL     1      20.029 -11.934  29.898  0.00  0.00    +0.000 OA
ENDBRANCH  12  19
ENDBRANCH   1  15
BRANCH   2  20
ATOM     20  C   UNL     1      16.984  -7.785  26.145  0.00  0.00    +0.000 C 
ATOM     21  N   UNL     1      15.847  -8.004  26.369  0.00  0.00    +0.000 NA
ENDBRANCH   2  20
TORSDOF 3
ENDMDL
MODEL 6
REMARK VINA RESULT:      -5.5     18.437     20.794
REMARK  Name = 
REMARK  3 active torsions:
REMARK  status: ('A' for Active; 'I' for Inactive)
REMARK    1  A    between atoms: O_2  and  C_3
REMARK    2  A    between atoms: C_6  and  C_7
REMARK    3  A    between atoms: C_8  and  C_9
REMARK                            x       y       z     vdW  Elec       q    Type
REMARK                         _______ _______ _______ _____ _____    ______ ____
ROOT
ATOM      1  C   UNL     1      26.244  23.426  27.784  0.00  0.00    +0.000 C 
ATOM      2  C   UNL     1      26.012  23.712  29.287  0.00  0.00    +0.000 C 
ATOM      3  C   UNL     1      25.766  24.846  29.801  0.00  0.00    +0.000 C 
ATOM      4  N   UNL     1      25.569  24.979  31.224  0.00  0.00    +0.000 NA
ATOM      5  O   UNL     1      25.677  25.972  29.059  0.00  0.00    +0.000 OA
ATOM      6  C   UNL     1      25.853  25.918  27.706  0.00  0.00    +0.000 C 
ATOM      7  C   UNL     1      26.103  24.797  27.135  0.00  0.00    +0.000 C 
ATOM      8  C   UNL     1      26.286  24.785  25.672  0.00  0.00    +0.000 C 
ATOM      9  C   UNL     1      25.098  25.510  25.081  0.00  0.00    +0.000 C 
ATOM     10  C   UNL     1      24.831  26.840  25.719  0.00  0.00    +0.000 C 
ATOM     11  C   UNL     1      25.753  27.187  26.862  0.00  0.00    +0.000 C 
ENDROOT
BRANCH   1  15
ATOM     12  C   UNL     1      30.586  23.115  27.707  0.00  0.00    +0.000 A 
ATOM     13  C   UNL     1      29.790  22.154  27.130  0.00  0.00    +0.000 A 
ATOM     14  C   UNL     1      28.393  22.279  27.169  0.00  0.00    +0.000 A 
ATOM     15  C   UNL     1      27.816  23.366  27.785  0.00  0.00    +0.000 A 
ATOM     16  C   UNL     1      28.597  24.293  28.343  0.00  0.00    +0.000 A 
ATOM     17  C   UNL     1      29.995  24.189  28.316  0.00  0.00    +0.000 A 
BRANCH  12  19
ATOM     18  C   UNL     1      32.819  23.976  28.277  0.00  0.00    +0.000 C 
ATOM     19  O   UNL     1      31.981  23.027  27.691  0.00  0.00    +0.000 OA
ENDBRANCH  12  19
ENDBRANCH   1  15
BRANCH   2  20
ATOM     20  C   UNL     1      26.100  22.543  30.094  0.00  0.00    +0.000 C 
ATOM     21  N   UNL     1      26.164  21.584  30.779  0.00  0.00    +0.000 NA
ENDBRANCH   2  20
TORSDOF 3
ENDMDL
MODEL 7
REMARK VINA RESULT:      -5.5     22.639     24.015
REMARK  Name = 
REMARK  3 active torsions:
REMARK  status: ('A' for Active; 'I' for Inactive)
REMARK    1  A    between atoms: O_2  and  C_3
REMARK    2  A    between atoms: C_6  and  C_7
REMARK    3  A    between atoms: C_8  and  C_9
REMARK                            x       y       z     vdW  Elec       q    Type
REMARK                         _______ _______ _______ _____ _____    ______ ____
ROOT
ATOM      1  C   UNL     1      26.346   3.099  16.570  0.00  0.00    +0.000 C 
ATOM      2  C   UNL     1      26.224   3.252  15.035  0.00  0.00    +0.000 C 
ATOM      3  C   UNL     1      26.055   4.341  14.406  0.00  0.00    +0.000 C 
ATOM      4  N   UNL     1      25.955   4.349  12.967  0.00  0.00    +0.000 NA
ATOM      5  O   UNL     1      25.960   5.533  15.036  0.00  0.00    +0.000 OA
ATOM      6  C   UNL     1      26.045   5.598  16.397  0.00  0.00    +0.000 C 
ATOM      7  C   UNL     1      26.216   4.528  17.082  0.00  0.00    +0.000 C 
ATOM      8  C   UNL     1      26.304   4.644  18.550  0.00  0.00    +0.000 C 
ATOM      9  C   UNL     1      27.332   5.715  18.838  0.00  0.00    +0.000 C 
ATOM     10  C   UNL     1      27.107   6.983  18.071  0.00  0.00    +0.000 C 
ATOM     11  C   UNL     1      25.939   6.942  17.115  0.00  0.00    +0.000 C 
ENDROOT
BRANCH   1  15
ATOM     12  C   UNL     1      22.339   1.688  17.523  0.00  0.00    +0.000 A 
ATOM     13  C   UNL     1      23.455   0.973  17.889  0.00  0.00    +0.000 A 
ATOM     14  C   UNL     1      24.734   1.451  17.569  0.00  0.00    +0.000 A 
ATOM     15  C   UNL     1      24.876   2.639  16.889  0.00  0.00    +0.000 A 
ATOM     16  C   UNL     1      23.787   3.325  16.538  0.00  0.00    +0.000 A 
ATOM     17  C   UNL     1      22.498   2.867  16.847  0.00  0.00    +0.000 A 
BRANCH  12  19
ATOM     18  C   UNL     1      19.904   2.022  17.625  0.00  0.00    +0.000 C 
ATOM     19  O   UNL     1      21.047   1.246  17.822  0.00  0.00    +0.000 OA
ENDBRANCH  12  19
ENDBRANCH   1  15
BRANCH   2  20
ATOM     20  C   UNL     1      26.320   2.012  14.344  0.00  0.00    +0.000 C 
ATOM     21  N   UNL     1      26.380   0.987  13.764  0.00  0.00    +0.000 NA
ENDBRANCH   2  20
TORSDOF 3
ENDMDL
MODEL 8
REMARK VINA RESULT:      -5.5     20.865     22.257
REMARK  Name = 
REMARK  3 active torsions:
REMARK  status: ('A' for Active; 'I' for Inactive)
REMARK    1  A    between atoms: O_2  and  C_3
REMARK    2  A    between atoms: C_6  and  C_7
REMARK    3  A    between atoms: C_8  and  C_9
REMARK                            x       y       z     vdW  Elec       q    Type
REMARK                         _______ _______ _______ _____ _____    ______ ____
ROOT
ATOM      1  C   UNL     1      28.080  25.326  24.948  0.00  0.00    +0.000 C 
ATOM      2  C   UNL     1      27.581  24.402  23.812  0.00  0.00    +0.000 C 
ATOM      3  C   UNL     1      26.442  23.845  23.752  0.00  0.00    +0.000 C 
ATOM      4  N   UNL     1      26.098  23.000  22.634  0.00  0.00    +0.000 NA
ATOM      5  O   UNL     1      25.505  24.007  24.712  0.00  0.00    +0.000 OA
ATOM      6  C   UNL     1      25.766  24.792  25.798  0.00  0.00    +0.000 C 
ATOM      7  C   UNL     1      26.900  25.379  25.910  0.00  0.00    +0.000 C 
ATOM      8  C   UNL     1      27.138  26.218  27.099  0.00  0.00    +0.000 C 
ATOM      9  C   UNL     1      25.959  27.160  27.207  0.00  0.00    +0.000 C 
ATOM     10  C   UNL     1      24.632  26.468  27.120  0.00  0.00    +0.000 C 
ATOM     11  C   UNL     1      24.711  24.979  26.887  0.00  0.00    +0.000 C 
ENDROOT
BRANCH   1  15
ATOM     12  C   UNL     1      30.601  22.554  27.164  0.00  0.00    +0.000 A 
ATOM     13  C   UNL     1      31.061  23.793  26.786  0.00  0.00    +0.000 A 
ATOM     14  C   UNL     1      30.227  24.667  26.073  0.00  0.00    +0.000 A 
ATOM     15  C   UNL     1      28.945  24.286  25.751  0.00  0.00    +0.000 A 
ATOM     16  C   UNL     1      28.508  23.081  26.121  0.00  0.00    +0.000 A 
ATOM     17  C   UNL     1      29.323  22.190  26.834  0.00  0.00    +0.000 A 
BRANCH  12  19
ATOM     18  C   UNL     1      32.191  22.020  28.964  0.00  0.00    +0.000 C 
ATOM     19  O   UNL     1      31.400  21.653  27.875  0.00  0.00    +0.000 OA
ENDBRANCH  12  19
ENDBRANCH   1  15
BRANCH   2  20
ATOM     20  C   UNL     1      28.548  24.212  22.785  0.00  0.00    +0.000 C 
ATOM     21  N   UNL     1      29.339  24.069  21.923  0.00  0.00    +0.000 NA
ENDBRANCH   2  20
TORSDOF 3
ENDMDL
MODEL 9
REMARK VINA RESULT:      -5.4      2.552      5.206
REMARK  Name = 
REMARK  3 active torsions:
REMARK  status: ('A' for Active; 'I' for Inactive)
REMARK    1  A    between atoms: O_2  and  C_3
REMARK    2  A    between atoms: C_6  and  C_7
REMARK    3  A    between atoms: C_8  and  C_9
REMARK                            x       y       z     vdW  Elec       q    Type
REMARK                         _______ _______ _______ _____ _____    ______ ____
ROOT
ATOM      1  C   UNL     1      19.688   9.391  38.303  0.00  0.00    +0.000 C 
ATOM      2  C   UNL     1      18.937   9.416  39.655  0.00  0.00    +0.000 C 
ATOM      3  C   UNL     1      17.714   9.710  39.822  0.00  0.00    +0.000 C 
ATOM      4  N   UNL     1      17.132   9.697  41.142  0.00  0.00    +0.000 NA
ATOM      5  O   UNL     1      16.904  10.047  38.795  0.00  0.00    +0.000 OA
ATOM      6  C   UNL     1      17.391  10.081  37.520  0.00  0.00    +0.000 C 
ATOM      7  C   UNL     1      18.620   9.791  37.294  0.00  0.00    +0.000 C 
ATOM      8  C   UNL     1      19.103   9.839  35.901  0.00  0.00    +0.000 C 
ATOM      9  C   UNL     1      18.131   9.025  35.077  0.00  0.00    +0.000 C 
ATOM     10  C   UNL     1      16.696   9.393  35.309  0.00  0.00    +0.000 C 
ATOM     11  C   UNL     1      16.480  10.460  36.354  0.00  0.00    +0.000 C 
ENDROOT
BRANCH   1  15
ATOM     12  C   UNL     1      21.826  13.177  38.532  0.00  0.00    +0.000 A 
ATOM     13  C   UNL     1      22.484  11.998  38.271  0.00  0.00    +0.000 A 
ATOM     14  C   UNL     1      21.771  10.792  38.202  0.00  0.00    +0.000 A 
ATOM     15  C   UNL     1      20.408  10.786  38.395  0.00  0.00    +0.000 A 
ATOM     16  C   UNL     1      19.778  11.935  38.648  0.00  0.00    +0.000 A 
ATOM     17  C   UNL     1      20.471  13.152  38.721  0.00  0.00    +0.000 A 
BRANCH  12  19
ATOM     18  C   UNL     1      23.890  14.512  38.608  0.00  0.00    +0.000 C 
ATOM     19  O   UNL     1      22.500  14.399  38.609  0.00  0.00    +0.000 OA
ENDBRANCH  12  19
ENDBRANCH   1  15
BRANCH   2  20
ATOM     20  C   UNL     1      19.767   9.065  40.757  0.00  0.00    +0.000 C 
ATOM     21  N   UNL     1      20.439   8.780  41.683  0.00  0.00    +0.000 NA
ENDBRANCH   2  20
TORSDOF 3
ENDMDL
MODEL 10
REMARK VINA RESULT:      -5.4     21.586     24.134
REMARK  Name = 
REMARK  3 active torsions:
REMARK  status: ('A' for Active; 'I' for Inactive)
REMARK    1  A    between atoms: O_2  and  C_3
REMARK    2  A    between atoms: C_6  and  C_7
REMARK    3  A    between atoms: C_8  and  C_9
REMARK                            x       y       z     vdW  Elec       q    Type
REMARK                         _______ _______ _______ _____ _____    ______ ____
ROOT
ATOM      1  C   UNL     1      30.354  23.139  24.793  0.00  0.00    +0.000 C 
ATOM      2  C   UNL     1      29.839  23.157  26.251  0.00  0.00    +0.000 C 
ATOM      3  C   UNL     1      28.797  23.751  26.666  0.00  0.00    +0.000 C 
ATOM      4  N   UNL     1      28.425  23.691  28.059  0.00  0.00    +0.000 NA
ATOM      5  O   UNL     1      27.994  24.462  25.845  0.00  0.00    +0.000 OA
ATOM      6  C   UNL     1      28.288  24.561  24.515  0.00  0.00    +0.000 C 
ATOM      7  C   UNL     1      29.329  23.979  24.042  0.00  0.00    +0.000 C 
ATOM      8  C   UNL     1      29.608  24.112  22.600  0.00  0.00    +0.000 C 
ATOM      9  C   UNL     1      28.332  23.747  21.877  0.00  0.00    +0.000 C 
ATOM     10  C   UNL     1      27.122  24.459  22.400  0.00  0.00    +0.000 C 
ATOM     11  C   UNL     1      27.384  25.363  23.581  0.00  0.00    +0.000 C 
ENDROOT
BRANCH   1  15
ATOM     12  C   UNL     1      33.550  26.080  25.086  0.00  0.00    +0.000 A 
ATOM     13  C   UNL     1      33.810  24.774  24.746  0.00  0.00    +0.000 A 
ATOM     14  C   UNL     1      32.761  23.846  24.659  0.00  0.00    +0.000 A 
ATOM     15  C   UNL     1      31.468  24.244  24.911  0.00  0.00    +0.000 A 
ATOM     16  C   UNL     1      31.226  25.514  25.241  0.00  0.00    +0.000 A 
ATOM     17  C   UNL     1      32.259  26.458  25.335  0.00  0.00    +0.000 A 
BRANCH  12  19
ATOM     18  C   UNL     1      35.888  26.794  24.804  0.00  0.00    +0.000 C 
ATOM     19  O   UNL     1      34.567  27.035  25.184  0.00  0.00    +0.000 OA
ENDBRANCH  12  19
ENDBRANCH   1  15
BRANCH   2  20
ATOM     20  C   UNL     1      30.666  22.416  27.142  0.00  0.00    +0.000 C 
ATOM     21  N   UNL     1      31.341  21.810  27.895  0.00  0.00    +0.000 NA
ENDBRANCH   2  20
TORSDOF 3
ENDMDL
