MODEL 1
REMARK VINA RESULT:      -6.6      0.000      0.000
REMARK  Name = 
REMARK  4 active torsions:
REMARK  status: ('A' for Active; 'I' for Inactive)
REMARK    1  A    between atoms: C_2  and  C_12
REMARK    2  A    between atoms: N_3  and  C_4
REMARK    3  A    between atoms: C_4  and  N_6
REMARK    4  A    between atoms: C_15  and  N_16
REMARK                            x       y       z     vdW  Elec       q    Type
REMARK                         _______ _______ _______ _____ _____    ______ ____
ROOT
ATOM      1  O   UNL     1      17.740  10.299  33.564  0.00  0.00    +0.000 OA
ATOM      2  C   UNL     1      17.003  10.367  34.581  0.00  0.00    +0.000 C 
ATOM      3  N   UNL     1      15.637  10.686  34.350  0.00  0.00    +0.000 NA
ENDROOT
BRANCH   2   4
ATOM      4  C   UNL     1      17.527  10.130  35.930  0.00  0.00    +0.000 A 
ATOM      5  C   UNL     1      16.778  10.372  37.059  0.00  0.00    +0.000 A 
ATOM      6  C   UNL     1      17.270  10.150  38.320  0.00  0.00    +0.000 A 
ATOM      7  C   UNL     1      18.552   9.669  38.492  0.00  0.00    +0.000 A 
ATOM      8  C   UNL     1      19.321   9.418  37.389  0.00  0.00    +0.000 A 
ATOM      9  C   UNL     1      18.800   9.651  36.137  0.00  0.00    +0.000 A 
BRANCH   7  10
ATOM     10  N   UNL     1      19.088   9.428  39.798  0.00  0.00    +0.000 N 
ATOM     11  O   UNL     1      20.178   8.838  39.940  0.00  0.00    +0.000 OA
ATOM     12  O   UNL     1      18.364   9.864  40.874  0.00  0.00    +0.000 OA
ENDBRANCH   7  10
ENDBRANCH   2   4
BRANCH   3  13
ATOM     13  C   UNL     1      15.094  10.921  33.062  0.00  0.00    +0.000 C 
ATOM     14  S   UNL     1      14.428   9.743  32.163  0.00  0.00    +0.000 S 
BRANCH  13  15
ATOM     15  N   UNL     1      15.151  12.250  32.571  0.00  0.00    +0.000 N 
ATOM     16  C   UNL     1      14.504  13.354  33.263  0.00  0.00    +0.000 C 
ATOM     17  C   UNL     1      13.577  14.130  32.372  0.00  0.00    +0.000 C 
ATOM     18  C   UNL     1      14.155  14.401  31.018  0.00  0.00    +0.000 C 
ATOM     19  C   UNL     1      14.824  13.195  30.411  0.00  0.00    +0.000 C 
ATOM     20  C   UNL     1      15.856  12.598  31.351  0.00  0.00    +0.000 C 
ENDBRANCH  13  15
ENDBRANCH   3  13
TORSDOF 4
ENDMDL
MODEL 2
REMARK VINA RESULT:      -6.6      2.195      2.748
REMARK  Name = 
REMARK  4 active torsions:
REMARK  status: ('A' for Active; 'I' for Inactive)
REMARK    1  A    between atoms: C_2  and  C_12
REMARK    2  A    between atoms: N_3  and  C_4
REMARK    3  A    between atoms: C_4  and  N_6
REMARK    4  A    between atoms: C_15  and  N_16
REMARK                            x       y       z     vdW  Elec       q    Type
REMARK                         _______ _______ _______ _____ _____    ______ ____
ROOT
ATOM      1  O   UNL     1      13.313  11.681  36.279  0.00  0.00    +0.000 OA
ATOM      2  C   UNL     1      14.554  11.875  36.244  0.00  0.00    +0.000 C 
ATOM      3  N   UNL     1      15.023  12.785  35.257  0.00  0.00    +0.000 NA
ENDROOT
BRANCH   2   4
ATOM      4  C   UNL     1      15.467  11.199  37.172  0.00  0.00    +0.000 A 
ATOM      5  C   UNL     1      15.105  10.892  38.463  0.00  0.00    +0.000 A 
ATOM      6  C   UNL     1      15.961  10.260  39.328  0.00  0.00    +0.000 A 
ATOM      7  C   UNL     1      17.232   9.910  38.919  0.00  0.00    +0.000 A 
ATOM      8  C   UNL     1      17.622  10.202  37.640  0.00  0.00    +0.000 A 
ATOM      9  C   UNL     1      16.741  10.836  36.794  0.00  0.00    +0.000 A 
BRANCH   7  10
ATOM     10  N   UNL     1      18.143   9.249  39.803  0.00  0.00    +0.000 N 
ATOM     11  O   UNL     1      18.576   9.828  40.821  0.00  0.00    +0.000 OA
ATOM     12  O   UNL     1      18.519   7.971  39.493  0.00  0.00    +0.000 OA
ENDBRANCH   7  10
ENDBRANCH   2   4
BRANCH   3  13
ATOM     13  C   UNL     1      14.173  13.458  34.344  0.00  0.00    +0.000 C 
ATOM     14  S   UNL     1      13.123  14.607  34.806  0.00  0.00    +0.000 S 
BRANCH  13  15
ATOM     15  N   UNL     1      14.271  13.086  32.979  0.00  0.00    +0.000 N 
ATOM     16  C   UNL     1      15.012  11.908  32.554  0.00  0.00    +0.000 C 
ATOM     17  C   UNL     1      16.042  12.220  31.506  0.00  0.00    +0.000 C 
ATOM     18  C   UNL     1      15.534  13.144  30.442  0.00  0.00    +0.000 C 
ATOM     19  C   UNL     1      14.758  14.311  30.997  0.00  0.00    +0.000 C 
ATOM     20  C   UNL     1      13.642  13.850  31.918  0.00  0.00    +0.000 C 
ENDBRANCH  13  15
ENDBRANCH   3  13
TORSDOF 4
ENDMDL
MODEL 3
REMARK VINA RESULT:      -6.5      3.048      7.460
REMARK  Name = 
REMARK  4 active torsions:
REMARK  status: ('A' for Active; 'I' for Inactive)
REMARK    1  A    between atoms: C_2  and  C_12
REMARK    2  A    between atoms: N_3  and  C_4
REMARK    3  A    between atoms: C_4  and  N_6
REMARK    4  A    between atoms: C_15  and  N_16
REMARK                            x       y       z     vdW  Elec       q    Type
REMARK                         _______ _______ _______ _____ _____    ______ ____
ROOT
ATOM      1  O   UNL     1      17.817   8.989  36.272  0.00  0.00    +0.000 OA
ATOM      2  C   UNL     1      17.321  10.143  36.327  0.00  0.00    +0.000 C 
ATOM      3  N   UNL     1      17.479  10.838  37.557  0.00  0.00    +0.000 NA
ENDROOT
BRANCH   2   4
ATOM      4  C   UNL     1      16.620  10.737  35.184  0.00  0.00    +0.000 A 
ATOM      5  C   UNL     1      15.567  11.609  35.344  0.00  0.00    +0.000 A 
ATOM      6  C   UNL     1      14.913  12.164  34.274  0.00  0.00    +0.000 A 
ATOM      7  C   UNL     1      15.300  11.856  32.985  0.00  0.00    +0.000 A 
ATOM      8  C   UNL     1      16.343  10.991  32.794  0.00  0.00    +0.000 A 
ATOM      9  C   UNL     1      16.981  10.451  33.887  0.00  0.00    +0.000 A 
BRANCH   7  10
ATOM     10  N   UNL     1      14.633  12.422  31.852  0.00  0.00    +0.000 N 
ATOM     11  O   UNL     1      13.884  13.412  31.984  0.00  0.00    +0.000 OA
ATOM     12  O   UNL     1      14.846  11.843  30.632  0.00  0.00    +0.000 OA
ENDBRANCH   7  10
ENDBRANCH   2   4
BRANCH   3  13
ATOM     13  C   UNL     1      18.150  10.299  38.683  0.00  0.00    +0.000 C 
ATOM     14  S   UNL     1      17.385   9.449  39.836  0.00  0.00    +0.000 S 
BRANCH  13  15
ATOM     15  N   UNL     1      19.546  10.531  38.773  0.00  0.00    +0.000 N 
ATOM     16  C   UNL     1      20.086  11.809  39.212  0.00  0.00    +0.000 C 
ATOM     17  C   UNL     1      21.067  12.388  38.233  0.00  0.00    +0.000 C 
ATOM     18  C   UNL     1      22.029  11.374  37.697  0.00  0.00    +0.000 C 
ATOM     19  C   UNL     1      21.362  10.081  37.301  0.00  0.00    +0.000 C 
ATOM     20  C   UNL     1      20.526   9.515  38.437  0.00  0.00    +0.000 C 
ENDBRANCH  13  15
ENDBRANCH   3  13
TORSDOF 4
ENDMDL
MODEL 4
REMARK VINA RESULT:      -6.4      3.111      7.928
REMARK  Name = 
REMARK  4 active torsions:
REMARK  status: ('A' for Active; 'I' for Inactive)
REMARK    1  A    between atoms: C_2  and  C_12
REMARK    2  A    between atoms: N_3  and  C_4
REMARK    3  A    between atoms: C_4  and  N_6
REMARK    4  A    between atoms: C_15  and  N_16
REMARK                            x       y       z     vdW  Elec       q    Type
REMARK                         _______ _______ _______ _____ _____    ______ ____
ROOT
ATOM      1  O   UNL     1      18.640   9.507  35.937  0.00  0.00    +0.000 OA
ATOM      2  C   UNL     1      17.748  10.381  36.077  0.00  0.00    +0.000 C 
ATOM      3  N   UNL     1      17.591  10.919  37.384  0.00  0.00    +0.000 NA
ENDROOT
BRANCH   2   4
ATOM      4  C   UNL     1      16.914  10.820  34.953  0.00  0.00    +0.000 A 
ATOM      5  C   UNL     1      15.851  11.676  35.121  0.00  0.00    +0.000 A 
ATOM      6  C   UNL     1      15.073  12.086  34.067  0.00  0.00    +0.000 A 
ATOM      7  C   UNL     1      15.342  11.641  32.788  0.00  0.00    +0.000 A 
ATOM      8  C   UNL     1      16.394  10.788  32.590  0.00  0.00    +0.000 A 
ATOM      9  C   UNL     1      17.156  10.395  33.666  0.00  0.00    +0.000 A 
BRANCH   7  10
ATOM     10  N   UNL     1      14.545  12.054  31.673  0.00  0.00    +0.000 N 
ATOM     11  O   UNL     1      13.892  13.117  31.717  0.00  0.00    +0.000 OA
ATOM     12  O   UNL     1      14.526  11.248  30.570  0.00  0.00    +0.000 OA
ENDBRANCH   7  10
ENDBRANCH   2   4
BRANCH   3  13
ATOM     13  C   UNL     1      18.376  10.521  38.495  0.00  0.00    +0.000 C 
ATOM     14  S   UNL     1      19.831  11.167  38.816  0.00  0.00    +0.000 S 
BRANCH  13  15
ATOM     15  N   UNL     1      17.838   9.516  39.338  0.00  0.00    +0.000 N 
ATOM     16  C   UNL     1      16.544   9.669  39.987  0.00  0.00    +0.000 C 
ATOM     17  C   UNL     1      16.616   9.469  41.473  0.00  0.00    +0.000 C 
ATOM     18  C   UNL     1      17.457   8.295  41.867  0.00  0.00    +0.000 C 
ATOM     19  C   UNL     1      18.759   8.223  41.111  0.00  0.00    +0.000 C 
ATOM     20  C   UNL     1      18.535   8.274  39.609  0.00  0.00    +0.000 C 
ENDBRANCH  13  15
ENDBRANCH   3  13
TORSDOF 4
ENDMDL
MODEL 5
REMARK VINA RESULT:      -6.3      3.297      7.990
REMARK  Name = 
REMARK  4 active torsions:
REMARK  status: ('A' for Active; 'I' for Inactive)
REMARK    1  A    between atoms: C_2  and  C_12
REMARK    2  A    between atoms: N_3  and  C_4
REMARK    3  A    between atoms: C_4  and  N_6
REMARK    4  A    between atoms: C_15  and  N_16
REMARK                            x       y       z     vdW  Elec       q    Type
REMARK                         _______ _______ _______ _____ _____    ______ ____
ROOT
ATOM      1  O   UNL     1      18.067  11.634  37.553  0.00  0.00    +0.000 OA
ATOM      2  C   UNL     1      18.008  10.742  36.669  0.00  0.00    +0.000 C 
ATOM      3  N   UNL     1      18.782   9.572  36.900  0.00  0.00    +0.000 NA
ENDROOT
BRANCH   2   4
ATOM      4  C   UNL     1      17.185  10.902  35.465  0.00  0.00    +0.000 A 
ATOM      5  C   UNL     1      17.537  10.344  34.258  0.00  0.00    +0.000 A 
ATOM      6  C   UNL     1      16.765  10.495  33.134  0.00  0.00    +0.000 A 
ATOM      7  C   UNL     1      15.594  11.224  33.186  0.00  0.00    +0.000 A 
ATOM      8  C   UNL     1      15.217  11.791  34.373  0.00  0.00    +0.000 A 
ATOM      9  C   UNL     1      16.012  11.622  35.484  0.00  0.00    +0.000 A 
BRANCH   7  10
ATOM     10  N   UNL     1      14.771  11.396  32.027  0.00  0.00    +0.000 N 
ATOM     11  O   UNL     1      14.236  10.412  31.476  0.00  0.00    +0.000 OA
ATOM     12  O   UNL     1      14.597  12.665  31.551  0.00  0.00    +0.000 OA
ENDBRANCH   7  10
ENDBRANCH   2   4
BRANCH   3  13
ATOM     13  C   UNL     1      19.589   9.380  38.049  0.00  0.00    +0.000 C 
ATOM     14  S   UNL     1      19.013   8.745  39.429  0.00  0.00    +0.000 S 
BRANCH  13  15
ATOM     15  N   UNL     1      20.949   9.769  37.954  0.00  0.00    +0.000 N 
ATOM     16  C   UNL     1      21.596   9.998  36.671  0.00  0.00    +0.000 C 
ATOM     17  C   UNL     1      22.855   9.195  36.507  0.00  0.00    +0.000 C 
ATOM     18  C   UNL     1      23.717   9.202  37.731  0.00  0.00    +0.000 C 
ATOM     19  C   UNL     1      22.937   8.984  39.002  0.00  0.00    +0.000 C 
ATOM     20  C   UNL     1      21.785   9.966  39.124  0.00  0.00    +0.000 C 
ENDBRANCH  13  15
ENDBRANCH   3  13
TORSDOF 4
ENDMDL
MODEL 6
REMARK VINA RESULT:      -6.1      2.774      3.446
REMARK  Name = 
REMARK  4 active torsions:
REMARK  status: ('A' for Active; 'I' for Inactive)
REMARK    1  A    between atoms: C_2  and  C_12
REMARK    2  A    between atoms: N_3  and  C_4
REMARK    3  A    between atoms: C_4  and  N_6
REMARK    4  A    between atoms: C_15  and  N_16
REMARK                            x       y       z     vdW  Elec       q    Type
REMARK                         _______ _______ _______ _____ _____    ______ ____
ROOT
ATOM      1  O   UNL     1      12.763  12.624  36.505  0.00  0.00    +0.000 OA
ATOM      2  C   UNL     1      13.978  12.301  36.481  0.00  0.00    +0.000 C 
ATOM      3  N   UNL     1      14.723  12.736  35.351  0.00  0.00    +0.000 NA
ENDROOT
BRANCH   2   4
ATOM      4  C   UNL     1      14.590  11.518  37.559  0.00  0.00    +0.000 A 
ATOM      5  C   UNL     1      15.931  11.209  37.569  0.00  0.00    +0.000 A 
ATOM      6  C   UNL     1      16.501  10.477  38.579  0.00  0.00    +0.000 A 
ATOM      7  C   UNL     1      15.731  10.022  39.631  0.00  0.00    +0.000 A 
ATOM      8  C   UNL     1      14.394  10.314  39.649  0.00  0.00    +0.000 A 
ATOM      9  C   UNL     1      13.850  11.051  38.622  0.00  0.00    +0.000 A 
BRANCH   7  10
ATOM     10  N   UNL     1      16.304   9.257  40.696  0.00  0.00    +0.000 N 
ATOM     11  O   UNL     1      17.092   8.319  40.455  0.00  0.00    +0.000 OA
ATOM     12  O   UNL     1      15.957   9.588  41.977  0.00  0.00    +0.000 OA
ENDBRANCH   7  10
ENDBRANCH   2   4
BRANCH   3  13
ATOM     13  C   UNL     1      14.168  13.494  34.290  0.00  0.00    +0.000 C 
ATOM     14  S   UNL     1      13.083  14.678  34.532  0.00  0.00    +0.000 S 
BRANCH  13  15
ATOM     15  N   UNL     1      14.601  13.178  32.977  0.00  0.00    +0.000 N 
ATOM     16  C   UNL     1      14.299  14.035  31.840  0.00  0.00    +0.000 C 
ATOM     17  C   UNL     1      13.629  13.292  30.720  0.00  0.00    +0.000 C 
ATOM     18  C   UNL     1      14.256  11.962  30.441  0.00  0.00    +0.000 C 
ATOM     19  C   UNL     1      14.550  11.175  31.692  0.00  0.00    +0.000 C 
ATOM     20  C   UNL     1      15.372  11.986  32.679  0.00  0.00    +0.000 C 
ENDBRANCH  13  15
ENDBRANCH   3  13
TORSDOF 4
ENDMDL
MODEL 7
REMARK VINA RESULT:      -6.0      1.480      2.118
REMARK  Name = 
REMARK  4 active torsions:
REMARK  status: ('A' for Active; 'I' for Inactive)
REMARK    1  A    between atoms: C_2  and  C_12
REMARK    2  A    between atoms: N_3  and  C_4
REMARK    3  A    between atoms: C_4  and  N_6
REMARK    4  A    between atoms: C_15  and  N_16
REMARK                            x       y       z     vdW  Elec       q    Type
REMARK                         _______ _______ _______ _____ _____    ______ ____
ROOT
ATOM      1  O   UNL     1      17.114   9.718  33.053  0.00  0.00    +0.000 OA
ATOM      2  C   UNL     1      16.689  10.527  33.916  0.00  0.00    +0.000 C 
ATOM      3  N   UNL     1      15.494  11.225  33.591  0.00  0.00    +0.000 NA
ENDROOT
BRANCH   2   4
ATOM      4  C   UNL     1      17.389  10.738  35.187  0.00  0.00    +0.000 A 
ATOM      5  C   UNL     1      18.332   9.855  35.659  0.00  0.00    +0.000 A 
ATOM      6  C   UNL     1      18.985  10.055  36.849  0.00  0.00    +0.000 A 
ATOM      7  C   UNL     1      18.707  11.167  37.618  0.00  0.00    +0.000 A 
ATOM      8  C   UNL     1      17.773  12.064  37.174  0.00  0.00    +0.000 A 
ATOM      9  C   UNL     1      17.135  11.837  35.977  0.00  0.00    +0.000 A 
BRANCH   7  10
ATOM     10  N   UNL     1      19.376  11.398  38.862  0.00  0.00    +0.000 N 
ATOM     11  O   UNL     1      20.078  12.417  39.029  0.00  0.00    +0.000 OA
ATOM     12  O   UNL     1      19.220  10.468  39.852  0.00  0.00    +0.000 OA
ENDBRANCH   7  10
ENDBRANCH   2   4
BRANCH   3  13
ATOM     13  C   UNL     1      14.789  11.049  32.374  0.00  0.00    +0.000 C 
ATOM     14  S   UNL     1      13.874   9.741  32.072  0.00  0.00    +0.000 S 
BRANCH  13  15
ATOM     15  N   UNL     1      14.911  12.076  31.404  0.00  0.00    +0.000 N 
ATOM     16  C   UNL     1      16.099  12.215  30.576  0.00  0.00    +0.000 C 
ATOM     17  C   UNL     1      16.696  13.591  30.649  0.00  0.00    +0.000 C 
ATOM     18  C   UNL     1      15.671  14.679  30.581  0.00  0.00    +0.000 C 
ATOM     19  C   UNL     1      14.472  14.415  31.456  0.00  0.00    +0.000 C 
ATOM     20  C   UNL     1      13.863  13.053  31.171  0.00  0.00    +0.000 C 
ENDBRANCH  13  15
ENDBRANCH   3  13
TORSDOF 4
ENDMDL
MODEL 8
REMARK VINA RESULT:      -6.0     19.828     22.432
REMARK  Name = 
REMARK  4 active torsions:
REMARK  status: ('A' for Active; 'I' for Inactive)
REMARK    1  A    between atoms: C_2  and  C_12
REMARK    2  A    between atoms: N_3  and  C_4
REMARK    3  A    between atoms: C_4  and  N_6
REMARK    4  A    between atoms: C_15  and  N_16
REMARK                            x       y       z     vdW  Elec       q    Type
REMARK                         _______ _______ _______ _____ _____    ______ ____
ROOT
ATOM      1  O   UNL     1      34.668  -3.317  35.029  0.00  0.00    +0.000 OA
ATOM      2  C   UNL     1      33.775  -2.738  34.360  0.00  0.00    +0.000 C 
ATOM      3  N   UNL     1      32.788  -3.573  33.770  0.00  0.00    +0.000 NA
ENDROOT
BRANCH   2   4
ATOM      4  C   UNL     1      33.755  -1.280  34.200  0.00  0.00    +0.000 A 
ATOM      5  C   UNL     1      33.938  -0.676  32.977  0.00  0.00    +0.000 A 
ATOM      6  C   UNL     1      33.918   0.688  32.830  0.00  0.00    +0.000 A 
ATOM      7  C   UNL     1      33.711   1.504  33.924  0.00  0.00    +0.000 A 
ATOM      8  C   UNL     1      33.526   0.932  35.153  0.00  0.00    +0.000 A 
ATOM      9  C   UNL     1      33.550  -0.439  35.270  0.00  0.00    +0.000 A 
BRANCH   7  10
ATOM     10  N   UNL     1      33.685   2.930  33.795  0.00  0.00    +0.000 N 
ATOM     11  O   UNL     1      33.451   3.465  32.692  0.00  0.00    +0.000 OA
ATOM     12  O   UNL     1      33.927   3.675  34.915  0.00  0.00    +0.000 OA
ENDBRANCH   7  10
ENDBRANCH   2   4
BRANCH   3  13
ATOM     13  C   UNL     1      32.772  -4.984  33.902  0.00  0.00    +0.000 C 
ATOM     14  S   UNL     1      32.142  -5.737  35.196  0.00  0.00    +0.000 S 
BRANCH  13  15
ATOM     15  N   UNL     1      33.340  -5.737  32.843  0.00  0.00    +0.000 N 
ATOM     16  C   UNL     1      34.656  -6.348  32.952  0.00  0.00    +0.000 C 
ATOM     17  C   UNL     1      35.570  -5.956  31.827  0.00  0.00    +0.000 C 
ATOM     18  C   UNL     1      34.900  -5.985  30.489  0.00  0.00    +0.000 C 
ATOM     19  C   UNL     1      33.533  -5.350  30.502  0.00  0.00    +0.000 C 
ATOM     20  C   UNL     1      32.650  -5.949  31.584  0.00  0.00    +0.000 C 
ENDBRANCH  13  15
ENDBRANCH   3  13
TORSDOF 4
ENDMDL
MODEL 9
REMARK VINA RESULT:      -6.0      3.785      8.682
REMARK  Name = 
REMARK  4 active torsions:
REMARK  status: ('A' for Active; 'I' for Inactive)
REMARK    1  A    between atoms: C_2  and  C_12
REMARK    2  A    between atoms: N_3  and  C_4
REMARK    3  A    between atoms: C_4  and  N_6
REMARK    4  A    between atoms: C_15  and  N_16
REMARK                            x       y       z     vdW  Elec       q    Type
REMARK                         _______ _______ _______ _____ _____    ______ ____
ROOT
ATOM      1  O   UNL     1      17.147   9.937  39.494  0.00  0.00    +0.000 OA
ATOM      2  C   UNL     1      17.677   9.467  38.456  0.00  0.00    +0.000 C 
ATOM      3  N   UNL     1      18.677   8.476  38.653  0.00  0.00    +0.000 NA
ENDROOT
BRANCH   2   4
ATOM      4  C   UNL     1      17.285   9.917  37.117  0.00  0.00    +0.000 A 
ATOM      5  C   UNL     1      16.396  10.950  36.923  0.00  0.00    +0.000 A 
ATOM      6  C   UNL     1      16.031  11.369  35.669  0.00  0.00    +0.000 A 
ATOM      7  C   UNL     1      16.554  10.755  34.549  0.00  0.00    +0.000 A 
ATOM      8  C   UNL     1      17.440   9.724  34.710  0.00  0.00    +0.000 A 
ATOM      9  C   UNL     1      17.788   9.326  35.980  0.00  0.00    +0.000 A 
BRANCH   7  10
ATOM     10  N   UNL     1      16.188  11.175  33.230  0.00  0.00    +0.000 N 
ATOM     11  O   UNL     1      15.405  12.132  33.061  0.00  0.00    +0.000 OA
ATOM     12  O   UNL     1      16.724  10.494  32.173  0.00  0.00    +0.000 OA
ENDBRANCH   7  10
ENDBRANCH   2   4
BRANCH   3  13
ATOM     13  C   UNL     1      19.084   8.014  39.929  0.00  0.00    +0.000 C 
ATOM     14  S   UNL     1      20.144   8.821  40.858  0.00  0.00    +0.000 S 
BRANCH  13  15
ATOM     15  N   UNL     1      18.523   6.793  40.382  0.00  0.00    +0.000 N 
ATOM     16  C   UNL     1      17.221   6.738  41.031  0.00  0.00    +0.000 C 
ATOM     17  C   UNL     1      17.270   6.051  42.365  0.00  0.00    +0.000 C 
ATOM     18  C   UNL     1      18.093   4.800  42.351  0.00  0.00    +0.000 C 
ATOM     19  C   UNL     1      19.405   4.967  41.629  0.00  0.00    +0.000 C 
ATOM     20  C   UNL     1      19.204   5.520  40.228  0.00  0.00    +0.000 C 
ENDBRANCH  13  15
ENDBRANCH   3  13
TORSDOF 4
ENDMDL
MODEL 10
REMARK VINA RESULT:      -5.9      4.253      7.829
REMARK  Name = 
REMARK  4 active torsions:
REMARK  status: ('A' for Active; 'I' for Inactive)
REMARK    1  A    between atoms: C_2  and  C_12
REMARK    2  A    between atoms: N_3  and  C_4
REMARK    3  A    between atoms: C_4  and  N_6
REMARK    4  A    between atoms: C_15  and  N_16
REMARK                            x       y       z     vdW  Elec       q    Type
REMARK                         _______ _______ _______ _____ _____    ______ ____
ROOT
ATOM      1  O   UNL     1      18.626   9.870  39.178  0.00  0.00    +0.000 OA
ATOM      2  C   UNL     1      18.608  10.863  38.408  0.00  0.00    +0.000 C 
ATOM      3  N   UNL     1      19.860  11.489  38.157  0.00  0.00    +0.000 NA
ENDROOT
BRANCH   2   4
ATOM      4  C   UNL     1      17.364  11.349  37.803  0.00  0.00    +0.000 A 
ATOM      5  C   UNL     1      16.138  10.810  38.117  0.00  0.00    +0.000 A 
ATOM      6  C   UNL     1      14.975  11.266  37.549  0.00  0.00    +0.000 A 
ATOM      7  C   UNL     1      15.006  12.297  36.631  0.00  0.00    +0.000 A 
ATOM      8  C   UNL     1      16.211  12.854  36.299  0.00  0.00    +0.000 A 
ATOM      9  C   UNL     1      17.360  12.375  36.885  0.00  0.00    +0.000 A 
BRANCH   7  10
ATOM     10  N   UNL     1      13.806  12.791  36.026  0.00  0.00    +0.000 N 
ATOM     11  O   UNL     1      13.856  13.488  34.992  0.00  0.00    +0.000 OA
ATOM     12  O   UNL     1      12.616  12.475  36.620  0.00  0.00    +0.000 OA
ENDBRANCH   7  10
ENDBRANCH   2   4
BRANCH   3  13
ATOM     13  C   UNL     1      21.084  11.049  38.722  0.00  0.00    +0.000 C 
ATOM     14  S   UNL     1      21.644  11.605  40.141  0.00  0.00    +0.000 S 
BRANCH  13  15
ATOM     15  N   UNL     1      21.822  10.086  37.989  0.00  0.00    +0.000 N 
ATOM     16  C   UNL     1      22.799   9.217  38.628  0.00  0.00    +0.000 C 
ATOM     17  C   UNL     1      24.148   9.282  37.970  0.00  0.00    +0.000 C 
ATOM     18  C   UNL     1      24.072   9.262  36.475  0.00  0.00    +0.000 C 
ATOM     19  C   UNL     1      23.008  10.177  35.927  0.00  0.00    +0.000 C 
ATOM     20  C   UNL     1      21.655   9.901  36.560  0.00  0.00    +0.000 C 
ENDBRANCH  13  15
ENDBRANCH   3  13
TORSDOF 4
ENDMDL
