MODEL 1
REMARK VINA RESULT:      -6.5      0.000      0.000
REMARK  Name = 
REMARK  3 active torsions:
REMARK  status: ('A' for Active; 'I' for Inactive)
REMARK    1  A    between atoms: C_2  and  C_5
REMARK    2  A    between atoms: C_8  and  C_9
REMARK    3  A    between atoms: N_11  and  C_12
REMARK                            x       y       z     vdW  Elec       q    Type
REMARK                         _______ _______ _______ _____ _____    ______ ____
ROOT
ATOM      1  C   UNL     1      33.515  -0.998  34.338  0.00  0.00    +0.000 A 
ATOM      2  C   UNL     1      33.677  -0.332  33.154  0.00  0.00    +0.000 A 
ATOM      3  C   UNL     1      33.808   1.066  33.196  0.00  0.00    +0.000 A 
ATOM      4  C   UNL     1      33.777   1.739  34.368  0.00  0.00    +0.000 A 
ATOM      5  C   UNL     1      33.606   1.008  35.551  0.00  0.00    +0.000 A 
ATOM      6  C   UNL     1      33.473  -0.359  35.551  0.00  0.00    +0.000 A 
ENDROOT
BRANCH   1   8
ATOM      7  C   UNL     1      33.571  -3.132  33.099  0.00  0.00    +0.000 C 
ATOM      8  C   UNL     1      33.346  -2.493  34.443  0.00  0.00    +0.000 C 
ATOM      9  C   UNL     1      34.383  -3.074  35.379  0.00  0.00    +0.000 C 
ATOM     10  C   UNL     1      31.980  -2.816  34.997  0.00  0.00    +0.000 C 
ENDBRANCH   1   8
BRANCH   4  11
ATOM     11  C   UNL     1      33.902   3.208  34.486  0.00  0.00    +0.000 C 
ATOM     12  O   UNL     1      33.300   3.915  33.640  0.00  0.00    +0.000 OA
ATOM     13  N   UNL     1      34.641   3.826  35.474  0.00  0.00    +0.000 NA
BRANCH  13  14
ATOM     14  C   UNL     1      34.831   5.205  35.670  0.00  0.00    +0.000 A 
ATOM     15  C   UNL     1      35.863   5.879  35.025  0.00  0.00    +0.000 A 
ATOM     16  C   UNL     1      36.030   7.228  35.206  0.00  0.00    +0.000 A 
ATOM     17  C   UNL     1      35.220   7.992  36.009  0.00  0.00    +0.000 A 
ATOM     18  C   UNL     1      34.193   7.322  36.654  0.00  0.00    +0.000 A 
ATOM     19  C   UNL     1      34.004   5.948  36.486  0.00  0.00    +0.000 A 
ATOM     20  O   UNL     1      32.979   5.263  37.130  0.00  0.00    +0.000 OA
ENDBRANCH  13  14
ENDBRANCH   4  11
TORSDOF 3
ENDMDL
MODEL 2
REMARK VINA RESULT:      -6.4      2.881      8.023
REMARK  Name = 
REMARK  3 active torsions:
REMARK  status: ('A' for Active; 'I' for Inactive)
REMARK    1  A    between atoms: C_2  and  C_5
REMARK    2  A    between atoms: C_8  and  C_9
REMARK    3  A    between atoms: N_11  and  C_12
REMARK                            x       y       z     vdW  Elec       q    Type
REMARK                         _______ _______ _______ _____ _____    ______ ____
ROOT
ATOM      1  C   UNL     1      33.709   3.335  34.720  0.00  0.00    +0.000 A 
ATOM      2  C   UNL     1      33.567   2.745  33.495  0.00  0.00    +0.000 A 
ATOM      3  C   UNL     1      33.671   1.346  33.420  0.00  0.00    +0.000 A 
ATOM      4  C   UNL     1      33.904   0.599  34.523  0.00  0.00    +0.000 A 
ATOM      5  C   UNL     1      34.043   1.255  35.753  0.00  0.00    +0.000 A 
ATOM      6  C   UNL     1      33.949   2.621  35.866  0.00  0.00    +0.000 A 
ENDROOT
BRANCH   1   8
ATOM      7  C   UNL     1      32.575   5.429  34.068  0.00  0.00    +0.000 C 
ATOM      8  C   UNL     1      33.637   4.824  34.947  0.00  0.00    +0.000 C 
ATOM      9  C   UNL     1      33.238   5.119  36.377  0.00  0.00    +0.000 C 
ATOM     10  C   UNL     1      34.990   5.446  34.700  0.00  0.00    +0.000 C 
ENDBRANCH   1   8
BRANCH   4  11
ATOM     11  C   UNL     1      34.031  -0.874  34.518  0.00  0.00    +0.000 C 
ATOM     12  O   UNL     1      35.045  -1.374  35.065  0.00  0.00    +0.000 OA
ATOM     13  N   UNL     1      33.095  -1.711  33.946  0.00  0.00    +0.000 NA
BRANCH  13  14
ATOM     14  C   UNL     1      33.124  -3.115  33.880  0.00  0.00    +0.000 A 
ATOM     15  C   UNL     1      33.620  -3.763  32.753  0.00  0.00    +0.000 A 
ATOM     16  C   UNL     1      33.663  -5.133  32.704  0.00  0.00    +0.000 A 
ATOM     17  C   UNL     1      33.234  -5.942  33.726  0.00  0.00    +0.000 A 
ATOM     18  C   UNL     1      32.737  -5.299  34.847  0.00  0.00    +0.000 A 
ATOM     19  C   UNL     1      32.682  -3.905  34.920  0.00  0.00    +0.000 A 
ATOM     20  O   UNL     1      32.182  -3.246  36.039  0.00  0.00    +0.000 OA
ENDBRANCH  13  14
ENDBRANCH   4  11
TORSDOF 3
ENDMDL
MODEL 3
REMARK VINA RESULT:      -6.3      1.618      2.800
REMARK  Name = 
REMARK  3 active torsions:
REMARK  status: ('A' for Active; 'I' for Inactive)
REMARK    1  A    between atoms: C_2  and  C_5
REMARK    2  A    between atoms: C_8  and  C_9
REMARK    3  A    between atoms: N_11  and  C_12
REMARK                            x       y       z     vdW  Elec       q    Type
REMARK                         _______ _______ _______ _____ _____    ______ ____
ROOT
ATOM      1  C   UNL     1      33.781   1.277  34.913  0.00  0.00    +0.000 A 
ATOM      2  C   UNL     1      34.033   1.773  36.163  0.00  0.00    +0.000 A 
ATOM      3  C   UNL     1      34.106   3.167  36.317  0.00  0.00    +0.000 A 
ATOM      4  C   UNL     1      33.933   4.000  35.266  0.00  0.00    +0.000 A 
ATOM      5  C   UNL     1      33.680   3.439  34.008  0.00  0.00    +0.000 A 
ATOM      6  C   UNL     1      33.602   2.081  33.816  0.00  0.00    +0.000 A 
ENDROOT
BRANCH   1   8
ATOM      7  C   UNL     1      34.595  -0.975  35.515  0.00  0.00    +0.000 C 
ATOM      8  C   UNL     1      33.691  -0.195  34.598  0.00  0.00    +0.000 C 
ATOM      9  C   UNL     1      32.286  -0.699  34.841  0.00  0.00    +0.000 C 
ATOM     10  C   UNL     1      34.029  -0.429  33.145  0.00  0.00    +0.000 C 
ENDBRANCH   1   8
BRANCH   4  11
ATOM     11  C   UNL     1      34.002   5.474  35.354  0.00  0.00    +0.000 C 
ATOM     12  O   UNL     1      33.223   6.139  34.626  0.00  0.00    +0.000 OA
ATOM     13  N   UNL     1      34.872   6.141  36.191  0.00  0.00    +0.000 NA
BRANCH  13  14
ATOM     14  C   UNL     1      35.023   7.531  36.344  0.00  0.00    +0.000 A 
ATOM     15  C   UNL     1      35.873   8.250  35.510  0.00  0.00    +0.000 A 
ATOM     16  C   UNL     1      36.000   9.608  35.653  0.00  0.00    +0.000 A 
ATOM     17  C   UNL     1      35.322  10.337  36.597  0.00  0.00    +0.000 A 
ATOM     18  C   UNL     1      34.478   9.623  37.431  0.00  0.00    +0.000 A 
ATOM     19  C   UNL     1      34.333   8.239  37.306  0.00  0.00    +0.000 A 
ATOM     20  O   UNL     1      33.491   7.509  38.138  0.00  0.00    +0.000 OA
ENDBRANCH  13  14
ENDBRANCH   4  11
TORSDOF 3
ENDMDL
MODEL 4
REMARK VINA RESULT:      -6.2     19.677     21.843
REMARK  Name = 
REMARK  3 active torsions:
REMARK  status: ('A' for Active; 'I' for Inactive)
REMARK    1  A    between atoms: C_2  and  C_5
REMARK    2  A    between atoms: C_8  and  C_9
REMARK    3  A    between atoms: N_11  and  C_12
REMARK                            x       y       z     vdW  Elec       q    Type
REMARK                         _______ _______ _______ _____ _____    ______ ____
ROOT
ATOM      1  C   UNL     1      26.449   5.257  17.660  0.00  0.00    +0.000 A 
ATOM      2  C   UNL     1      26.043   4.660  18.822  0.00  0.00    +0.000 A 
ATOM      3  C   UNL     1      24.943   3.788  18.766  0.00  0.00    +0.000 A 
ATOM      4  C   UNL     1      24.302   3.540  17.601  0.00  0.00    +0.000 A 
ATOM      5  C   UNL     1      24.758   4.179  16.441  0.00  0.00    +0.000 A 
ATOM      6  C   UNL     1      25.828   5.040  16.456  0.00  0.00    +0.000 A 
ENDROOT
BRANCH   1   8
ATOM      7  C   UNL     1      27.707   7.016  18.850  0.00  0.00    +0.000 C 
ATOM      8  C   UNL     1      27.601   6.226  17.573  0.00  0.00    +0.000 C 
ATOM      9  C   UNL     1      28.906   5.477  17.416  0.00  0.00    +0.000 C 
ATOM     10  C   UNL     1      27.427   7.123  16.372  0.00  0.00    +0.000 C 
ENDBRANCH   1   8
BRANCH   4  11
ATOM     11  C   UNL     1      23.137   2.640  17.470  0.00  0.00    +0.000 C 
ATOM     12  O   UNL     1      23.145   1.573  18.134  0.00  0.00    +0.000 OA
ATOM     13  N   UNL     1      22.054   2.918  16.662  0.00  0.00    +0.000 NA
BRANCH  13  14
ATOM     14  C   UNL     1      20.906   2.131  16.461  0.00  0.00    +0.000 A 
ATOM     15  C   UNL     1      20.857   1.196  15.432  0.00  0.00    +0.000 A 
ATOM     16  C   UNL     1      19.741   0.419  15.254  0.00  0.00    +0.000 A 
ATOM     17  C   UNL     1      18.626   0.500  16.049  0.00  0.00    +0.000 A 
ATOM     18  C   UNL     1      18.671   1.432  17.073  0.00  0.00    +0.000 A 
ATOM     19  C   UNL     1      19.796   2.236  17.272  0.00  0.00    +0.000 A 
ATOM     20  O   UNL     1      19.854   3.179  18.294  0.00  0.00    +0.000 OA
ENDBRANCH  13  14
ENDBRANCH   4  11
TORSDOF 3
ENDMDL
MODEL 5
REMARK VINA RESULT:      -6.2     17.664     19.175
REMARK  Name = 
REMARK  3 active torsions:
REMARK  status: ('A' for Active; 'I' for Inactive)
REMARK    1  A    between atoms: C_2  and  C_5
REMARK    2  A    between atoms: C_8  and  C_9
REMARK    3  A    between atoms: N_11  and  C_12
REMARK                            x       y       z     vdW  Elec       q    Type
REMARK                         _______ _______ _______ _____ _____    ______ ____
ROOT
ATOM      1  C   UNL     1      25.894  -8.245  22.896  0.00  0.00    +0.000 A 
ATOM      2  C   UNL     1      25.452  -7.053  23.399  0.00  0.00    +0.000 A 
ATOM      3  C   UNL     1      24.145  -6.996  23.909  0.00  0.00    +0.000 A 
ATOM      4  C   UNL     1      23.342  -8.084  23.909  0.00  0.00    +0.000 A 
ATOM      5  C   UNL     1      23.845  -9.280  23.380  0.00  0.00    +0.000 A 
ATOM      6  C   UNL     1      25.117  -9.375  22.870  0.00  0.00    +0.000 A 
ENDROOT
BRANCH   1   8
ATOM      7  C   UNL     1      27.155  -9.179  20.991  0.00  0.00    +0.000 C 
ATOM      8  C   UNL     1      27.265  -8.449  22.302  0.00  0.00    +0.000 C 
ATOM      9  C   UNL     1      27.911  -7.113  22.002  0.00  0.00    +0.000 C 
ATOM     10  C   UNL     1      28.144  -9.186  23.283  0.00  0.00    +0.000 C 
ENDBRANCH   1   8
BRANCH   4  11
ATOM     11  C   UNL     1      21.957  -8.095  24.424  0.00  0.00    +0.000 C 
ATOM     12  O   UNL     1      21.105  -8.769  23.792  0.00  0.00    +0.000 OA
ATOM     13  N   UNL     1      21.566  -7.409  25.555  0.00  0.00    +0.000 NA
BRANCH  13  14
ATOM     14  C   UNL     1      20.280  -7.347  26.121  0.00  0.00    +0.000 A 
ATOM     15  C   UNL     1      19.743  -8.444  26.788  0.00  0.00    +0.000 A 
ATOM     16  C   UNL     1      18.497  -8.370  27.354  0.00  0.00    +0.000 A 
ATOM     17  C   UNL     1      17.710  -7.246  27.310  0.00  0.00    +0.000 A 
ATOM     18  C   UNL     1      18.241  -6.153  26.645  0.00  0.00    +0.000 A 
ATOM     19  C   UNL     1      19.508  -6.206  26.058  0.00  0.00    +0.000 A 
ATOM     20  O   UNL     1      20.053  -5.118  25.385  0.00  0.00    +0.000 OA
ENDBRANCH  13  14
ENDBRANCH   4  11
TORSDOF 3
ENDMDL
MODEL 6
REMARK VINA RESULT:      -6.0     20.271     22.520
REMARK  Name = 
REMARK  3 active torsions:
REMARK  status: ('A' for Active; 'I' for Inactive)
REMARK    1  A    between atoms: C_2  and  C_5
REMARK    2  A    between atoms: C_8  and  C_9
REMARK    3  A    between atoms: N_11  and  C_12
REMARK                            x       y       z     vdW  Elec       q    Type
REMARK                         _______ _______ _______ _____ _____    ______ ____
ROOT
ATOM      1  C   UNL     1      25.512   4.544  17.721  0.00  0.00    +0.000 A 
ATOM      2  C   UNL     1      25.132   3.835  18.827  0.00  0.00    +0.000 A 
ATOM      3  C   UNL     1      24.054   2.944  18.701  0.00  0.00    +0.000 A 
ATOM      4  C   UNL     1      23.407   2.785  17.524  0.00  0.00    +0.000 A 
ATOM      5  C   UNL     1      23.836   3.538  16.423  0.00  0.00    +0.000 A 
ATOM      6  C   UNL     1      24.885   4.421  16.507  0.00  0.00    +0.000 A 
ENDROOT
BRANCH   1   8
ATOM      7  C   UNL     1      27.651   5.175  16.663  0.00  0.00    +0.000 C 
ATOM      8  C   UNL     1      26.639   5.546  17.714  0.00  0.00    +0.000 C 
ATOM      9  C   UNL     1      26.118   6.919  17.349  0.00  0.00    +0.000 C 
ATOM     10  C   UNL     1      27.260   5.629  19.087  0.00  0.00    +0.000 C 
ENDBRANCH   1   8
BRANCH   4  11
ATOM     11  C   UNL     1      22.263   1.871  17.321  0.00  0.00    +0.000 C 
ATOM     12  O   UNL     1      22.121   0.925  18.135  0.00  0.00    +0.000 OA
ATOM     13  N   UNL     1      21.357   2.013  16.290  0.00  0.00    +0.000 NA
BRANCH  13  14
ATOM     14  C   UNL     1      20.246   1.199  16.004  0.00  0.00    +0.000 A 
ATOM     15  C   UNL     1      19.018   1.433  16.614  0.00  0.00    +0.000 A 
ATOM     16  C   UNL     1      17.934   0.648  16.316  0.00  0.00    +0.000 A 
ATOM     17  C   UNL     1      17.976  -0.394  15.423  0.00  0.00    +0.000 A 
ATOM     18  C   UNL     1      19.198  -0.631  14.816  0.00  0.00    +0.000 A 
ATOM     19  C   UNL     1      20.316   0.155  15.106  0.00  0.00    +0.000 A 
ATOM     20  O   UNL     1      21.551  -0.073  14.507  0.00  0.00    +0.000 OA
ENDBRANCH  13  14
ENDBRANCH   4  11
TORSDOF 3
ENDMDL
MODEL 7
REMARK VINA RESULT:      -5.9      5.522      9.956
REMARK  Name = 
REMARK  3 active torsions:
REMARK  status: ('A' for Active; 'I' for Inactive)
REMARK    1  A    between atoms: C_2  and  C_5
REMARK    2  A    between atoms: C_8  and  C_9
REMARK    3  A    between atoms: N_11  and  C_12
REMARK                            x       y       z     vdW  Elec       q    Type
REMARK                         _______ _______ _______ _____ _____    ______ ____
ROOT
ATOM      1  C   UNL     1      34.224  -2.019  35.637  0.00  0.00    +0.000 A 
ATOM      2  C   UNL     1      34.569  -3.319  35.887  0.00  0.00    +0.000 A 
ATOM      3  C   UNL     1      34.373  -4.262  34.865  0.00  0.00    +0.000 A 
ATOM      4  C   UNL     1      33.860  -3.902  33.666  0.00  0.00    +0.000 A 
ATOM      5  C   UNL     1      33.522  -2.557  33.464  0.00  0.00    +0.000 A 
ATOM      6  C   UNL     1      33.697  -1.606  34.440  0.00  0.00    +0.000 A 
ENDROOT
BRANCH   1   8
ATOM      7  C   UNL     1      35.820  -0.641  36.921  0.00  0.00    +0.000 C 
ATOM      8  C   UNL     1      34.364  -0.906  36.645  0.00  0.00    +0.000 C 
ATOM      9  C   UNL     1      33.787   0.379  36.091  0.00  0.00    +0.000 C 
ATOM     10  C   UNL     1      33.609  -1.256  37.904  0.00  0.00    +0.000 C 
ENDBRANCH   1   8
BRANCH   4  11
ATOM     11  C   UNL     1      33.621  -4.840  32.549  0.00  0.00    +0.000 C 
ATOM     12  O   UNL     1      32.543  -5.486  32.550  0.00  0.00    +0.000 OA
ATOM     13  N   UNL     1      34.518  -5.032  31.519  0.00  0.00    +0.000 NA
BRANCH  13  14
ATOM     14  C   UNL     1      34.393  -5.901  30.420  0.00  0.00    +0.000 A 
ATOM     15  C   UNL     1      33.687  -5.514  29.285  0.00  0.00    +0.000 A 
ATOM     16  C   UNL     1      33.586  -6.358  28.210  0.00  0.00    +0.000 A 
ATOM     17  C   UNL     1      34.153  -7.608  28.171  0.00  0.00    +0.000 A 
ATOM     18  C   UNL     1      34.854  -7.996  29.301  0.00  0.00    +0.000 A 
ATOM     19  C   UNL     1      34.969  -7.153  30.409  0.00  0.00    +0.000 A 
ATOM     20  O   UNL     1      35.667  -7.532  31.551  0.00  0.00    +0.000 OA
ENDBRANCH  13  14
ENDBRANCH   4  11
TORSDOF 3
ENDMDL
MODEL 8
REMARK VINA RESULT:      -5.9     25.313     28.788
REMARK  Name = 
REMARK  3 active torsions:
REMARK  status: ('A' for Active; 'I' for Inactive)
REMARK    1  A    between atoms: C_2  and  C_5
REMARK    2  A    between atoms: C_8  and  C_9
REMARK    3  A    between atoms: N_11  and  C_12
REMARK                            x       y       z     vdW  Elec       q    Type
REMARK                         _______ _______ _______ _____ _____    ______ ____
ROOT
ATOM      1  C   UNL     1      29.338  24.815  23.491  0.00  0.00    +0.000 A 
ATOM      2  C   UNL     1      29.376  26.176  23.622  0.00  0.00    +0.000 A 
ATOM      3  C   UNL     1      29.392  26.951  22.451  0.00  0.00    +0.000 A 
ATOM      4  C   UNL     1      29.370  26.376  21.228  0.00  0.00    +0.000 A 
ATOM      5  C   UNL     1      29.334  24.977  21.151  0.00  0.00    +0.000 A 
ATOM      6  C   UNL     1      29.319  24.185  22.273  0.00  0.00    +0.000 A 
ENDROOT
BRANCH   1   8
ATOM      7  C   UNL     1      30.375  22.792  24.455  0.00  0.00    +0.000 C 
ATOM      8  C   UNL     1      29.334  23.860  24.659  0.00  0.00    +0.000 C 
ATOM      9  C   UNL     1      29.701  24.587  25.934  0.00  0.00    +0.000 C 
ATOM     10  C   UNL     1      27.955  23.272  24.834  0.00  0.00    +0.000 C 
ENDBRANCH   1   8
BRANCH   4  11
ATOM     11  C   UNL     1      29.391  27.128  19.955  0.00  0.00    +0.000 C 
ATOM     12  O   UNL     1      28.643  28.133  19.859  0.00  0.00    +0.000 OA
ATOM     13  N   UNL     1      30.188  26.779  18.884  0.00  0.00    +0.000 NA
BRANCH  13  14
ATOM     14  C   UNL     1      30.276  27.418  17.635  0.00  0.00    +0.000 A 
ATOM     15  C   UNL     1      29.476  27.014  16.571  0.00  0.00    +0.000 A 
ATOM     16  C   UNL     1      29.554  27.654  15.361  0.00  0.00    +0.000 A 
ATOM     17  C   UNL     1      30.399  28.707  15.114  0.00  0.00    +0.000 A 
ATOM     18  C   UNL     1      31.200  29.110  16.171  0.00  0.00    +0.000 A 
ATOM     19  C   UNL     1      31.138  28.471  17.412  0.00  0.00    +0.000 A 
ATOM     20  O   UNL     1      31.938  28.863  18.481  0.00  0.00    +0.000 OA
ENDBRANCH  13  14
ENDBRANCH   4  11
TORSDOF 3
ENDMDL
MODEL 9
REMARK VINA RESULT:      -5.8     14.701     17.242
REMARK  Name = 
REMARK  3 active torsions:
REMARK  status: ('A' for Active; 'I' for Inactive)
REMARK    1  A    between atoms: C_2  and  C_5
REMARK    2  A    between atoms: C_8  and  C_9
REMARK    3  A    between atoms: N_11  and  C_12
REMARK                            x       y       z     vdW  Elec       q    Type
REMARK                         _______ _______ _______ _____ _____    ______ ____
ROOT
ATOM      1  C   UNL     1      23.187  10.928  37.400  0.00  0.00    +0.000 A 
ATOM      2  C   UNL     1      22.470  10.204  36.489  0.00  0.00    +0.000 A 
ATOM      3  C   UNL     1      21.202   9.735  36.870  0.00  0.00    +0.000 A 
ATOM      4  C   UNL     1      20.699   9.990  38.100  0.00  0.00    +0.000 A 
ATOM      5  C   UNL     1      21.477  10.736  38.995  0.00  0.00    +0.000 A 
ATOM      6  C   UNL     1      22.722  11.210  38.660  0.00  0.00    +0.000 A 
ENDROOT
BRANCH   1   8
ATOM      7  C   UNL     1      24.607  12.947  37.470  0.00  0.00    +0.000 C 
ATOM      8  C   UNL     1      24.566  11.480  37.135  0.00  0.00    +0.000 C 
ATOM      9  C   UNL     1      25.583  10.802  38.027  0.00  0.00    +0.000 C 
ATOM     10  C   UNL     1      24.954  11.221  35.699  0.00  0.00    +0.000 C 
ENDBRANCH   1   8
BRANCH   4  11
ATOM     11  C   UNL     1      19.377   9.524  38.570  0.00  0.00    +0.000 C 
ATOM     12  O   UNL     1      18.448   9.460  37.727  0.00  0.00    +0.000 OA
ATOM     13  N   UNL     1      19.125   9.160  39.876  0.00  0.00    +0.000 NA
BRANCH  13  14
ATOM     14  C   UNL     1      17.910   8.714  40.426  0.00  0.00    +0.000 A 
ATOM     15  C   UNL     1      16.893   9.614  40.728  0.00  0.00    +0.000 A 
ATOM     16  C   UNL     1      15.704   9.169  41.245  0.00  0.00    +0.000 A 
ATOM     17  C   UNL     1      15.434   7.847  41.497  0.00  0.00    +0.000 A 
ATOM     18  C   UNL     1      16.446   6.949  41.199  0.00  0.00    +0.000 A 
ATOM     19  C   UNL     1      17.666   7.379  40.673  0.00  0.00    +0.000 A 
ATOM     20  O   UNL     1      18.692   6.489  40.372  0.00  0.00    +0.000 OA
ENDBRANCH  13  14
ENDBRANCH   4  11
TORSDOF 3
ENDMDL
MODEL 10
REMARK VINA RESULT:      -5.8     20.123     23.154
REMARK  Name = 
REMARK  3 active torsions:
REMARK  status: ('A' for Active; 'I' for Inactive)
REMARK    1  A    between atoms: C_2  and  C_5
REMARK    2  A    between atoms: C_8  and  C_9
REMARK    3  A    between atoms: N_11  and  C_12
REMARK                            x       y       z     vdW  Elec       q    Type
REMARK                         _______ _______ _______ _____ _____    ______ ____
ROOT
ATOM      1  C   UNL     1      30.969  22.273  30.238  0.00  0.00    +0.000 A 
ATOM      2  C   UNL     1      29.691  22.729  30.067  0.00  0.00    +0.000 A 
ATOM      3  C   UNL     1      29.218  22.891  28.755  0.00  0.00    +0.000 A 
ATOM      4  C   UNL     1      29.997  22.604  27.687  0.00  0.00    +0.000 A 
ATOM      5  C   UNL     1      31.299  22.142  27.919  0.00  0.00    +0.000 A 
ATOM      6  C   UNL     1      31.798  21.973  29.187  0.00  0.00    +0.000 A 
ENDROOT
BRANCH   1   8
ATOM      7  C   UNL     1      32.762  21.102  31.466  0.00  0.00    +0.000 C 
ATOM      8  C   UNL     1      31.613  22.067  31.586  0.00  0.00    +0.000 C 
ATOM      9  C   UNL     1      32.191  23.370  32.096  0.00  0.00    +0.000 C 
ATOM     10  C   UNL     1      30.582  21.591  32.579  0.00  0.00    +0.000 C 
ENDBRANCH   1   8
BRANCH   4  11
ATOM     11  C   UNL     1      29.568  22.756  26.281  0.00  0.00    +0.000 C 
ATOM     12  O   UNL     1      30.150  22.056  25.414  0.00  0.00    +0.000 OA
ATOM     13  N   UNL     1      28.567  23.619  25.885  0.00  0.00    +0.000 NA
BRANCH  13  14
ATOM     14  C   UNL     1      28.091  23.844  24.581  0.00  0.00    +0.000 A 
ATOM     15  C   UNL     1      28.857  24.544  23.655  0.00  0.00    +0.000 A 
ATOM     16  C   UNL     1      28.394  24.742  22.379  0.00  0.00    +0.000 A 
ATOM     17  C   UNL     1      27.181  24.281  21.933  0.00  0.00    +0.000 A 
ATOM     18  C   UNL     1      26.415  23.586  22.854  0.00  0.00    +0.000 A 
ATOM     19  C   UNL     1      26.865  23.373  24.159  0.00  0.00    +0.000 A 
ATOM     20  O   UNL     1      26.105  22.679  25.096  0.00  0.00    +0.000 OA
ENDBRANCH  13  14
ENDBRANCH   4  11
TORSDOF 3
ENDMDL
