MODEL 1
REMARK VINA RESULT:      -5.8      0.000      0.000
REMARK  Name = 
REMARK  4 active torsions:
REMARK  status: ('A' for Active; 'I' for Inactive)
REMARK    1  A    between atoms: C_2  and  C_14
REMARK    2  A    between atoms: N_3  and  C_4
REMARK    3  A    between atoms: C_4  and  N_6
REMARK    4  A    between atoms: N_6  and  C_7
REMARK                            x       y       z     vdW  Elec       q    Type
REMARK                         _______ _______ _______ _____ _____    ______ ____
ROOT
ATOM      1  C   UNL     1      19.475   9.466  38.851  0.00  0.00    +0.000 C 
ATOM      2  S   UNL     1      19.268   9.793  40.424  0.00  0.00    +0.000 S 
ENDROOT
BRANCH   1   5
ATOM      3  O   UNL     1      20.468  11.910  37.966  0.00  0.00    +0.000 OA
ATOM      4  C   UNL     1      21.207  10.884  37.836  0.00  0.00    +0.000 C 
ATOM      5  N   UNL     1      20.753   9.613  38.269  0.00  0.00    +0.000 NA
BRANCH   4   6
ATOM      6  C   UNL     1      22.535  11.104  37.221  0.00  0.00    +0.000 C 
ATOM      7  C   UNL     1      22.824  10.235  36.054  0.00  0.00    +0.000 C 
ATOM      8  C   UNL     1      24.170   9.591  36.194  0.00  0.00    +0.000 C 
ATOM      9  C   UNL     1      24.205   8.920  37.565  0.00  0.00    +0.000 C 
ATOM     10  C   UNL     1      24.347  10.021  38.581  0.00  0.00    +0.000 C 
ATOM     11  C   UNL     1      23.632  11.280  38.195  0.00  0.00    +0.000 C 
ENDBRANCH   4   6
ENDBRANCH   1   5
BRANCH   1  12
ATOM     12  N   UNL     1      18.395   9.040  38.069  0.00  0.00    +0.000 NA
BRANCH  12  13
ATOM     13  C   UNL     1      17.889   9.732  36.945  0.00  0.00    +0.000 A 
ATOM     14  C   UNL     1      17.040  10.811  37.017  0.00  0.00    +0.000 A 
ATOM     15  C   UNL     1      16.598  11.422  35.858  0.00  0.00    +0.000 A 
ATOM     16  C   UNL     1      16.971  10.999  34.600  0.00  0.00    +0.000 A 
ATOM     17  O   UNL     1      16.529  11.611  33.432  0.00  0.00    +0.000 OA
ATOM     18  C   UNL     1      17.829   9.907  34.537  0.00  0.00    +0.000 A 
ATOM     19  C   UNL     1      18.270   9.298  35.692  0.00  0.00    +0.000 A 
ENDBRANCH  12  13
ENDBRANCH   1  12
TORSDOF 4
ENDMDL
MODEL 2
REMARK VINA RESULT:      -5.8     19.538     20.588
REMARK  Name = 
REMARK  4 active torsions:
REMARK  status: ('A' for Active; 'I' for Inactive)
REMARK    1  A    between atoms: C_2  and  C_14
REMARK    2  A    between atoms: N_3  and  C_4
REMARK    3  A    between atoms: C_4  and  N_6
REMARK    4  A    between atoms: N_6  and  C_7
REMARK                            x       y       z     vdW  Elec       q    Type
REMARK                         _______ _______ _______ _____ _____    ______ ____
ROOT
ATOM      1  C   UNL     1      26.895  25.030  26.225  0.00  0.00    +0.000 C 
ATOM      2  S   UNL     1      25.767  25.083  27.386  0.00  0.00    +0.000 S 
ENDROOT
BRANCH   1   5
ATOM      3  O   UNL     1      27.307  22.299  25.882  0.00  0.00    +0.000 OA
ATOM      4  C   UNL     1      28.284  23.003  26.287  0.00  0.00    +0.000 C 
ATOM      5  N   UNL     1      28.132  24.399  26.480  0.00  0.00    +0.000 NA
BRANCH   4   6
ATOM      6  C   UNL     1      29.554  22.284  26.536  0.00  0.00    +0.000 C 
ATOM      7  C   UNL     1      30.181  22.576  27.848  0.00  0.00    +0.000 C 
ATOM      8  C   UNL     1      31.631  22.911  27.680  0.00  0.00    +0.000 C 
ATOM      9  C   UNL     1      31.718  24.013  26.627  0.00  0.00    +0.000 C 
ATOM     10  C   UNL     1      31.455  23.361  25.297  0.00  0.00    +0.000 C 
ATOM     11  C   UNL     1      30.463  22.240  25.371  0.00  0.00    +0.000 C 
ENDBRANCH   4   6
ENDBRANCH   1   5
BRANCH   1  12
ATOM     12  N   UNL     1      26.649  25.606  24.972  0.00  0.00    +0.000 NA
BRANCH  12  13
ATOM     13  C   UNL     1      27.472  25.448  23.834  0.00  0.00    +0.000 A 
ATOM     14  C   UNL     1      28.496  26.300  23.494  0.00  0.00    +0.000 A 
ATOM     15  C   UNL     1      29.246  26.061  22.358  0.00  0.00    +0.000 A 
ATOM     16  C   UNL     1      29.019  24.986  21.525  0.00  0.00    +0.000 A 
ATOM     17  O   UNL     1      29.773  24.742  20.380  0.00  0.00    +0.000 OA
ATOM     18  C   UNL     1      27.982  24.131  21.875  0.00  0.00    +0.000 A 
ATOM     19  C   UNL     1      27.233  24.369  23.009  0.00  0.00    +0.000 A 
ENDBRANCH  12  13
ENDBRANCH   1  12
TORSDOF 4
ENDMDL
MODEL 3
REMARK VINA RESULT:      -5.8     19.592     21.121
REMARK  Name = 
REMARK  4 active torsions:
REMARK  status: ('A' for Active; 'I' for Inactive)
REMARK    1  A    between atoms: C_2  and  C_14
REMARK    2  A    between atoms: N_3  and  C_4
REMARK    3  A    between atoms: C_4  and  N_6
REMARK    4  A    between atoms: N_6  and  C_7
REMARK                            x       y       z     vdW  Elec       q    Type
REMARK                         _______ _______ _______ _____ _____    ______ ____
ROOT
ATOM      1  C   UNL     1      29.069  24.898  22.535  0.00  0.00    +0.000 C 
ATOM      2  S   UNL     1      29.070  25.748  21.156  0.00  0.00    +0.000 S 
ENDROOT
BRANCH   1   5
ATOM      3  O   UNL     1      26.877  23.184  22.508  0.00  0.00    +0.000 OA
ATOM      4  C   UNL     1      26.894  24.117  23.371  0.00  0.00    +0.000 C 
ATOM      5  N   UNL     1      27.985  25.020  23.431  0.00  0.00    +0.000 NA
BRANCH   4   6
ATOM      6  C   UNL     1      25.730  24.190  24.282  0.00  0.00    +0.000 C 
ATOM      7  C   UNL     1      25.393  25.560  24.742  0.00  0.00    +0.000 C 
ATOM      8  C   UNL     1      25.219  25.592  26.229  0.00  0.00    +0.000 C 
ATOM      9  C   UNL     1      26.468  24.960  26.839  0.00  0.00    +0.000 C 
ATOM     10  C   UNL     1      26.360  23.477  26.606  0.00  0.00    +0.000 C 
ATOM     11  C   UNL     1      25.696  23.128  25.309  0.00  0.00    +0.000 C 
ENDBRANCH   4   6
ENDBRANCH   1   5
BRANCH   1  12
ATOM     12  N   UNL     1      30.138  24.046  22.842  0.00  0.00    +0.000 NA
BRANCH  12  13
ATOM     13  C   UNL     1      30.480  23.615  24.143  0.00  0.00    +0.000 A 
ATOM     14  C   UNL     1      29.862  22.579  24.803  0.00  0.00    +0.000 A 
ATOM     15  C   UNL     1      30.268  22.231  26.078  0.00  0.00    +0.000 A 
ATOM     16  C   UNL     1      31.285  22.882  26.743  0.00  0.00    +0.000 A 
ATOM     17  O   UNL     1      31.698  22.534  28.026  0.00  0.00    +0.000 OA
ATOM     18  C   UNL     1      31.903  23.928  26.069  0.00  0.00    +0.000 A 
ATOM     19  C   UNL     1      31.499  24.275  24.797  0.00  0.00    +0.000 A 
ENDBRANCH  12  13
ENDBRANCH   1  12
TORSDOF 4
ENDMDL
MODEL 4
REMARK VINA RESULT:      -5.7      1.471      2.215
REMARK  Name = 
REMARK  4 active torsions:
REMARK  status: ('A' for Active; 'I' for Inactive)
REMARK    1  A    between atoms: C_2  and  C_14
REMARK    2  A    between atoms: N_3  and  C_4
REMARK    3  A    between atoms: C_4  and  N_6
REMARK    4  A    between atoms: N_6  and  C_7
REMARK                            x       y       z     vdW  Elec       q    Type
REMARK                         _______ _______ _______ _____ _____    ______ ____
ROOT
ATOM      1  C   UNL     1      19.957  10.629  37.722  0.00  0.00    +0.000 C 
ATOM      2  S   UNL     1      19.926  11.821  38.820  0.00  0.00    +0.000 S 
ENDROOT
BRANCH   1   5
ATOM      3  O   UNL     1      21.941   9.124  38.964  0.00  0.00    +0.000 OA
ATOM      4  C   UNL     1      22.149   9.520  37.774  0.00  0.00    +0.000 C 
ATOM      5  N   UNL     1      21.174  10.290  37.093  0.00  0.00    +0.000 NA
BRANCH   4   6
ATOM      6  C   UNL     1      23.443   9.130  37.170  0.00  0.00    +0.000 C 
ATOM      7  C   UNL     1      24.534   8.897  38.147  0.00  0.00    +0.000 C 
ATOM      8  C   UNL     1      25.774   9.636  37.744  0.00  0.00    +0.000 C 
ATOM      9  C   UNL     1      25.372  11.091  37.510  0.00  0.00    +0.000 C 
ATOM     10  C   UNL     1      24.623  11.128  36.206  0.00  0.00    +0.000 C 
ATOM     11  C   UNL     1      23.801   9.899  35.959  0.00  0.00    +0.000 C 
ENDBRANCH   4   6
ENDBRANCH   1   5
BRANCH   1  12
ATOM     12  N   UNL     1      18.784   9.938  37.396  0.00  0.00    +0.000 NA
BRANCH  12  13
ATOM     13  C   UNL     1      17.940  10.248  36.305  0.00  0.00    +0.000 A 
ATOM     14  C   UNL     1      18.076   9.717  35.044  0.00  0.00    +0.000 A 
ATOM     15  C   UNL     1      17.199  10.084  34.041  0.00  0.00    +0.000 A 
ATOM     16  C   UNL     1      16.167  10.977  34.239  0.00  0.00    +0.000 A 
ATOM     17  O   UNL     1      15.282  11.348  33.232  0.00  0.00    +0.000 OA
ATOM     18  C   UNL     1      16.038  11.509  35.516  0.00  0.00    +0.000 A 
ATOM     19  C   UNL     1      16.912  11.144  36.517  0.00  0.00    +0.000 A 
ENDBRANCH  12  13
ENDBRANCH   1  12
TORSDOF 4
ENDMDL
MODEL 5
REMARK VINA RESULT:      -5.6     19.050     19.923
REMARK  Name = 
REMARK  4 active torsions:
REMARK  status: ('A' for Active; 'I' for Inactive)
REMARK    1  A    between atoms: C_2  and  C_14
REMARK    2  A    between atoms: N_3  and  C_4
REMARK    3  A    between atoms: C_4  and  N_6
REMARK    4  A    between atoms: N_6  and  C_7
REMARK                            x       y       z     vdW  Elec       q    Type
REMARK                         _______ _______ _______ _____ _____    ______ ____
ROOT
ATOM      1  C   UNL     1      27.214  23.755  22.936  0.00  0.00    +0.000 C 
ATOM      2  S   UNL     1      27.473  24.804  21.729  0.00  0.00    +0.000 S 
ENDROOT
BRANCH   1   5
ATOM      3  O   UNL     1      28.987  24.568  24.920  0.00  0.00    +0.000 OA
ATOM      4  C   UNL     1      29.147  23.413  24.414  0.00  0.00    +0.000 C 
ATOM      5  N   UNL     1      28.274  22.947  23.400  0.00  0.00    +0.000 NA
BRANCH   4   6
ATOM      6  C   UNL     1      30.276  22.615  24.944  0.00  0.00    +0.000 C 
ATOM      7  C   UNL     1      30.115  22.180  26.353  0.00  0.00    +0.000 C 
ATOM      8  C   UNL     1      31.345  22.493  27.148  0.00  0.00    +0.000 C 
ATOM      9  C   UNL     1      31.658  23.971  26.926  0.00  0.00    +0.000 C 
ATOM     10  C   UNL     1      32.221  24.089  25.535  0.00  0.00    +0.000 C 
ATOM     11  C   UNL     1      31.610  23.126  24.564  0.00  0.00    +0.000 C 
ENDBRANCH   4   6
ENDBRANCH   1   5
BRANCH   1  12
ATOM     12  N   UNL     1      25.945  23.646  23.519  0.00  0.00    +0.000 NA
BRANCH  12  13
ATOM     13  C   UNL     1      25.563  24.242  24.741  0.00  0.00    +0.000 A 
ATOM     14  C   UNL     1      24.964  25.475  24.849  0.00  0.00    +0.000 A 
ATOM     15  C   UNL     1      24.627  25.975  26.092  0.00  0.00    +0.000 A 
ATOM     16  C   UNL     1      24.865  25.288  27.264  0.00  0.00    +0.000 A 
ATOM     17  O   UNL     1      24.527  25.788  28.518  0.00  0.00    +0.000 OA
ATOM     18  C   UNL     1      25.471  24.044  27.146  0.00  0.00    +0.000 A 
ATOM     19  C   UNL     1      25.807  23.544  25.906  0.00  0.00    +0.000 A 
ENDBRANCH  12  13
ENDBRANCH   1  12
TORSDOF 4
ENDMDL
MODEL 6
REMARK VINA RESULT:      -5.4      3.461      5.309
REMARK  Name = 
REMARK  4 active torsions:
REMARK  status: ('A' for Active; 'I' for Inactive)
REMARK    1  A    between atoms: C_2  and  C_14
REMARK    2  A    between atoms: N_3  and  C_4
REMARK    3  A    between atoms: C_4  and  N_6
REMARK    4  A    between atoms: N_6  and  C_7
REMARK                            x       y       z     vdW  Elec       q    Type
REMARK                         _______ _______ _______ _____ _____    ______ ____
ROOT
ATOM      1  C   UNL     1      18.793   9.350  39.091  0.00  0.00    +0.000 C 
ATOM      2  S   UNL     1      20.156  10.103  39.535  0.00  0.00    +0.000 S 
ENDROOT
BRANCH   1   5
ATOM      3  O   UNL     1      17.731   8.270  41.425  0.00  0.00    +0.000 OA
ATOM      4  C   UNL     1      18.110   7.467  40.516  0.00  0.00    +0.000 C 
ATOM      5  N   UNL     1      18.659   7.961  39.306  0.00  0.00    +0.000 NA
BRANCH   4   6
ATOM      6  C   UNL     1      17.943   6.025  40.802  0.00  0.00    +0.000 C 
ATOM      7  C   UNL     1      17.182   5.726  42.039  0.00  0.00    +0.000 C 
ATOM      8  C   UNL     1      17.913   4.727  42.883  0.00  0.00    +0.000 C 
ATOM      9  C   UNL     1      19.334   5.254  43.071  0.00  0.00    +0.000 C 
ATOM     10  C   UNL     1      20.048   5.048  41.763  0.00  0.00    +0.000 C 
ATOM     11  C   UNL     1      19.158   5.216  40.569  0.00  0.00    +0.000 C 
ENDBRANCH   4   6
ENDBRANCH   1   5
BRANCH   1  12
ATOM     12  N   UNL     1      17.750  10.068  38.494  0.00  0.00    +0.000 NA
BRANCH  12  13
ATOM     13  C   UNL     1      17.512  10.143  37.103  0.00  0.00    +0.000 A 
ATOM     14  C   UNL     1      18.199   9.416  36.159  0.00  0.00    +0.000 A 
ATOM     15  C   UNL     1      17.894   9.559  34.819  0.00  0.00    +0.000 A 
ATOM     16  C   UNL     1      16.912  10.413  34.362  0.00  0.00    +0.000 A 
ATOM     17  O   UNL     1      16.601  10.559  33.013  0.00  0.00    +0.000 OA
ATOM     18  C   UNL     1      16.224  11.144  35.322  0.00  0.00    +0.000 A 
ATOM     19  C   UNL     1      16.528  11.002  36.660  0.00  0.00    +0.000 A 
ENDBRANCH  12  13
ENDBRANCH   1  12
TORSDOF 4
ENDMDL
MODEL 7
REMARK VINA RESULT:      -5.4     18.779     19.718
REMARK  Name = 
REMARK  4 active torsions:
REMARK  status: ('A' for Active; 'I' for Inactive)
REMARK    1  A    between atoms: C_2  and  C_14
REMARK    2  A    between atoms: N_3  and  C_4
REMARK    3  A    between atoms: C_4  and  N_6
REMARK    4  A    between atoms: N_6  and  C_7
REMARK                            x       y       z     vdW  Elec       q    Type
REMARK                         _______ _______ _______ _____ _____    ______ ____
ROOT
ATOM      1  C   UNL     1      28.102  25.710  27.911  0.00  0.00    +0.000 C 
ATOM      2  S   UNL     1      28.290  26.426  29.352  0.00  0.00    +0.000 S 
ENDROOT
BRANCH   1   5
ATOM      3  O   UNL     1      28.897  23.062  28.220  0.00  0.00    +0.000 OA
ATOM      4  C   UNL     1      29.582  23.803  27.447  0.00  0.00    +0.000 C 
ATOM      5  N   UNL     1      29.223  25.160  27.252  0.00  0.00    +0.000 NA
BRANCH   4   6
ATOM      6  C   UNL     1      30.743  23.168  26.785  0.00  0.00    +0.000 C 
ATOM      7  C   UNL     1      31.813  24.112  26.379  0.00  0.00    +0.000 C 
ATOM      8  C   UNL     1      32.216  23.877  24.956  0.00  0.00    +0.000 C 
ATOM      9  C   UNL     1      30.938  23.899  24.119  0.00  0.00    +0.000 C 
ATOM     10  C   UNL     1      30.219  22.606  24.394  0.00  0.00    +0.000 C 
ATOM     11  C   UNL     1      30.384  22.124  25.803  0.00  0.00    +0.000 C 
ENDBRANCH   4   6
ENDBRANCH   1   5
BRANCH   1  12
ATOM     12  N   UNL     1      26.836  25.636  27.317  0.00  0.00    +0.000 NA
BRANCH  12  13
ATOM     13  C   UNL     1      26.531  24.893  26.155  0.00  0.00    +0.000 A 
ATOM     14  C   UNL     1      26.024  23.615  26.162  0.00  0.00    +0.000 A 
ATOM     15  C   UNL     1      25.758  22.969  24.970  0.00  0.00    +0.000 A 
ATOM     16  C   UNL     1      25.977  23.550  23.740  0.00  0.00    +0.000 A 
ATOM     17  O   UNL     1      25.710  22.903  22.536  0.00  0.00    +0.000 OA
ATOM     18  C   UNL     1      26.490  24.841  23.741  0.00  0.00    +0.000 A 
ATOM     19  C   UNL     1      26.756  25.487  24.930  0.00  0.00    +0.000 A 
ENDBRANCH  12  13
ENDBRANCH   1  12
TORSDOF 4
ENDMDL
MODEL 8
REMARK VINA RESULT:      -5.3     19.140     19.994
REMARK  Name = 
REMARK  4 active torsions:
REMARK  status: ('A' for Active; 'I' for Inactive)
REMARK    1  A    between atoms: C_2  and  C_14
REMARK    2  A    between atoms: N_3  and  C_4
REMARK    3  A    between atoms: C_4  and  N_6
REMARK    4  A    between atoms: N_6  and  C_7
REMARK                            x       y       z     vdW  Elec       q    Type
REMARK                         _______ _______ _______ _____ _____    ______ ____
ROOT
ATOM      1  C   UNL     1      27.369  25.150  24.129  0.00  0.00    +0.000 C 
ATOM      2  S   UNL     1      27.746  26.387  23.153  0.00  0.00    +0.000 S 
ENDROOT
BRANCH   1   5
ATOM      3  O   UNL     1      28.557  22.851  23.106  0.00  0.00    +0.000 OA
ATOM      4  C   UNL     1      28.965  23.284  24.229  0.00  0.00    +0.000 C 
ATOM      5  N   UNL     1      28.396  24.450  24.798  0.00  0.00    +0.000 NA
BRANCH   4   6
ATOM      6  C   UNL     1      30.044  22.507  24.880  0.00  0.00    +0.000 C 
ATOM      7  C   UNL     1      29.809  22.208  26.313  0.00  0.00    +0.000 C 
ATOM      8  C   UNL     1      31.012  22.559  27.133  0.00  0.00    +0.000 C 
ATOM      9  C   UNL     1      31.380  24.002  26.793  0.00  0.00    +0.000 C 
ATOM     10  C   UNL     1      32.006  23.977  25.425  0.00  0.00    +0.000 C 
ATOM     11  C   UNL     1      31.409  22.945  24.517  0.00  0.00    +0.000 C 
ENDBRANCH   4   6
ENDBRANCH   1   5
BRANCH   1  12
ATOM     12  N   UNL     1      26.032  24.773  24.309  0.00  0.00    +0.000 NA
BRANCH  12  13
ATOM     13  C   UNL     1      25.212  25.190  25.382  0.00  0.00    +0.000 A 
ATOM     14  C   UNL     1      25.317  24.715  26.668  0.00  0.00    +0.000 A 
ATOM     15  C   UNL     1      24.467  25.186  27.650  0.00  0.00    +0.000 A 
ATOM     16  C   UNL     1      23.493  26.131  27.407  0.00  0.00    +0.000 A 
ATOM     17  O   UNL     1      22.635  26.609  28.394  0.00  0.00    +0.000 OA
ATOM     18  C   UNL     1      23.394  26.606  26.105  0.00  0.00    +0.000 A 
ATOM     19  C   UNL     1      24.242  26.137  25.124  0.00  0.00    +0.000 A 
ENDBRANCH  12  13
ENDBRANCH   1  12
TORSDOF 4
ENDMDL
MODEL 9
REMARK VINA RESULT:      -5.2      2.584      5.887
REMARK  Name = 
REMARK  4 active torsions:
REMARK  status: ('A' for Active; 'I' for Inactive)
REMARK    1  A    between atoms: C_2  and  C_14
REMARK    2  A    between atoms: N_3  and  C_4
REMARK    3  A    between atoms: C_4  and  N_6
REMARK    4  A    between atoms: N_6  and  C_7
REMARK                            x       y       z     vdW  Elec       q    Type
REMARK                         _______ _______ _______ _____ _____    ______ ____
ROOT
ATOM      1  C   UNL     1      21.438  10.155  37.160  0.00  0.00    +0.000 C 
ATOM      2  S   UNL     1      22.794   9.531  36.532  0.00  0.00    +0.000 S 
ENDROOT
BRANCH   1   5
ATOM      3  O   UNL     1      19.084   9.304  38.375  0.00  0.00    +0.000 OA
ATOM      4  C   UNL     1      19.048   9.579  37.135  0.00  0.00    +0.000 C 
ATOM      5  N   UNL     1      20.217  10.017  36.463  0.00  0.00    +0.000 NA
BRANCH   4   6
ATOM      6  C   UNL     1      17.740   9.416  36.462  0.00  0.00    +0.000 C 
ATOM      7  C   UNL     1      17.825   9.174  35.001  0.00  0.00    +0.000 C 
ATOM      8  C   UNL     1      16.900  10.089  34.258  0.00  0.00    +0.000 C 
ATOM      9  C   UNL     1      17.203  11.510  34.729  0.00  0.00    +0.000 C 
ATOM     10  C   UNL     1      16.625  11.639  36.113  0.00  0.00    +0.000 C 
ATOM     11  C   UNL     1      16.705  10.372  36.909  0.00  0.00    +0.000 C 
ENDBRANCH   4   6
ENDBRANCH   1   5
BRANCH   1  12
ATOM     12  N   UNL     1      21.471  10.831  38.386  0.00  0.00    +0.000 NA
BRANCH  12  13
ATOM     13  C   UNL     1      21.411  12.234  38.537  0.00  0.00    +0.000 A 
ATOM     14  C   UNL     1      22.510  13.043  38.706  0.00  0.00    +0.000 A 
ATOM     15  C   UNL     1      22.349  14.409  38.846  0.00  0.00    +0.000 A 
ATOM     16  C   UNL     1      21.114  15.022  38.824  0.00  0.00    +0.000 A 
ATOM     17  O   UNL     1      20.948  16.397  38.964  0.00  0.00    +0.000 OA
ATOM     18  C   UNL     1      20.010  14.198  38.653  0.00  0.00    +0.000 A 
ATOM     19  C   UNL     1      20.169  12.835  38.513  0.00  0.00    +0.000 A 
ENDBRANCH  12  13
ENDBRANCH   1  12
TORSDOF 4
ENDMDL
MODEL 10
REMARK VINA RESULT:      -5.2     21.355     22.985
REMARK  Name = 
REMARK  4 active torsions:
REMARK  status: ('A' for Active; 'I' for Inactive)
REMARK    1  A    between atoms: C_2  and  C_14
REMARK    2  A    between atoms: N_3  and  C_4
REMARK    3  A    between atoms: C_4  and  N_6
REMARK    4  A    between atoms: N_6  and  C_7
REMARK                            x       y       z     vdW  Elec       q    Type
REMARK                         _______ _______ _______ _____ _____    ______ ____
ROOT
ATOM      1  C   UNL     1      26.551   4.272  13.770  0.00  0.00    +0.000 C 
ATOM      2  S   UNL     1      26.669   3.753  12.240  0.00  0.00    +0.000 S 
ENDROOT
BRANCH   1   5
ATOM      3  O   UNL     1      23.896   3.964  14.544  0.00  0.00    +0.000 OA
ATOM      4  C   UNL     1      24.775   3.261  15.134  0.00  0.00    +0.000 C 
ATOM      5  N   UNL     1      26.142   3.376  14.782  0.00  0.00    +0.000 NA
BRANCH   4   6
ATOM      6  C   UNL     1      24.283   2.340  16.184  0.00  0.00    +0.000 C 
ATOM      7  C   UNL     1      22.822   2.411  16.430  0.00  0.00    +0.000 C 
ATOM      8  C   UNL     1      22.536   2.540  17.894  0.00  0.00    +0.000 C 
ATOM      9  C   UNL     1      23.368   3.711  18.412  0.00  0.00    +0.000 C 
ATOM     10  C   UNL     1      24.794   3.233  18.475  0.00  0.00    +0.000 C 
ATOM     11  C   UNL     1      25.146   2.271  17.382  0.00  0.00    +0.000 C 
ENDBRANCH   4   6
ENDBRANCH   1   5
BRANCH   1  12
ATOM     12  N   UNL     1      26.851   5.601  14.092  0.00  0.00    +0.000 NA
BRANCH  12  13
ATOM     13  C   UNL     1      27.074   6.085  15.401  0.00  0.00    +0.000 A 
ATOM     14  C   UNL     1      26.075   6.429  16.281  0.00  0.00    +0.000 A 
ATOM     15  C   UNL     1      26.395   6.894  17.542  0.00  0.00    +0.000 A 
ATOM     16  C   UNL     1      27.694   7.035  17.980  0.00  0.00    +0.000 A 
ATOM     17  O   UNL     1      28.020   7.503  19.250  0.00  0.00    +0.000 OA
ATOM     18  C   UNL     1      28.697   6.686  17.085  0.00  0.00    +0.000 A 
ATOM     19  C   UNL     1      28.379   6.222  15.826  0.00  0.00    +0.000 A 
ENDBRANCH  12  13
ENDBRANCH   1  12
TORSDOF 4
ENDMDL
