MODEL 1
REMARK VINA RESULT:      -7.8      0.000      0.000
REMARK  Name = 
REMARK  8 active torsions:
REMARK  status: ('A' for Active; 'I' for Inactive)
REMARK    1  A    between atoms: C_2  and  C_3
REMARK    2  A    between atoms: C_3  and  C_4
REMARK    3  A    between atoms: C_4  and  C_5
REMARK    4  A    between atoms: C_5  and  O_6
REMARK    5  A    between atoms: O_6  and  C_7
REMARK    6  A    between atoms: C_7  and  C_9
REMARK    7  A    between atoms: N_12  and  C_13
REMARK    8  A    between atoms: C_13  and  C_15
REMARK                            x       y       z     vdW  Elec       q    Type
REMARK                         _______ _______ _______ _____ _____    ______ ____
ROOT
ATOM      1  C   UNL     1      36.968   1.800  15.781  0.00  0.00    +0.000 A 
ATOM      2  C   UNL     1      36.031   0.879  16.191  0.00  0.00    +0.000 A 
ATOM      3  N   UNL     1      34.753   1.102  16.768  0.00  0.00    +0.000 NA
ATOM      4  N   UNL     1      36.450  -0.356  15.989  0.00  0.00    +0.000 N 
ATOM      5  C   UNL     1      37.667  -0.283  15.444  0.00  0.00    +0.000 A 
ATOM      6  N   UNL     1      38.602  -1.152  15.014  0.00  0.00    +0.000 NA
ATOM      7  C   UNL     1      39.783  -0.785  14.486  0.00  0.00    +0.000 A 
ATOM      8  C   UNL     1      40.686  -1.761  14.069  0.00  0.00    +0.000 A 
ATOM      9  C   UNL     1      41.896  -1.368  13.529  0.00  0.00    +0.000 A 
ATOM     10  C   UNL     1      42.211  -0.025  13.403  0.00  0.00    +0.000 A 
ATOM     11  C   UNL     1      41.325   0.943  13.812  0.00  0.00    +0.000 A 
ATOM     12  C   UNL     1      40.109   0.546  14.355  0.00  0.00    +0.000 A 
ATOM     13  N   UNL     1      39.200   1.442  14.774  0.00  0.00    +0.000 NA
ATOM     14  C   UNL     1      38.021   1.072  15.299  0.00  0.00    +0.000 A 
ENDROOT
BRANCH   1  15
ATOM     15  C   UNL     1      36.811   3.232  15.867  0.00  0.00    +0.000 C 
ATOM     16  O   UNL     1      36.288   3.845  14.906  0.00  0.00    +0.000 OA
BRANCH  15  17
ATOM     17  O   UNL     1      37.201   3.999  16.952  0.00  0.00    +0.000 OA
BRANCH  17  18
ATOM     18  C   UNL     1      38.455   4.644  16.995  0.00  0.00    +0.000 C 
BRANCH  18  19
ATOM     19  C   UNL     1      38.908   4.932  18.409  0.00  0.00    +0.000 C 
BRANCH  19  20
ATOM     20  C   UNL     1      38.888   6.442  18.575  0.00  0.00    +0.000 C 
BRANCH  20  22
ATOM     21  C   UNL     1      40.963   6.346  19.971  0.00  0.00    +0.000 C 
ATOM     22  C   UNL     1      39.526   6.782  19.883  0.00  0.00    +0.000 C 
ENDBRANCH  20  22
ENDBRANCH  19  20
ENDBRANCH  18  19
ENDBRANCH  17  18
ENDBRANCH  15  17
ENDBRANCH   1  15
BRANCH   4  23
ATOM     23  C   UNL     1      35.754  -1.684  16.290  0.00  0.00    +0.000 C 
ATOM     24  C   UNL     1      36.250  -2.609  15.032  0.00  0.00    +0.000 C 
BRANCH  23  25
ATOM     25  C   UNL     1      36.768  -2.249  17.354  0.00  0.00    +0.000 A 
ATOM     26  C   UNL     1      37.491  -3.365  17.061  0.00  0.00    +0.000 A 
ATOM     27  C   UNL     1      38.363  -3.854  18.017  0.00  0.00    +0.000 A 
ATOM     28  C   UNL     1      38.492  -3.220  19.233  0.00  0.00    +0.000 A 
ATOM     29  C   UNL     1      37.765  -2.082  19.552  0.00  0.00    +0.000 A 
ATOM     30  C   UNL     1      36.912  -1.644  18.557  0.00  0.00    +0.000 A 
ENDBRANCH  23  25
ENDBRANCH   4  23
TORSDOF 8
ENDMDL
MODEL 2
REMARK VINA RESULT:      -7.4      1.514      4.402
REMARK  Name = 
REMARK  8 active torsions:
REMARK  status: ('A' for Active; 'I' for Inactive)
REMARK    1  A    between atoms: C_2  and  C_3
REMARK    2  A    between atoms: C_3  and  C_4
REMARK    3  A    between atoms: C_4  and  C_5
REMARK    4  A    between atoms: C_5  and  O_6
REMARK    5  A    between atoms: O_6  and  C_7
REMARK    6  A    between atoms: C_7  and  C_9
REMARK    7  A    between atoms: N_12  and  C_13
REMARK    8  A    between atoms: C_13  and  C_15
REMARK                            x       y       z     vdW  Elec       q    Type
REMARK                         _______ _______ _______ _____ _____    ______ ____
ROOT
ATOM      1  C   UNL     1      36.275   0.739  15.913  0.00  0.00    +0.000 A 
ATOM      2  C   UNL     1      36.603   0.483  14.601  0.00  0.00    +0.000 A 
ATOM      3  N   UNL     1      36.280   1.230  13.438  0.00  0.00    +0.000 NA
ATOM      4  N   UNL     1      37.313  -0.624  14.491  0.00  0.00    +0.000 N 
ATOM      5  C   UNL     1      37.471  -1.124  15.719  0.00  0.00    +0.000 A 
ATOM      6  N   UNL     1      38.074  -2.195  16.271  0.00  0.00    +0.000 NA
ATOM      7  C   UNL     1      38.076  -2.460  17.589  0.00  0.00    +0.000 A 
ATOM      8  C   UNL     1      38.730  -3.595  18.064  0.00  0.00    +0.000 A 
ATOM      9  C   UNL     1      38.721  -3.854  19.422  0.00  0.00    +0.000 A 
ATOM     10  C   UNL     1      38.073  -3.002  20.301  0.00  0.00    +0.000 A 
ATOM     11  C   UNL     1      37.425  -1.880  19.839  0.00  0.00    +0.000 A 
ATOM     12  C   UNL     1      37.435  -1.621  18.473  0.00  0.00    +0.000 A 
ATOM     13  N   UNL     1      36.821  -0.543  17.958  0.00  0.00    +0.000 NA
ATOM     14  C   UNL     1      36.824  -0.281  16.642  0.00  0.00    +0.000 A 
ENDROOT
BRANCH   1  15
ATOM     15  C   UNL     1      35.504   1.872  16.365  0.00  0.00    +0.000 C 
ATOM     16  O   UNL     1      34.346   1.682  16.807  0.00  0.00    +0.000 OA
BRANCH  15  17
ATOM     17  O   UNL     1      35.954   3.181  16.351  0.00  0.00    +0.000 OA
BRANCH  17  18
ATOM     18  C   UNL     1      37.328   3.497  16.423  0.00  0.00    +0.000 C 
BRANCH  18  19
ATOM     19  C   UNL     1      37.675   4.747  15.647  0.00  0.00    +0.000 C 
BRANCH  19  20
ATOM     20  C   UNL     1      38.502   5.621  16.573  0.00  0.00    +0.000 C 
BRANCH  20  22
ATOM     21  C   UNL     1      39.267   5.738  18.954  0.00  0.00    +0.000 C 
ATOM     22  C   UNL     1      38.744   4.869  17.842  0.00  0.00    +0.000 C 
ENDBRANCH  20  22
ENDBRANCH  19  20
ENDBRANCH  18  19
ENDBRANCH  17  18
ENDBRANCH  15  17
ENDBRANCH   1  15
BRANCH   4  23
ATOM     23  C   UNL     1      37.889  -1.292  13.242  0.00  0.00    +0.000 C 
ATOM     24  C   UNL     1      37.787  -0.081  12.142  0.00  0.00    +0.000 C 
BRANCH  23  25
ATOM     25  C   UNL     1      39.421  -1.125  13.567  0.00  0.00    +0.000 A 
ATOM     26  C   UNL     1      40.193  -2.234  13.734  0.00  0.00    +0.000 A 
ATOM     27  C   UNL     1      41.533  -2.063  14.036  0.00  0.00    +0.000 A 
ATOM     28  C   UNL     1      42.064  -0.799  14.162  0.00  0.00    +0.000 A 
ATOM     29  C   UNL     1      41.295   0.344  13.996  0.00  0.00    +0.000 A 
ATOM     30  C   UNL     1      39.966   0.108  13.697  0.00  0.00    +0.000 A 
ENDBRANCH  23  25
ENDBRANCH   4  23
TORSDOF 8
ENDMDL
MODEL 3
REMARK VINA RESULT:      -7.3      2.658      6.334
REMARK  Name = 
REMARK  8 active torsions:
REMARK  status: ('A' for Active; 'I' for Inactive)
REMARK    1  A    between atoms: C_2  and  C_3
REMARK    2  A    between atoms: C_3  and  C_4
REMARK    3  A    between atoms: C_4  and  C_5
REMARK    4  A    between atoms: C_5  and  O_6
REMARK    5  A    between atoms: O_6  and  C_7
REMARK    6  A    between atoms: C_7  and  C_9
REMARK    7  A    between atoms: N_12  and  C_13
REMARK    8  A    between atoms: C_13  and  C_15
REMARK                            x       y       z     vdW  Elec       q    Type
REMARK                         _______ _______ _______ _____ _____    ______ ____
ROOT
ATOM      1  C   UNL     1      37.982  -1.194  13.842  0.00  0.00    +0.000 A 
ATOM      2  C   UNL     1      37.234  -0.065  13.597  0.00  0.00    +0.000 A 
ATOM      3  N   UNL     1      36.985   0.591  12.362  0.00  0.00    +0.000 NA
ATOM      4  N   UNL     1      36.710   0.415  14.709  0.00  0.00    +0.000 N 
ATOM      5  C   UNL     1      37.096  -0.379  15.710  0.00  0.00    +0.000 A 
ATOM      6  N   UNL     1      36.910  -0.437  17.043  0.00  0.00    +0.000 NA
ATOM      7  C   UNL     1      37.437  -1.386  17.836  0.00  0.00    +0.000 A 
ATOM      8  C   UNL     1      37.186  -1.360  19.206  0.00  0.00    +0.000 A 
ATOM      9  C   UNL     1      37.737  -2.343  20.007  0.00  0.00    +0.000 A 
ATOM     10  C   UNL     1      38.527  -3.340  19.461  0.00  0.00    +0.000 A 
ATOM     11  C   UNL     1      38.779  -3.372  18.110  0.00  0.00    +0.000 A 
ATOM     12  C   UNL     1      38.225  -2.383  17.305  0.00  0.00    +0.000 A 
ATOM     13  N   UNL     1      38.433  -2.357  15.979  0.00  0.00    +0.000 NA
ATOM     14  C   UNL     1      37.903  -1.409  15.191  0.00  0.00    +0.000 A 
ENDROOT
BRANCH   1  15
ATOM     15  C   UNL     1      38.684  -1.954  12.836  0.00  0.00    +0.000 C 
ATOM     16  O   UNL     1      38.462  -3.185  12.739  0.00  0.00    +0.000 OA
BRANCH  15  17
ATOM     17  O   UNL     1      39.602  -1.419  11.948  0.00  0.00    +0.000 OA
BRANCH  17  18
ATOM     18  C   UNL     1      40.993  -1.501  12.176  0.00  0.00    +0.000 C 
BRANCH  18  19
ATOM     19  C   UNL     1      41.542  -0.263  12.849  0.00  0.00    +0.000 C 
BRANCH  19  20
ATOM     20  C   UNL     1      41.842  -0.646  14.288  0.00  0.00    +0.000 C 
BRANCH  20  22
ATOM     21  C   UNL     1      44.231  -0.276  14.935  0.00  0.00    +0.000 C 
ATOM     22  C   UNL     1      43.220  -1.222  14.347  0.00  0.00    +0.000 C 
ENDBRANCH  20  22
ENDBRANCH  19  20
ENDBRANCH  18  19
ENDBRANCH  17  18
ENDBRANCH  15  17
ENDBRANCH   1  15
BRANCH   4  23
ATOM     23  C   UNL     1      35.820   1.641  14.917  0.00  0.00    +0.000 C 
ATOM     24  C   UNL     1      35.115   1.297  16.356  0.00  0.00    +0.000 C 
BRANCH  23  25
ATOM     25  C   UNL     1      36.910   2.634  15.472  0.00  0.00    +0.000 A 
ATOM     26  C   UNL     1      36.749   3.178  16.709  0.00  0.00    +0.000 A 
ATOM     27  C   UNL     1      37.710   4.062  17.169  0.00  0.00    +0.000 A 
ATOM     28  C   UNL     1      38.799   4.376  16.388  0.00  0.00    +0.000 A 
ATOM     29  C   UNL     1      38.982   3.833  15.124  0.00  0.00    +0.000 A 
ATOM     30  C   UNL     1      37.989   2.960  14.722  0.00  0.00    +0.000 A 
ENDBRANCH  23  25
ENDBRANCH   4  23
TORSDOF 8
ENDMDL
MODEL 4
REMARK VINA RESULT:      -7.2      3.338      5.843
REMARK  Name = 
REMARK  8 active torsions:
REMARK  status: ('A' for Active; 'I' for Inactive)
REMARK    1  A    between atoms: C_2  and  C_3
REMARK    2  A    between atoms: C_3  and  C_4
REMARK    3  A    between atoms: C_4  and  C_5
REMARK    4  A    between atoms: C_5  and  O_6
REMARK    5  A    between atoms: O_6  and  C_7
REMARK    6  A    between atoms: C_7  and  C_9
REMARK    7  A    between atoms: N_12  and  C_13
REMARK    8  A    between atoms: C_13  and  C_15
REMARK                            x       y       z     vdW  Elec       q    Type
REMARK                         _______ _______ _______ _____ _____    ______ ____
ROOT
ATOM      1  C   UNL     1      39.506  -1.075  14.896  0.00  0.00    +0.000 A 
ATOM      2  C   UNL     1      39.236  -2.127  15.741  0.00  0.00    +0.000 A 
ATOM      3  N   UNL     1      39.996  -3.303  15.973  0.00  0.00    +0.000 NA
ATOM      4  N   UNL     1      38.100  -1.945  16.386  0.00  0.00    +0.000 N 
ATOM      5  C   UNL     1      37.593  -0.776  15.987  0.00  0.00    +0.000 A 
ATOM      6  N   UNL     1      36.498  -0.039  16.256  0.00  0.00    +0.000 NA
ATOM      7  C   UNL     1      36.233   1.150  15.685  0.00  0.00    +0.000 A 
ATOM      8  C   UNL     1      35.071   1.836  16.030  0.00  0.00    +0.000 A 
ATOM      9  C   UNL     1      34.813   3.057  15.434  0.00  0.00    +0.000 A 
ATOM     10  C   UNL     1      35.692   3.592  14.508  0.00  0.00    +0.000 A 
ATOM     11  C   UNL     1      36.841   2.919  14.163  0.00  0.00    +0.000 A 
ATOM     12  C   UNL     1      37.099   1.692  14.763  0.00  0.00    +0.000 A 
ATOM     13  N   UNL     1      38.202   0.985  14.470  0.00  0.00    +0.000 NA
ATOM     14  C   UNL     1      38.464  -0.201  15.042  0.00  0.00    +0.000 A 
ENDROOT
BRANCH   1  15
ATOM     15  C   UNL     1      40.672  -0.972  14.051  0.00  0.00    +0.000 C 
ATOM     16  O   UNL     1      40.523  -0.985  12.806  0.00  0.00    +0.000 OA
BRANCH  15  17
ATOM     17  O   UNL     1      41.970  -0.857  14.518  0.00  0.00    +0.000 OA
BRANCH  17  18
ATOM     18  C   UNL     1      42.950  -1.836  14.242  0.00  0.00    +0.000 C 
BRANCH  18  19
ATOM     19  C   UNL     1      44.345  -1.256  14.187  0.00  0.00    +0.000 C 
BRANCH  19  20
ATOM     20  C   UNL     1      44.477  -0.322  15.377  0.00  0.00    +0.000 C 
BRANCH  20  22
ATOM     21  C   UNL     1      45.975   0.098  17.338  0.00  0.00    +0.000 C 
ATOM     22  C   UNL     1      45.488  -0.895  16.318  0.00  0.00    +0.000 C 
ENDBRANCH  20  22
ENDBRANCH  19  20
ENDBRANCH  18  19
ENDBRANCH  17  18
ENDBRANCH  15  17
ENDBRANCH   1  15
BRANCH   4  23
ATOM     23  C   UNL     1      37.407  -2.843  17.412  0.00  0.00    +0.000 C 
ATOM     24  C   UNL     1      36.513  -1.755  18.252  0.00  0.00    +0.000 C 
BRANCH  23  25
ATOM     25  C   UNL     1      36.241  -3.387  16.504  0.00  0.00    +0.000 A 
ATOM     26  C   UNL     1      34.979  -2.904  16.676  0.00  0.00    +0.000 A 
ATOM     27  C   UNL     1      33.967  -3.408  15.879  0.00  0.00    +0.000 A 
ATOM     28  C   UNL     1      34.238  -4.375  14.936  0.00  0.00    +0.000 A 
ATOM     29  C   UNL     1      35.516  -4.880  14.744  0.00  0.00    +0.000 A 
ATOM     30  C   UNL     1      36.482  -4.337  15.571  0.00  0.00    +0.000 A 
ENDBRANCH  23  25
ENDBRANCH   4  23
TORSDOF 8
ENDMDL
MODEL 5
REMARK VINA RESULT:      -7.2      2.172      3.001
REMARK  Name = 
REMARK  8 active torsions:
REMARK  status: ('A' for Active; 'I' for Inactive)
REMARK    1  A    between atoms: C_2  and  C_3
REMARK    2  A    between atoms: C_3  and  C_4
REMARK    3  A    between atoms: C_4  and  C_5
REMARK    4  A    between atoms: C_5  and  O_6
REMARK    5  A    between atoms: O_6  and  C_7
REMARK    6  A    between atoms: C_7  and  C_9
REMARK    7  A    between atoms: N_12  and  C_13
REMARK    8  A    between atoms: C_13  and  C_15
REMARK                            x       y       z     vdW  Elec       q    Type
REMARK                         _______ _______ _______ _____ _____    ______ ____
ROOT
ATOM      1  C   UNL     1      36.575   1.639  15.877  0.00  0.00    +0.000 A 
ATOM      2  C   UNL     1      35.696   0.671  16.307  0.00  0.00    +0.000 A 
ATOM      3  N   UNL     1      34.403   0.827  16.873  0.00  0.00    +0.000 NA
ATOM      4  N   UNL     1      36.194  -0.539  16.138  0.00  0.00    +0.000 N 
ATOM      5  C   UNL     1      37.407  -0.403  15.597  0.00  0.00    +0.000 A 
ATOM      6  N   UNL     1      38.398  -1.221  15.193  0.00  0.00    +0.000 NA
ATOM      7  C   UNL     1      39.556  -0.793  14.661  0.00  0.00    +0.000 A 
ATOM      8  C   UNL     1      40.521  -1.719  14.274  0.00  0.00    +0.000 A 
ATOM      9  C   UNL     1      41.708  -1.263  13.729  0.00  0.00    +0.000 A 
ATOM     10  C   UNL     1      41.938   0.093  13.570  0.00  0.00    +0.000 A 
ATOM     11  C   UNL     1      40.989   1.013  13.950  0.00  0.00    +0.000 A 
ATOM     12  C   UNL     1      39.797   0.553  14.498  0.00  0.00    +0.000 A 
ATOM     13  N   UNL     1      38.831   1.399  14.890  0.00  0.00    +0.000 NA
ATOM     14  C   UNL     1      37.675   0.968  15.419  0.00  0.00    +0.000 A 
ENDROOT
BRANCH   1  15
ATOM     15  C   UNL     1      36.327   3.060  15.926  0.00  0.00    +0.000 C 
ATOM     16  O   UNL     1      37.055   3.780  16.650  0.00  0.00    +0.000 OA
BRANCH  15  17
ATOM     17  O   UNL     1      35.326   3.705  15.220  0.00  0.00    +0.000 OA
BRANCH  17  18
ATOM     18  C   UNL     1      35.577   4.334  13.981  0.00  0.00    +0.000 C 
BRANCH  18  19
ATOM     19  C   UNL     1      35.611   5.842  14.096  0.00  0.00    +0.000 C 
BRANCH  19  20
ATOM     20  C   UNL     1      34.834   6.387  12.910  0.00  0.00    +0.000 C 
BRANCH  20  22
ATOM     21  C   UNL     1      33.721   7.849  14.610  0.00  0.00    +0.000 C 
ATOM     22  C   UNL     1      33.546   6.958  13.410  0.00  0.00    +0.000 C 
ENDBRANCH  20  22
ENDBRANCH  19  20
ENDBRANCH  18  19
ENDBRANCH  17  18
ENDBRANCH  15  17
ENDBRANCH   1  15
BRANCH   4  23
ATOM     23  C   UNL     1      35.582  -1.901  16.470  0.00  0.00    +0.000 C 
ATOM     24  C   UNL     1      36.066  -2.801  15.189  0.00  0.00    +0.000 C 
BRANCH  23  25
ATOM     25  C   UNL     1      36.672  -2.411  17.485  0.00  0.00    +0.000 A 
ATOM     26  C   UNL     1      37.431  -3.494  17.161  0.00  0.00    +0.000 A 
ATOM     27  C   UNL     1      38.371  -3.936  18.075  0.00  0.00    +0.000 A 
ATOM     28  C   UNL     1      38.530  -3.289  19.281  0.00  0.00    +0.000 A 
ATOM     29  C   UNL     1      37.767  -2.184  19.631  0.00  0.00    +0.000 A 
ATOM     30  C   UNL     1      36.846  -1.793  18.677  0.00  0.00    +0.000 A 
ENDBRANCH  23  25
ENDBRANCH   4  23
TORSDOF 8
ENDMDL
MODEL 6
REMARK VINA RESULT:      -7.1      2.198      6.294
REMARK  Name = 
REMARK  8 active torsions:
REMARK  status: ('A' for Active; 'I' for Inactive)
REMARK    1  A    between atoms: C_2  and  C_3
REMARK    2  A    between atoms: C_3  and  C_4
REMARK    3  A    between atoms: C_4  and  C_5
REMARK    4  A    between atoms: C_5  and  O_6
REMARK    5  A    between atoms: O_6  and  C_7
REMARK    6  A    between atoms: C_7  and  C_9
REMARK    7  A    between atoms: N_12  and  C_13
REMARK    8  A    between atoms: C_13  and  C_15
REMARK                            x       y       z     vdW  Elec       q    Type
REMARK                         _______ _______ _______ _____ _____    ______ ____
ROOT
ATOM      1  C   UNL     1      36.011   0.243  16.371  0.00  0.00    +0.000 A 
ATOM      2  C   UNL     1      35.689   1.501  15.915  0.00  0.00    +0.000 A 
ATOM      3  N   UNL     1      34.517   2.266  16.157  0.00  0.00    +0.000 NA
ATOM      4  N   UNL     1      36.648   1.998  15.157  0.00  0.00    +0.000 N 
ATOM      5  C   UNL     1      37.622   1.086  15.092  0.00  0.00    +0.000 A 
ATOM      6  N   UNL     1      38.829   0.981  14.503  0.00  0.00    +0.000 NA
ATOM      7  C   UNL     1      39.629  -0.094  14.615  0.00  0.00    +0.000 A 
ATOM      8  C   UNL     1      40.861  -0.107  13.966  0.00  0.00    +0.000 A 
ATOM      9  C   UNL     1      41.672  -1.221  14.091  0.00  0.00    +0.000 A 
ATOM     10  C   UNL     1      41.269  -2.308  14.847  0.00  0.00    +0.000 A 
ATOM     11  C   UNL     1      40.054  -2.301  15.491  0.00  0.00    +0.000 A 
ATOM     12  C   UNL     1      39.240  -1.182  15.364  0.00  0.00    +0.000 A 
ATOM     13  N   UNL     1      38.041  -1.112  15.966  0.00  0.00    +0.000 NA
ATOM     14  C   UNL     1      37.246  -0.037  15.853  0.00  0.00    +0.000 A 
ENDROOT
BRANCH   1  15
ATOM     15  C   UNL     1      35.172  -0.566  17.221  0.00  0.00    +0.000 C 
ATOM     16  O   UNL     1      35.166  -0.346  18.456  0.00  0.00    +0.000 OA
BRANCH  15  17
ATOM     17  O   UNL     1      34.355  -1.589  16.771  0.00  0.00    +0.000 OA
BRANCH  17  18
ATOM     18  C   UNL     1      34.825  -2.914  16.639  0.00  0.00    +0.000 C 
BRANCH  18  19
ATOM     19  C   UNL     1      35.169  -3.264  15.208  0.00  0.00    +0.000 C 
BRANCH  19  20
ATOM     20  C   UNL     1      36.377  -4.183  15.262  0.00  0.00    +0.000 C 
BRANCH  20  22
ATOM     21  C   UNL     1      37.757  -5.444  16.927  0.00  0.00    +0.000 C 
ATOM     22  C   UNL     1      36.833  -4.282  16.682  0.00  0.00    +0.000 C 
ENDBRANCH  20  22
ENDBRANCH  19  20
ENDBRANCH  18  19
ENDBRANCH  17  18
ENDBRANCH  15  17
ENDBRANCH   1  15
BRANCH   4  23
ATOM     23  C   UNL     1      36.725   3.346  14.440  0.00  0.00    +0.000 C 
ATOM     24  C   UNL     1      35.367   4.086  14.982  0.00  0.00    +0.000 C 
BRANCH  23  25
ATOM     25  C   UNL     1      37.736   4.072  15.405  0.00  0.00    +0.000 A 
ATOM     26  C   UNL     1      38.848   4.661  14.886  0.00  0.00    +0.000 A 
ATOM     27  C   UNL     1      39.732   5.279  15.754  0.00  0.00    +0.000 A 
ATOM     28  C   UNL     1      39.483   5.293  17.109  0.00  0.00    +0.000 A 
ATOM     29  C   UNL     1      38.356   4.698  17.658  0.00  0.00    +0.000 A 
ATOM     30  C   UNL     1      37.514   4.099  16.740  0.00  0.00    +0.000 A 
ENDBRANCH  23  25
ENDBRANCH   4  23
TORSDOF 8
ENDMDL
MODEL 7
REMARK VINA RESULT:      -7.1      1.846      5.829
REMARK  Name = 
REMARK  8 active torsions:
REMARK  status: ('A' for Active; 'I' for Inactive)
REMARK    1  A    between atoms: C_2  and  C_3
REMARK    2  A    between atoms: C_3  and  C_4
REMARK    3  A    between atoms: C_4  and  C_5
REMARK    4  A    between atoms: C_5  and  O_6
REMARK    5  A    between atoms: O_6  and  C_7
REMARK    6  A    between atoms: C_7  and  C_9
REMARK    7  A    between atoms: N_12  and  C_13
REMARK    8  A    between atoms: C_13  and  C_15
REMARK                            x       y       z     vdW  Elec       q    Type
REMARK                         _______ _______ _______ _____ _____    ______ ____
ROOT
ATOM      1  C   UNL     1      36.497   1.470  16.139  0.00  0.00    +0.000 A 
ATOM      2  C   UNL     1      36.790   0.814  14.965  0.00  0.00    +0.000 A 
ATOM      3  N   UNL     1      36.197  -0.357  14.425  0.00  0.00    +0.000 NA
ATOM      4  N   UNL     1      37.765   1.415  14.310  0.00  0.00    +0.000 N 
ATOM      5  C   UNL     1      38.139   2.476  15.029  0.00  0.00    +0.000 A 
ATOM      6  N   UNL     1      39.047   3.465  14.919  0.00  0.00    +0.000 NA
ATOM      7  C   UNL     1      39.210   4.441  15.828  0.00  0.00    +0.000 A 
ATOM      8  C   UNL     1      40.178   5.421  15.623  0.00  0.00    +0.000 A 
ATOM      9  C   UNL     1      40.334   6.418  16.568  0.00  0.00    +0.000 A 
ATOM     10  C   UNL     1      39.541   6.446  17.704  0.00  0.00    +0.000 A 
ATOM     11  C   UNL     1      38.583   5.482  17.912  0.00  0.00    +0.000 A 
ATOM     12  C   UNL     1      38.428   4.480  16.961  0.00  0.00    +0.000 A 
ATOM     13  N   UNL     1      37.512   3.509  17.106  0.00  0.00    +0.000 NA
ATOM     14  C   UNL     1      37.351   2.537  16.195  0.00  0.00    +0.000 A 
ENDROOT
BRANCH   1  15
ATOM     15  C   UNL     1      35.481   1.065  17.080  0.00  0.00    +0.000 C 
ATOM     16  O   UNL     1      34.298   1.440  16.896  0.00  0.00    +0.000 OA
BRANCH  15  17
ATOM     17  O   UNL     1      35.714   0.276  18.194  0.00  0.00    +0.000 OA
BRANCH  17  18
ATOM     18  C   UNL     1      36.090  -1.080  18.080  0.00  0.00    +0.000 C 
BRANCH  18  19
ATOM     19  C   UNL     1      37.454  -1.352  18.673  0.00  0.00    +0.000 C 
BRANCH  19  20
ATOM     20  C   UNL     1      38.262  -2.063  17.601  0.00  0.00    +0.000 C 
BRANCH  20  22
ATOM     21  C   UNL     1      37.760  -4.178  16.362  0.00  0.00    +0.000 C 
ATOM     22  C   UNL     1      37.316  -2.779  16.692  0.00  0.00    +0.000 C 
ENDBRANCH  20  22
ENDBRANCH  19  20
ENDBRANCH  18  19
ENDBRANCH  17  18
ENDBRANCH  15  17
ENDBRANCH   1  15
BRANCH   4  23
ATOM     23  C   UNL     1      38.417   1.044  12.977  0.00  0.00    +0.000 C 
ATOM     24  C   UNL     1      39.753   1.994  12.988  0.00  0.00    +0.000 C 
BRANCH  23  25
ATOM     25  C   UNL     1      39.127  -0.289  13.422  0.00  0.00    +0.000 A 
ATOM     26  C   UNL     1      38.803  -1.457  12.802  0.00  0.00    +0.000 A 
ATOM     27  C   UNL     1      39.427  -2.619  13.220  0.00  0.00    +0.000 A 
ATOM     28  C   UNL     1      40.353  -2.586  14.239  0.00  0.00    +0.000 A 
ATOM     29  C   UNL     1      40.698  -1.407  14.883  0.00  0.00    +0.000 A 
ATOM     30  C   UNL     1      40.041  -0.282  14.421  0.00  0.00    +0.000 A 
ENDBRANCH  23  25
ENDBRANCH   4  23
TORSDOF 8
ENDMDL
MODEL 8
REMARK VINA RESULT:      -6.9      2.723      5.798
REMARK  Name = 
REMARK  8 active torsions:
REMARK  status: ('A' for Active; 'I' for Inactive)
REMARK    1  A    between atoms: C_2  and  C_3
REMARK    2  A    between atoms: C_3  and  C_4
REMARK    3  A    between atoms: C_4  and  C_5
REMARK    4  A    between atoms: C_5  and  O_6
REMARK    5  A    between atoms: O_6  and  C_7
REMARK    6  A    between atoms: C_7  and  C_9
REMARK    7  A    between atoms: N_12  and  C_13
REMARK    8  A    between atoms: C_13  and  C_15
REMARK                            x       y       z     vdW  Elec       q    Type
REMARK                         _______ _______ _______ _____ _____    ______ ____
ROOT
ATOM      1  C   UNL     1      37.378   0.459  14.919  0.00  0.00    +0.000 A 
ATOM      2  C   UNL     1      38.747   0.441  14.779  0.00  0.00    +0.000 A 
ATOM      3  N   UNL     1      39.644   1.531  14.631  0.00  0.00    +0.000 NA
ATOM      4  N   UNL     1      39.215  -0.793  14.793  0.00  0.00    +0.000 N 
ATOM      5  C   UNL     1      38.175  -1.616  14.942  0.00  0.00    +0.000 A 
ATOM      6  N   UNL     1      37.982  -2.947  15.029  0.00  0.00    +0.000 NA
ATOM      7  C   UNL     1      36.777  -3.523  15.184  0.00  0.00    +0.000 A 
ATOM      8  C   UNL     1      36.681  -4.910  15.265  0.00  0.00    +0.000 A 
ATOM      9  C   UNL     1      35.434  -5.487  15.423  0.00  0.00    +0.000 A 
ATOM     10  C   UNL     1      34.296  -4.703  15.500  0.00  0.00    +0.000 A 
ATOM     11  C   UNL     1      34.384  -3.333  15.422  0.00  0.00    +0.000 A 
ATOM     12  C   UNL     1      35.637  -2.754  15.262  0.00  0.00    +0.000 A 
ATOM     13  N   UNL     1      35.791  -1.422  15.178  0.00  0.00    +0.000 NA
ATOM     14  C   UNL     1      36.996  -0.851  15.025  0.00  0.00    +0.000 A 
ENDROOT
BRANCH   1  15
ATOM     15  C   UNL     1      36.566   1.651  14.942  0.00  0.00    +0.000 C 
ATOM     16  O   UNL     1      36.516   2.373  13.917  0.00  0.00    +0.000 OA
BRANCH  15  17
ATOM     17  O   UNL     1      35.820   2.070  16.030  0.00  0.00    +0.000 OA
BRANCH  17  18
ATOM     18  C   UNL     1      36.199   1.764  17.355  0.00  0.00    +0.000 C 
BRANCH  18  19
ATOM     19  C   UNL     1      35.375   0.643  17.947  0.00  0.00    +0.000 C 
BRANCH  19  20
ATOM     20  C   UNL     1      36.218   0.013  19.043  0.00  0.00    +0.000 C 
BRANCH  20  22
ATOM     21  C   UNL     1      37.896  -1.792  18.606  0.00  0.00    +0.000 C 
ATOM     22  C   UNL     1      36.440  -1.425  18.701  0.00  0.00    +0.000 C 
ENDBRANCH  20  22
ENDBRANCH  19  20
ENDBRANCH  18  19
ENDBRANCH  17  18
ENDBRANCH  15  17
ENDBRANCH   1  15
BRANCH   4  23
ATOM     23  C   UNL     1      40.656  -1.291  14.668  0.00  0.00    +0.000 C 
ATOM     24  C   UNL     1      40.560  -2.762  15.382  0.00  0.00    +0.000 C 
BRANCH  23  25
ATOM     25  C   UNL     1      40.603  -1.798  13.178  0.00  0.00    +0.000 A 
ATOM     26  C   UNL     1      41.015  -3.064  12.888  0.00  0.00    +0.000 A 
ATOM     27  C   UNL     1      40.976  -3.483  11.570  0.00  0.00    +0.000 A 
ATOM     28  C   UNL     1      40.530  -2.635  10.581  0.00  0.00    +0.000 A 
ATOM     29  C   UNL     1      40.106  -1.342  10.854  0.00  0.00    +0.000 A 
ATOM     30  C   UNL     1      40.169  -0.983  12.188  0.00  0.00    +0.000 A 
ENDBRANCH  23  25
ENDBRANCH   4  23
TORSDOF 8
ENDMDL
MODEL 9
REMARK VINA RESULT:      -6.9     24.908     27.989
REMARK  Name = 
REMARK  8 active torsions:
REMARK  status: ('A' for Active; 'I' for Inactive)
REMARK    1  A    between atoms: C_2  and  C_3
REMARK    2  A    between atoms: C_3  and  C_4
REMARK    3  A    between atoms: C_4  and  C_5
REMARK    4  A    between atoms: C_5  and  O_6
REMARK    5  A    between atoms: O_6  and  C_7
REMARK    6  A    between atoms: C_7  and  C_9
REMARK    7  A    between atoms: N_12  and  C_13
REMARK    8  A    between atoms: C_13  and  C_15
REMARK                            x       y       z     vdW  Elec       q    Type
REMARK                         _______ _______ _______ _____ _____    ______ ____
ROOT
ATOM      1  C   UNL     1      27.290  15.351  35.169  0.00  0.00    +0.000 A 
ATOM      2  C   UNL     1      28.636  15.625  35.256  0.00  0.00    +0.000 A 
ATOM      3  N   UNL     1      29.600  15.704  34.217  0.00  0.00    +0.000 NA
ATOM      4  N   UNL     1      29.005  15.830  36.507  0.00  0.00    +0.000 N 
ATOM      5  C   UNL     1      27.919  15.697  37.273  0.00  0.00    +0.000 A 
ATOM      6  N   UNL     1      27.629  15.780  38.586  0.00  0.00    +0.000 NA
ATOM      7  C   UNL     1      26.400  15.593  39.098  0.00  0.00    +0.000 A 
ATOM      8  C   UNL     1      26.202  15.701  40.472  0.00  0.00    +0.000 A 
ATOM      9  C   UNL     1      24.932  15.506  40.983  0.00  0.00    +0.000 A 
ATOM     10  C   UNL     1      23.870  15.208  40.145  0.00  0.00    +0.000 A 
ATOM     11  C   UNL     1      24.059  15.101  38.788  0.00  0.00    +0.000 A 
ATOM     12  C   UNL     1      25.336  15.297  38.275  0.00  0.00    +0.000 A 
ATOM     13  N   UNL     1      25.588  15.206  36.959  0.00  0.00    +0.000 NA
ATOM     14  C   UNL     1      26.816  15.394  36.452  0.00  0.00    +0.000 A 
ENDROOT
BRANCH   1  15
ATOM     15  C   UNL     1      26.580  15.081  33.942  0.00  0.00    +0.000 C 
ATOM     16  O   UNL     1      26.284  13.895  33.659  0.00  0.00    +0.000 OA
BRANCH  15  17
ATOM     17  O   UNL     1      26.191  16.050  33.033  0.00  0.00    +0.000 OA
BRANCH  17  18
ATOM     18  C   UNL     1      24.839  16.423  32.876  0.00  0.00    +0.000 C 
BRANCH  18  19
ATOM     19  C   UNL     1      24.604  17.885  33.185  0.00  0.00    +0.000 C 
BRANCH  19  20
ATOM     20  C   UNL     1      24.260  18.559  31.868  0.00  0.00    +0.000 C 
BRANCH  20  22
ATOM     21  C   UNL     1      23.034  20.739  31.770  0.00  0.00    +0.000 C 
ATOM     22  C   UNL     1      22.948  19.258  32.022  0.00  0.00    +0.000 C 
ENDBRANCH  20  22
ENDBRANCH  19  20
ENDBRANCH  18  19
ENDBRANCH  17  18
ENDBRANCH  15  17
ENDBRANCH   1  15
BRANCH   4  23
ATOM     23  C   UNL     1      30.386  16.159  37.075  0.00  0.00    +0.000 C 
ATOM     24  C   UNL     1      30.005  16.712  38.570  0.00  0.00    +0.000 C 
BRANCH  23  25
ATOM     25  C   UNL     1      30.815  14.709  37.512  0.00  0.00    +0.000 A 
ATOM     26  C   UNL     1      30.699  14.343  38.819  0.00  0.00    +0.000 A 
ATOM     27  C   UNL     1      31.098  13.069  39.183  0.00  0.00    +0.000 A 
ATOM     28  C   UNL     1      31.600  12.199  38.241  0.00  0.00    +0.000 A 
ATOM     29  C   UNL     1      31.727  12.551  36.905  0.00  0.00    +0.000 A 
ATOM     30  C   UNL     1      31.312  13.835  36.605  0.00  0.00    +0.000 A 
ENDBRANCH  23  25
ENDBRANCH   4  23
TORSDOF 8
ENDMDL
MODEL 10
REMARK VINA RESULT:      -6.8      4.416      7.370
REMARK  Name = 
REMARK  8 active torsions:
REMARK  status: ('A' for Active; 'I' for Inactive)
REMARK    1  A    between atoms: C_2  and  C_3
REMARK    2  A    between atoms: C_3  and  C_4
REMARK    3  A    between atoms: C_4  and  C_5
REMARK    4  A    between atoms: C_5  and  O_6
REMARK    5  A    between atoms: O_6  and  C_7
REMARK    6  A    between atoms: C_7  and  C_9
REMARK    7  A    between atoms: N_12  and  C_13
REMARK    8  A    between atoms: C_13  and  C_15
REMARK                            x       y       z     vdW  Elec       q    Type
REMARK                         _______ _______ _______ _____ _____    ______ ____
ROOT
ATOM      1  C   UNL     1      36.624   7.718  14.421  0.00  0.00    +0.000 A 
ATOM      2  C   UNL     1      36.701   6.563  13.676  0.00  0.00    +0.000 A 
ATOM      3  N   UNL     1      36.192   6.304  12.376  0.00  0.00    +0.000 NA
ATOM      4  N   UNL     1      37.348   5.614  14.326  0.00  0.00    +0.000 N 
ATOM      5  C   UNL     1      37.714   6.114  15.509  0.00  0.00    +0.000 A 
ATOM      6  N   UNL     1      38.378   5.676  16.595  0.00  0.00    +0.000 NA
ATOM      7  C   UNL     1      38.612   6.426  17.687  0.00  0.00    +0.000 A 
ATOM      8  C   UNL     1      39.310   5.880  18.762  0.00  0.00    +0.000 A 
ATOM      9  C   UNL     1      39.542   6.664  19.877  0.00  0.00    +0.000 A 
ATOM     10  C   UNL     1      39.089   7.972  19.929  0.00  0.00    +0.000 A 
ATOM     11  C   UNL     1      38.399   8.516  18.871  0.00  0.00    +0.000 A 
ATOM     12  C   UNL     1      38.166   7.727  17.751  0.00  0.00    +0.000 A 
ATOM     13  N   UNL     1      37.499   8.198  16.685  0.00  0.00    +0.000 NA
ATOM     14  C   UNL     1      37.269   7.447  15.597  0.00  0.00    +0.000 A 
ENDROOT
BRANCH   1  15
ATOM     15  C   UNL     1      35.981   8.936  13.992  0.00  0.00    +0.000 C 
ATOM     16  O   UNL     1      36.681   9.852  13.498  0.00  0.00    +0.000 OA
BRANCH  15  17
ATOM     17  O   UNL     1      34.620   9.178  14.084  0.00  0.00    +0.000 OA
BRANCH  17  18
ATOM     18  C   UNL     1      33.940   9.144  15.320  0.00  0.00    +0.000 C 
BRANCH  18  19
ATOM     19  C   UNL     1      34.414  10.221  16.269  0.00  0.00    +0.000 C 
BRANCH  19  20
ATOM     20  C   UNL     1      34.121   9.725  17.674  0.00  0.00    +0.000 C 
BRANCH  20  22
ATOM     21  C   UNL     1      32.226   9.274  19.247  0.00  0.00    +0.000 C 
ATOM     22  C   UNL     1      32.652   9.850  17.924  0.00  0.00    +0.000 C 
ENDBRANCH  20  22
ENDBRANCH  19  20
ENDBRANCH  18  19
ENDBRANCH  17  18
ENDBRANCH  15  17
ENDBRANCH   1  15
BRANCH   4  23
ATOM     23  C   UNL     1      37.668   4.182  13.896  0.00  0.00    +0.000 C 
ATOM     24  C   UNL     1      39.003   3.859  14.790  0.00  0.00    +0.000 C 
BRANCH  23  25
ATOM     25  C   UNL     1      36.637   3.422  14.812  0.00  0.00    +0.000 A 
ATOM     26  C   UNL     1      37.092   2.514  15.719  0.00  0.00    +0.000 A 
ATOM     27  C   UNL     1      36.167   1.845  16.501  0.00  0.00    +0.000 A 
ATOM     28  C   UNL     1      34.821   2.099  16.360  0.00  0.00    +0.000 A 
ATOM     29  C   UNL     1      34.336   3.020  15.443  0.00  0.00    +0.000 A 
ATOM     30  C   UNL     1      35.309   3.653  14.692  0.00  0.00    +0.000 A 
ENDBRANCH  23  25
ENDBRANCH   4  23
TORSDOF 8
ENDMDL
