MODEL 1
REMARK VINA RESULT:      -8.0      0.000      0.000
REMARK  Name = 
REMARK  8 active torsions:
REMARK  status: ('A' for Active; 'I' for Inactive)
REMARK    1  A    between atoms: C_2  and  N_3
REMARK    2  A    between atoms: C_2  and  C_19
REMARK    3  A    between atoms: N_3  and  N_4
REMARK    4  A    between atoms: C_5  and  C_7
REMARK    5  A    between atoms: C_7  and  O_8
REMARK    6  A    between atoms: O_8  and  C_9
REMARK    7  A    between atoms: C_12  and  C_13
REMARK    8  A    between atoms: C_24  and  O_25
REMARK                            x       y       z     vdW  Elec       q    Type
REMARK                         _______ _______ _______ _____ _____    ______ ____
ROOT
ATOM      1  N   UNL     1      36.257  -0.323  18.297  0.00  0.00    +0.000 NA
ENDROOT
BRANCH   1   2
ATOM      2  N   UNL     1      36.711   0.945  17.805  0.00  0.00    +0.000 NA
ATOM      3  C   UNL     1      35.810   1.733  17.015  0.00  0.00    +0.000 C 
ATOM      4  O   UNL     1      34.658   1.190  16.849  0.00  0.00    +0.000 OA
BRANCH   3   5
ATOM      5  C   UNL     1      36.044   3.016  16.408  0.00  0.00    +0.000 C 
BRANCH   5   6
ATOM      6  O   UNL     1      37.236   3.513  16.152  0.00  0.00    +0.000 OA
BRANCH   6   7
ATOM      7  C   UNL     1      38.174   4.305  16.692  0.00  0.00    +0.000 A 
ATOM      8  C   UNL     1      39.099   4.979  15.953  0.00  0.00    +0.000 A 
ATOM      9  C   UNL     1      40.062   5.789  16.517  0.00  0.00    +0.000 A 
ATOM     10  C   UNL     1      40.101   5.929  17.885  0.00  0.00    +0.000 A 
ATOM     11  C   UNL     1      39.167   5.248  18.627  0.00  0.00    +0.000 A 
ATOM     12  C   UNL     1      38.210   4.448  18.101  0.00  0.00    +0.000 A 
BRANCH  10  13
ATOM     13  C   UNL     1      41.089   6.756  18.616  0.00  0.00    +0.000 C 
ATOM     14  C   UNL     1      40.700   8.221  18.363  0.00  0.00    +0.000 C 
ATOM     15  C   UNL     1      41.103   6.441  20.076  0.00  0.00    +0.000 C 
ATOM     16  C   UNL     1      42.458   6.547  17.977  0.00  0.00    +0.000 C 
ENDBRANCH  10  13
ENDBRANCH   6   7
ENDBRANCH   5   6
ENDBRANCH   3   5
ENDBRANCH   1   2
BRANCH   1  18
ATOM     17  C   UNL     1      37.357  -2.290  18.923  0.00  0.00    +0.000 C 
ATOM     18  C   UNL     1      37.102  -1.450  17.932  0.00  0.00    +0.000 C 
BRANCH  18  19
ATOM     19  C   UNL     1      37.634  -1.558  16.587  0.00  0.00    +0.000 A 
ATOM     20  C   UNL     1      36.781  -1.715  15.491  0.00  0.00    +0.000 A 
ATOM     21  C   UNL     1      37.215  -1.836  14.197  0.00  0.00    +0.000 A 
ATOM     22  C   UNL     1      38.574  -1.806  13.909  0.00  0.00    +0.000 A 
ATOM     23  C   UNL     1      39.055  -1.921  12.631  0.00  0.00    +0.000 A 
ATOM     24  C   UNL     1      40.392  -1.885  12.328  0.00  0.00    +0.000 A 
ATOM     25  C   UNL     1      41.251  -1.724  13.407  0.00  0.00    +0.000 A 
ATOM     26  C   UNL     1      40.782  -1.612  14.696  0.00  0.00    +0.000 A 
ATOM     27  C   UNL     1      39.434  -1.652  14.981  0.00  0.00    +0.000 A 
ATOM     28  C   UNL     1      38.977  -1.530  16.290  0.00  0.00    +0.000 A 
BRANCH  24  29
ATOM     29  O   UNL     1      40.875  -2.000  11.024  0.00  0.00    +0.000 OA
ATOM     30  C   UNL     1      40.395  -2.991  10.156  0.00  0.00    +0.000 C 
ENDBRANCH  24  29
ENDBRANCH  18  19
ENDBRANCH   1  18
TORSDOF 8
ENDMDL
MODEL 2
REMARK VINA RESULT:      -7.9      2.709      9.190
REMARK  Name = 
REMARK  8 active torsions:
REMARK  status: ('A' for Active; 'I' for Inactive)
REMARK    1  A    between atoms: C_2  and  N_3
REMARK    2  A    between atoms: C_2  and  C_19
REMARK    3  A    between atoms: N_3  and  N_4
REMARK    4  A    between atoms: C_5  and  C_7
REMARK    5  A    between atoms: C_7  and  O_8
REMARK    6  A    between atoms: O_8  and  C_9
REMARK    7  A    between atoms: C_12  and  C_13
REMARK    8  A    between atoms: C_24  and  O_25
REMARK                            x       y       z     vdW  Elec       q    Type
REMARK                         _______ _______ _______ _____ _____    ______ ____
ROOT
ATOM      1  N   UNL     1      38.525   4.059  16.191  0.00  0.00    +0.000 NA
ENDROOT
BRANCH   1   2
ATOM      2  N   UNL     1      37.441   3.400  16.859  0.00  0.00    +0.000 NA
ATOM      3  C   UNL     1      36.328   2.950  16.074  0.00  0.00    +0.000 C 
ATOM      4  O   UNL     1      36.449   3.193  14.819  0.00  0.00    +0.000 OA
BRANCH   3   5
ATOM      5  C   UNL     1      35.133   2.284  16.519  0.00  0.00    +0.000 C 
BRANCH   5   6
ATOM      6  O   UNL     1      35.077   1.020  16.886  0.00  0.00    +0.000 OA
BRANCH   6   7
ATOM      7  C   UNL     1      35.815  -0.099  16.887  0.00  0.00    +0.000 A 
ATOM      8  C   UNL     1      36.009  -0.867  15.778  0.00  0.00    +0.000 A 
ATOM      9  C   UNL     1      36.766  -2.018  15.788  0.00  0.00    +0.000 A 
ATOM     10  C   UNL     1      37.357  -2.421  16.964  0.00  0.00    +0.000 A 
ATOM     11  C   UNL     1      37.159  -1.644  18.079  0.00  0.00    +0.000 A 
ATOM     12  C   UNL     1      36.423  -0.509  18.099  0.00  0.00    +0.000 A 
BRANCH  10  13
ATOM     13  C   UNL     1      38.183  -3.641  17.113  0.00  0.00    +0.000 C 
ATOM     14  C   UNL     1      38.620  -3.692  18.585  0.00  0.00    +0.000 C 
ATOM     15  C   UNL     1      37.429  -4.871  16.726  0.00  0.00    +0.000 C 
ATOM     16  C   UNL     1      39.451  -3.468  16.283  0.00  0.00    +0.000 C 
ENDBRANCH  10  13
ENDBRANCH   6   7
ENDBRANCH   5   6
ENDBRANCH   3   5
ENDBRANCH   1   2
BRANCH   1  18
ATOM     17  C   UNL     1      37.926   6.304  15.924  0.00  0.00    +0.000 C 
ATOM     18  C   UNL     1      38.708   5.453  16.569  0.00  0.00    +0.000 C 
BRANCH  18  19
ATOM     19  C   UNL     1      39.719   5.819  17.542  0.00  0.00    +0.000 A 
ATOM     20  C   UNL     1      39.411   5.883  18.904  0.00  0.00    +0.000 A 
ATOM     21  C   UNL     1      40.312   6.234  19.875  0.00  0.00    +0.000 A 
ATOM     22  C   UNL     1      41.621   6.554  19.533  0.00  0.00    +0.000 A 
ATOM     23  C   UNL     1      42.557   6.907  20.468  0.00  0.00    +0.000 A 
ATOM     24  C   UNL     1      43.854   7.216  20.150  0.00  0.00    +0.000 A 
ATOM     25  C   UNL     1      44.176   7.152  18.800  0.00  0.00    +0.000 A 
ATOM     26  C   UNL     1      43.245   6.802  17.850  0.00  0.00    +0.000 A 
ATOM     27  C   UNL     1      41.944   6.496  18.189  0.00  0.00    +0.000 A 
ATOM     28  C   UNL     1      41.017   6.137  17.215  0.00  0.00    +0.000 A 
BRANCH  24  29
ATOM     29  O   UNL     1      44.804   7.574  21.107  0.00  0.00    +0.000 OA
ATOM     30  C   UNL     1      45.299   8.884  21.186  0.00  0.00    +0.000 C 
ENDBRANCH  24  29
ENDBRANCH  18  19
ENDBRANCH   1  18
TORSDOF 8
ENDMDL
MODEL 3
REMARK VINA RESULT:      -7.8      3.584      4.315
REMARK  Name = 
REMARK  8 active torsions:
REMARK  status: ('A' for Active; 'I' for Inactive)
REMARK    1  A    between atoms: C_2  and  N_3
REMARK    2  A    between atoms: C_2  and  C_19
REMARK    3  A    between atoms: N_3  and  N_4
REMARK    4  A    between atoms: C_5  and  C_7
REMARK    5  A    between atoms: C_7  and  O_8
REMARK    6  A    between atoms: O_8  and  C_9
REMARK    7  A    between atoms: C_12  and  C_13
REMARK    8  A    between atoms: C_24  and  O_25
REMARK                            x       y       z     vdW  Elec       q    Type
REMARK                         _______ _______ _______ _____ _____    ______ ____
ROOT
ATOM      1  N   UNL     1      37.731  -3.126  18.366  0.00  0.00    +0.000 NA
ENDROOT
BRANCH   1   2
ATOM      2  N   UNL     1      36.573  -2.289  18.248  0.00  0.00    +0.000 NA
ATOM      3  C   UNL     1      36.664  -0.929  18.698  0.00  0.00    +0.000 C 
ATOM      4  O   UNL     1      37.820  -0.615  19.159  0.00  0.00    +0.000 OA
BRANCH   3   5
ATOM      5  C   UNL     1      35.641   0.082  18.694  0.00  0.00    +0.000 C 
BRANCH   5   6
ATOM      6  O   UNL     1      35.248   0.740  17.623  0.00  0.00    +0.000 OA
BRANCH   6   7
ATOM      7  C   UNL     1      35.740   1.347  16.533  0.00  0.00    +0.000 A 
ATOM      8  C   UNL     1      35.342   2.583  16.123  0.00  0.00    +0.000 A 
ATOM      9  C   UNL     1      35.850   3.199  14.998  0.00  0.00    +0.000 A 
ATOM     10  C   UNL     1      36.800   2.544  14.249  0.00  0.00    +0.000 A 
ATOM     11  C   UNL     1      37.199   1.298  14.666  0.00  0.00    +0.000 A 
ATOM     12  C   UNL     1      36.720   0.671  15.765  0.00  0.00    +0.000 A 
BRANCH  10  13
ATOM     13  C   UNL     1      37.417   3.087  13.016  0.00  0.00    +0.000 C 
ATOM     14  C   UNL     1      37.245   2.010  11.934  0.00  0.00    +0.000 C 
ATOM     15  C   UNL     1      36.787   4.378  12.604  0.00  0.00    +0.000 C 
ATOM     16  C   UNL     1      38.915   3.237  13.254  0.00  0.00    +0.000 C 
ENDBRANCH  10  13
ENDBRANCH   6   7
ENDBRANCH   5   6
ENDBRANCH   3   5
ENDBRANCH   1   2
BRANCH   1  18
ATOM     17  C   UNL     1      38.143  -5.165  17.297  0.00  0.00    +0.000 C 
ATOM     18  C   UNL     1      38.076  -3.851  17.152  0.00  0.00    +0.000 C 
BRANCH  18  19
ATOM     19  C   UNL     1      38.363  -3.130  15.927  0.00  0.00    +0.000 A 
ATOM     20  C   UNL     1      37.631  -3.378  14.762  0.00  0.00    +0.000 A 
ATOM     21  C   UNL     1      37.858  -2.744  13.569  0.00  0.00    +0.000 A 
ATOM     22  C   UNL     1      38.863  -1.790  13.462  0.00  0.00    +0.000 A 
ATOM     23  C   UNL     1      39.124  -1.128  12.292  0.00  0.00    +0.000 A 
ATOM     24  C   UNL     1      40.105  -0.177  12.171  0.00  0.00    +0.000 A 
ATOM     25  C   UNL     1      40.837   0.083  13.322  0.00  0.00    +0.000 A 
ATOM     26  C   UNL     1      40.588  -0.577  14.504  0.00  0.00    +0.000 A 
ATOM     27  C   UNL     1      39.598  -1.531  14.605  0.00  0.00    +0.000 A 
ATOM     28  C   UNL     1      39.355  -2.184  15.810  0.00  0.00    +0.000 A 
BRANCH  24  29
ATOM     29  O   UNL     1      40.365   0.495  10.977  0.00  0.00    +0.000 OA
ATOM     30  C   UNL     1      40.687  -0.205   9.805  0.00  0.00    +0.000 C 
ENDBRANCH  24  29
ENDBRANCH  18  19
ENDBRANCH   1  18
TORSDOF 8
ENDMDL
MODEL 4
REMARK VINA RESULT:      -7.8      1.207      1.926
REMARK  Name = 
REMARK  8 active torsions:
REMARK  status: ('A' for Active; 'I' for Inactive)
REMARK    1  A    between atoms: C_2  and  N_3
REMARK    2  A    between atoms: C_2  and  C_19
REMARK    3  A    between atoms: N_3  and  N_4
REMARK    4  A    between atoms: C_5  and  C_7
REMARK    5  A    between atoms: C_7  and  O_8
REMARK    6  A    between atoms: O_8  and  C_9
REMARK    7  A    between atoms: C_12  and  C_13
REMARK    8  A    between atoms: C_24  and  O_25
REMARK                            x       y       z     vdW  Elec       q    Type
REMARK                         _______ _______ _______ _____ _____    ______ ____
ROOT
ATOM      1  N   UNL     1      34.878   0.803  17.444  0.00  0.00    +0.000 NA
ENDROOT
BRANCH   1   2
ATOM      2  N   UNL     1      35.942   1.714  17.134  0.00  0.00    +0.000 NA
ATOM      3  C   UNL     1      35.694   2.756  16.180  0.00  0.00    +0.000 C 
ATOM      4  O   UNL     1      34.499   2.752  15.711  0.00  0.00    +0.000 OA
BRANCH   3   5
ATOM      5  C   UNL     1      36.601   3.767  15.706  0.00  0.00    +0.000 C 
BRANCH   5   6
ATOM      6  O   UNL     1      37.876   3.834  16.029  0.00  0.00    +0.000 OA
BRANCH   6   7
ATOM      7  C   UNL     1      38.743   4.610  16.695  0.00  0.00    +0.000 A 
ATOM      8  C   UNL     1      39.773   5.268  16.093  0.00  0.00    +0.000 A 
ATOM      9  C   UNL     1      40.663   6.061  16.785  0.00  0.00    +0.000 A 
ATOM     10  C   UNL     1      40.515   6.200  18.147  0.00  0.00    +0.000 A 
ATOM     11  C   UNL     1      39.476   5.535  18.750  0.00  0.00    +0.000 A 
ATOM     12  C   UNL     1      38.588   4.752  18.096  0.00  0.00    +0.000 A 
BRANCH  10  13
ATOM     13  C   UNL     1      41.407   7.010  19.009  0.00  0.00    +0.000 C 
ATOM     14  C   UNL     1      42.790   6.994  18.339  0.00  0.00    +0.000 C 
ATOM     15  C   UNL     1      40.898   8.405  19.174  0.00  0.00    +0.000 C 
ATOM     16  C   UNL     1      41.557   6.298  20.349  0.00  0.00    +0.000 C 
ENDBRANCH  10  13
ENDBRANCH   6   7
ENDBRANCH   5   6
ENDBRANCH   3   5
ENDBRANCH   1   2
BRANCH   1  18
ATOM     17  C   UNL     1      34.148  -1.416  17.329  0.00  0.00    +0.000 C 
ATOM     18  C   UNL     1      35.104  -0.563  16.997  0.00  0.00    +0.000 C 
BRANCH  18  19
ATOM     19  C   UNL     1      36.325  -0.908  16.295  0.00  0.00    +0.000 A 
ATOM     20  C   UNL     1      37.430  -1.413  16.986  0.00  0.00    +0.000 A 
ATOM     21  C   UNL     1      38.618  -1.747  16.389  0.00  0.00    +0.000 A 
ATOM     22  C   UNL     1      38.779  -1.592  15.018  0.00  0.00    +0.000 A 
ATOM     23  C   UNL     1      39.946  -1.914  14.376  0.00  0.00    +0.000 A 
ATOM     24  C   UNL     1      40.120  -1.776  13.023  0.00  0.00    +0.000 A 
ATOM     25  C   UNL     1      39.029  -1.280  12.322  0.00  0.00    +0.000 A 
ATOM     26  C   UNL     1      37.852  -0.949  12.954  0.00  0.00    +0.000 A 
ATOM     27  C   UNL     1      37.696  -1.093  14.316  0.00  0.00    +0.000 A 
ATOM     28  C   UNL     1      36.497  -0.759  14.938  0.00  0.00    +0.000 A 
BRANCH  24  29
ATOM     29  O   UNL     1      41.310  -2.109  12.375  0.00  0.00    +0.000 OA
ATOM     30  C   UNL     1      42.015  -3.276  12.704  0.00  0.00    +0.000 C 
ENDBRANCH  24  29
ENDBRANCH  18  19
ENDBRANCH   1  18
TORSDOF 8
ENDMDL
MODEL 5
REMARK VINA RESULT:      -7.8     24.838     28.651
REMARK  Name = 
REMARK  8 active torsions:
REMARK  status: ('A' for Active; 'I' for Inactive)
REMARK    1  A    between atoms: C_2  and  N_3
REMARK    2  A    between atoms: C_2  and  C_19
REMARK    3  A    between atoms: N_3  and  N_4
REMARK    4  A    between atoms: C_5  and  C_7
REMARK    5  A    between atoms: C_7  and  O_8
REMARK    6  A    between atoms: O_8  and  C_9
REMARK    7  A    between atoms: C_12  and  C_13
REMARK    8  A    between atoms: C_24  and  O_25
REMARK                            x       y       z     vdW  Elec       q    Type
REMARK                         _______ _______ _______ _____ _____    ______ ____
ROOT
ATOM      1  N   UNL     1      13.490  -0.012  30.622  0.00  0.00    +0.000 NA
ENDROOT
BRANCH   1   2
ATOM      2  N   UNL     1      14.465   0.134  29.581  0.00  0.00    +0.000 NA
ATOM      3  C   UNL     1      14.032   0.018  28.218  0.00  0.00    +0.000 C 
ATOM      4  O   UNL     1      12.773  -0.200  28.093  0.00  0.00    +0.000 OA
BRANCH   3   5
ATOM      5  C   UNL     1      14.822   0.113  27.019  0.00  0.00    +0.000 C 
BRANCH   5   6
ATOM      6  O   UNL     1      16.081  -0.262  26.925  0.00  0.00    +0.000 OA
BRANCH   6   7
ATOM      7  C   UNL     1      17.112  -0.247  26.067  0.00  0.00    +0.000 A 
ATOM      8  C   UNL     1      17.675  -1.378  25.557  0.00  0.00    +0.000 A 
ATOM      9  C   UNL     1      18.737  -1.356  24.678  0.00  0.00    +0.000 A 
ATOM     10  C   UNL     1      19.260  -0.143  24.292  0.00  0.00    +0.000 A 
ATOM     11  C   UNL     1      18.689   0.995  24.807  0.00  0.00    +0.000 A 
ATOM     12  C   UNL     1      17.646   1.003  25.670  0.00  0.00    +0.000 A 
BRANCH  10  13
ATOM     13  C   UNL     1      20.404   0.021  23.366  0.00  0.00    +0.000 C 
ATOM     14  C   UNL     1      21.595   0.475  24.223  0.00  0.00    +0.000 C 
ATOM     15  C   UNL     1      20.710  -1.245  22.635  0.00  0.00    +0.000 C 
ATOM     16  C   UNL     1      20.088   1.166  22.409  0.00  0.00    +0.000 C 
ENDBRANCH  10  13
ENDBRANCH   6   7
ENDBRANCH   5   6
ENDBRANCH   3   5
ENDBRANCH   1   2
BRANCH   1  18
ATOM     17  C   UNL     1      14.959  -0.251  32.426  0.00  0.00    +0.000 C 
ATOM     18  C   UNL     1      13.938   0.432  31.934  0.00  0.00    +0.000 C 
BRANCH  18  19
ATOM     19  C   UNL     1      13.245   1.508  32.616  0.00  0.00    +0.000 A 
ATOM     20  C   UNL     1      11.862   1.455  32.814  0.00  0.00    +0.000 A 
ATOM     21  C   UNL     1      11.142   2.440  33.437  0.00  0.00    +0.000 A 
ATOM     22  C   UNL     1      11.781   3.577  33.917  0.00  0.00    +0.000 A 
ATOM     23  C   UNL     1      11.104   4.587  34.549  0.00  0.00    +0.000 A 
ATOM     24  C   UNL     1      11.719   5.711  35.036  0.00  0.00    +0.000 A 
ATOM     25  C   UNL     1      13.093   5.775  34.850  0.00  0.00    +0.000 A 
ATOM     26  C   UNL     1      13.786   4.770  34.214  0.00  0.00    +0.000 A 
ATOM     27  C   UNL     1      13.149   3.648  33.729  0.00  0.00    +0.000 A 
ATOM     28  C   UNL     1      13.866   2.638  33.094  0.00  0.00    +0.000 A 
BRANCH  24  29
ATOM     29  O   UNL     1      11.024   6.735  35.681  0.00  0.00    +0.000 OA
ATOM     30  C   UNL     1      10.895   8.004  35.098  0.00  0.00    +0.000 C 
ENDBRANCH  24  29
ENDBRANCH  18  19
ENDBRANCH   1  18
TORSDOF 8
ENDMDL
MODEL 6
REMARK VINA RESULT:      -7.5      1.283      2.156
REMARK  Name = 
REMARK  8 active torsions:
REMARK  status: ('A' for Active; 'I' for Inactive)
REMARK    1  A    between atoms: C_2  and  N_3
REMARK    2  A    between atoms: C_2  and  C_19
REMARK    3  A    between atoms: N_3  and  N_4
REMARK    4  A    between atoms: C_5  and  C_7
REMARK    5  A    between atoms: C_7  and  O_8
REMARK    6  A    between atoms: O_8  and  C_9
REMARK    7  A    between atoms: C_12  and  C_13
REMARK    8  A    between atoms: C_24  and  O_25
REMARK                            x       y       z     vdW  Elec       q    Type
REMARK                         _______ _______ _______ _____ _____    ______ ____
ROOT
ATOM      1  N   UNL     1      37.058  -1.110  16.600  0.00  0.00    +0.000 NA
ENDROOT
BRANCH   1   2
ATOM      2  N   UNL     1      37.302   0.283  16.365  0.00  0.00    +0.000 NA
ATOM      3  C   UNL     1      36.221   1.207  16.556  0.00  0.00    +0.000 C 
ATOM      4  O   UNL     1      35.129   0.652  16.939  0.00  0.00    +0.000 OA
BRANCH   3   5
ATOM      5  C   UNL     1      36.224   2.634  16.371  0.00  0.00    +0.000 C 
BRANCH   5   6
ATOM      6  O   UNL     1      37.288   3.343  16.054  0.00  0.00    +0.000 OA
BRANCH   6   7
ATOM      7  C   UNL     1      38.188   4.173  16.600  0.00  0.00    +0.000 A 
ATOM      8  C   UNL     1      39.089   4.884  15.867  0.00  0.00    +0.000 A 
ATOM      9  C   UNL     1      40.014   5.734  16.436  0.00  0.00    +0.000 A 
ATOM     10  C   UNL     1      40.039   5.876  17.804  0.00  0.00    +0.000 A 
ATOM     11  C   UNL     1      39.129   5.157  18.540  0.00  0.00    +0.000 A 
ATOM     12  C   UNL     1      38.209   4.318  18.009  0.00  0.00    +0.000 A 
BRANCH  10  13
ATOM     13  C   UNL     1      40.987   6.744  18.541  0.00  0.00    +0.000 C 
ATOM     14  C   UNL     1      40.527   8.190  18.300  0.00  0.00    +0.000 C 
ATOM     15  C   UNL     1      41.018   6.418  19.999  0.00  0.00    +0.000 C 
ATOM     16  C   UNL     1      42.363   6.606  17.899  0.00  0.00    +0.000 C 
ENDBRANCH  10  13
ENDBRANCH   6   7
ENDBRANCH   5   6
ENDBRANCH   3   5
ENDBRANCH   1   2
BRANCH   1  18
ATOM     17  C   UNL     1      35.944  -2.464  15.051  0.00  0.00    +0.000 C 
ATOM     18  C   UNL     1      37.107  -1.940  15.405  0.00  0.00    +0.000 C 
BRANCH  18  19
ATOM     19  C   UNL     1      38.370  -2.178  14.733  0.00  0.00    +0.000 A 
ATOM     20  C   UNL     1      39.542  -2.389  15.466  0.00  0.00    +0.000 A 
ATOM     21  C   UNL     1      40.770  -2.605  14.897  0.00  0.00    +0.000 A 
ATOM     22  C   UNL     1      40.906  -2.625  13.514  0.00  0.00    +0.000 A 
ATOM     23  C   UNL     1      42.112  -2.840  12.900  0.00  0.00    +0.000 A 
ATOM     24  C   UNL     1      42.264  -2.872  11.537  0.00  0.00    +0.000 A 
ATOM     25  C   UNL     1      41.107  -2.668  10.797  0.00  0.00    +0.000 A 
ATOM     26  C   UNL     1      39.890  -2.447  11.400  0.00  0.00    +0.000 A 
ATOM     27  C   UNL     1      39.757  -2.417  12.772  0.00  0.00    +0.000 A 
ATOM     28  C   UNL     1      38.518  -2.199  13.365  0.00  0.00    +0.000 A 
BRANCH  24  29
ATOM     29  O   UNL     1      43.495  -3.094  10.918  0.00  0.00    +0.000 OA
ATOM     30  C   UNL     1      44.128  -4.343  10.987  0.00  0.00    +0.000 C 
ENDBRANCH  24  29
ENDBRANCH  18  19
ENDBRANCH   1  18
TORSDOF 8
ENDMDL
MODEL 7
REMARK VINA RESULT:      -7.4      2.031      7.928
REMARK  Name = 
REMARK  8 active torsions:
REMARK  status: ('A' for Active; 'I' for Inactive)
REMARK    1  A    between atoms: C_2  and  N_3
REMARK    2  A    between atoms: C_2  and  C_19
REMARK    3  A    between atoms: N_3  and  N_4
REMARK    4  A    between atoms: C_5  and  C_7
REMARK    5  A    between atoms: C_7  and  O_8
REMARK    6  A    between atoms: O_8  and  C_9
REMARK    7  A    between atoms: C_12  and  C_13
REMARK    8  A    between atoms: C_24  and  O_25
REMARK                            x       y       z     vdW  Elec       q    Type
REMARK                         _______ _______ _______ _____ _____    ______ ____
ROOT
ATOM      1  N   UNL     1      35.329   2.104  16.400  0.00  0.00    +0.000 NA
ENDROOT
BRANCH   1   2
ATOM      2  N   UNL     1      35.273   0.671  16.418  0.00  0.00    +0.000 NA
ATOM      3  C   UNL     1      35.965  -0.026  17.464  0.00  0.00    +0.000 C 
ATOM      4  O   UNL     1      36.564   0.750  18.293  0.00  0.00    +0.000 OA
BRANCH   3   5
ATOM      5  C   UNL     1      36.062  -1.446  17.678  0.00  0.00    +0.000 C 
BRANCH   5   6
ATOM      6  O   UNL     1      36.869  -2.246  17.013  0.00  0.00    +0.000 OA
BRANCH   6   7
ATOM      7  C   UNL     1      37.971  -2.217  16.250  0.00  0.00    +0.000 A 
ATOM      8  C   UNL     1      39.095  -2.931  16.533  0.00  0.00    +0.000 A 
ATOM      9  C   UNL     1      40.226  -2.893  15.745  0.00  0.00    +0.000 A 
ATOM     10  C   UNL     1      40.231  -2.100  14.621  0.00  0.00    +0.000 A 
ATOM     11  C   UNL     1      39.095  -1.381  14.338  0.00  0.00    +0.000 A 
ATOM     12  C   UNL     1      37.971  -1.401  15.092  0.00  0.00    +0.000 A 
BRANCH  10  13
ATOM     13  C   UNL     1      41.381  -1.960  13.698  0.00  0.00    +0.000 C 
ATOM     14  C   UNL     1      40.916  -1.036  12.562  0.00  0.00    +0.000 C 
ATOM     15  C   UNL     1      42.583  -1.407  14.391  0.00  0.00    +0.000 C 
ATOM     16  C   UNL     1      41.663  -3.321  13.071  0.00  0.00    +0.000 C 
ENDBRANCH  10  13
ENDBRANCH   6   7
ENDBRANCH   5   6
ENDBRANCH   3   5
ENDBRANCH   1   2
BRANCH   1  18
ATOM     17  C   UNL     1      35.929   2.231  14.143  0.00  0.00    +0.000 C 
ATOM     18  C   UNL     1      36.191   2.660  15.367  0.00  0.00    +0.000 C 
BRANCH  18  19
ATOM     19  C   UNL     1      37.266   3.566  15.724  0.00  0.00    +0.000 A 
ATOM     20  C   UNL     1      38.045   4.176  14.736  0.00  0.00    +0.000 A 
ATOM     21  C   UNL     1      39.083   5.031  15.001  0.00  0.00    +0.000 A 
ATOM     22  C   UNL     1      39.417   5.339  16.314  0.00  0.00    +0.000 A 
ATOM     23  C   UNL     1      40.444   6.190  16.628  0.00  0.00    +0.000 A 
ATOM     24  C   UNL     1      40.782   6.513  17.917  0.00  0.00    +0.000 A 
ATOM     25  C   UNL     1      40.013   5.918  18.909  0.00  0.00    +0.000 A 
ATOM     26  C   UNL     1      38.981   5.059  18.609  0.00  0.00    +0.000 A 
ATOM     27  C   UNL     1      38.657   4.745  17.306  0.00  0.00    +0.000 A 
ATOM     28  C   UNL     1      37.606   3.879  17.020  0.00  0.00    +0.000 A 
BRANCH  24  29
ATOM     29  O   UNL     1      41.828   7.382  18.231  0.00  0.00    +0.000 OA
ATOM     30  C   UNL     1      42.156   7.673  19.563  0.00  0.00    +0.000 C 
ENDBRANCH  24  29
ENDBRANCH  18  19
ENDBRANCH   1  18
TORSDOF 8
ENDMDL
MODEL 8
REMARK VINA RESULT:      -7.4      4.368      7.483
REMARK  Name = 
REMARK  8 active torsions:
REMARK  status: ('A' for Active; 'I' for Inactive)
REMARK    1  A    between atoms: C_2  and  N_3
REMARK    2  A    between atoms: C_2  and  C_19
REMARK    3  A    between atoms: N_3  and  N_4
REMARK    4  A    between atoms: C_5  and  C_7
REMARK    5  A    between atoms: C_7  and  O_8
REMARK    6  A    between atoms: O_8  and  C_9
REMARK    7  A    between atoms: C_12  and  C_13
REMARK    8  A    between atoms: C_24  and  O_25
REMARK                            x       y       z     vdW  Elec       q    Type
REMARK                         _______ _______ _______ _____ _____    ______ ____
ROOT
ATOM      1  N   UNL     1      39.489   7.731  20.408  0.00  0.00    +0.000 NA
ENDROOT
BRANCH   1   2
ATOM      2  N   UNL     1      39.289   8.872  19.562  0.00  0.00    +0.000 NA
ATOM      3  C   UNL     1      37.948   9.214  19.183  0.00  0.00    +0.000 C 
ATOM      4  O   UNL     1      37.057   8.432  19.676  0.00  0.00    +0.000 OA
BRANCH   3   5
ATOM      5  C   UNL     1      37.507  10.293  18.340  0.00  0.00    +0.000 C 
BRANCH   5   6
ATOM      6  O   UNL     1      36.617  10.171  17.377  0.00  0.00    +0.000 OA
BRANCH   6   7
ATOM      7  C   UNL     1      36.260   9.340  16.386  0.00  0.00    +0.000 A 
ATOM      8  C   UNL     1      35.067   9.426  15.734  0.00  0.00    +0.000 A 
ATOM      9  C   UNL     1      34.706   8.566  14.718  0.00  0.00    +0.000 A 
ATOM     10  C   UNL     1      35.580   7.573  14.340  0.00  0.00    +0.000 A 
ATOM     11  C   UNL     1      36.782   7.491  15.000  0.00  0.00    +0.000 A 
ATOM     12  C   UNL     1      37.163   8.321  15.998  0.00  0.00    +0.000 A 
BRANCH  10  13
ATOM     13  C   UNL     1      35.311   6.579  13.275  0.00  0.00    +0.000 C 
ATOM     14  C   UNL     1      34.873   5.289  13.985  0.00  0.00    +0.000 C 
ATOM     15  C   UNL     1      34.264   7.058  12.323  0.00  0.00    +0.000 C 
ATOM     16  C   UNL     1      36.624   6.267  12.565  0.00  0.00    +0.000 C 
ENDBRANCH  10  13
ENDBRANCH   6   7
ENDBRANCH   5   6
ENDBRANCH   3   5
ENDBRANCH   1   2
BRANCH   1  18
ATOM     17  C   UNL     1      41.427   6.428  20.541  0.00  0.00    +0.000 C 
ATOM     18  C   UNL     1      40.339   6.698  19.836  0.00  0.00    +0.000 C 
BRANCH  18  19
ATOM     19  C   UNL     1      39.993   6.089  18.566  0.00  0.00    +0.000 A 
ATOM     20  C   UNL     1      40.746   6.351  17.418  0.00  0.00    +0.000 A 
ATOM     21  C   UNL     1      40.468   5.822  16.185  0.00  0.00    +0.000 A 
ATOM     22  C   UNL     1      39.384   4.968  16.018  0.00  0.00    +0.000 A 
ATOM     23  C   UNL     1      39.069   4.412  14.806  0.00  0.00    +0.000 A 
ATOM     24  C   UNL     1      38.009   3.561  14.625  0.00  0.00    +0.000 A 
ATOM     25  C   UNL     1      37.255   3.288  15.759  0.00  0.00    +0.000 A 
ATOM     26  C   UNL     1      37.558   3.841  16.981  0.00  0.00    +0.000 A 
ATOM     27  C   UNL     1      38.627   4.696  17.144  0.00  0.00    +0.000 A 
ATOM     28  C   UNL     1      38.923   5.242  18.389  0.00  0.00    +0.000 A 
BRANCH  24  29
ATOM     29  O   UNL     1      37.695   2.997  13.388  0.00  0.00    +0.000 OA
ATOM     30  C   UNL     1      36.900   1.845  13.297  0.00  0.00    +0.000 C 
ENDBRANCH  24  29
ENDBRANCH  18  19
ENDBRANCH   1  18
TORSDOF 8
ENDMDL
MODEL 9
REMARK VINA RESULT:      -7.4      3.549      9.495
REMARK  Name = 
REMARK  8 active torsions:
REMARK  status: ('A' for Active; 'I' for Inactive)
REMARK    1  A    between atoms: C_2  and  N_3
REMARK    2  A    between atoms: C_2  and  C_19
REMARK    3  A    between atoms: N_3  and  N_4
REMARK    4  A    between atoms: C_5  and  C_7
REMARK    5  A    between atoms: C_7  and  O_8
REMARK    6  A    between atoms: O_8  and  C_9
REMARK    7  A    between atoms: C_12  and  C_13
REMARK    8  A    between atoms: C_24  and  O_25
REMARK                            x       y       z     vdW  Elec       q    Type
REMARK                         _______ _______ _______ _____ _____    ______ ____
ROOT
ATOM      1  N   UNL     1      39.659   5.294  16.015  0.00  0.00    +0.000 NA
ENDROOT
BRANCH   1   2
ATOM      2  N   UNL     1      38.232   5.343  15.879  0.00  0.00    +0.000 NA
ATOM      3  C   UNL     1      37.636   4.745  14.719  0.00  0.00    +0.000 C 
ATOM      4  O   UNL     1      38.485   4.209  13.920  0.00  0.00    +0.000 OA
BRANCH   3   5
ATOM      5  C   UNL     1      36.243   4.684  14.363  0.00  0.00    +0.000 C 
BRANCH   5   6
ATOM      6  O   UNL     1      35.420   3.724  14.734  0.00  0.00    +0.000 OA
BRANCH   6   7
ATOM      7  C   UNL     1      35.427   2.463  15.189  0.00  0.00    +0.000 A 
ATOM      8  C   UNL     1      36.021   1.433  14.523  0.00  0.00    +0.000 A 
ATOM      9  C   UNL     1      36.021   0.137  14.994  0.00  0.00    +0.000 A 
ATOM     10  C   UNL     1      35.396  -0.140  16.188  0.00  0.00    +0.000 A 
ATOM     11  C   UNL     1      34.799   0.901  16.857  0.00  0.00    +0.000 A 
ATOM     12  C   UNL     1      34.785   2.181  16.419  0.00  0.00    +0.000 A 
BRANCH  10  13
ATOM     13  C   UNL     1      35.313  -1.487  16.799  0.00  0.00    +0.000 C 
ATOM     14  C   UNL     1      33.910  -1.599  17.415  0.00  0.00    +0.000 C 
ATOM     15  C   UNL     1      35.554  -2.566  15.795  0.00  0.00    +0.000 C 
ATOM     16  C   UNL     1      36.307  -1.553  17.954  0.00  0.00    +0.000 C 
ENDBRANCH  10  13
ENDBRANCH   6   7
ENDBRANCH   5   6
ENDBRANCH   3   5
ENDBRANCH   1   2
BRANCH   1  18
ATOM     17  C   UNL     1      40.099   7.579  15.773  0.00  0.00    +0.000 C 
ATOM     18  C   UNL     1      40.256   6.513  16.542  0.00  0.00    +0.000 C 
BRANCH  18  19
ATOM     19  C   UNL     1      40.997   6.483  17.788  0.00  0.00    +0.000 A 
ATOM     20  C   UNL     1      40.340   6.280  19.005  0.00  0.00    +0.000 A 
ATOM     21  C   UNL     1      40.974   6.253  20.220  0.00  0.00    +0.000 A 
ATOM     22  C   UNL     1      42.350   6.433  20.295  0.00  0.00    +0.000 A 
ATOM     23  C   UNL     1      43.029   6.412  21.485  0.00  0.00    +0.000 A 
ATOM     24  C   UNL     1      44.386   6.579  21.577  0.00  0.00    +0.000 A 
ATOM     25  C   UNL     1      45.052   6.777  20.375  0.00  0.00    +0.000 A 
ATOM     26  C   UNL     1      44.384   6.804  19.172  0.00  0.00    +0.000 A 
ATOM     27  C   UNL     1      43.018   6.636  19.100  0.00  0.00    +0.000 A 
ATOM     28  C   UNL     1      42.358   6.660  17.875  0.00  0.00    +0.000 A 
BRANCH  24  29
ATOM     29  O   UNL     1      45.071   6.554  22.793  0.00  0.00    +0.000 OA
ATOM     30  C   UNL     1      44.387   6.414  24.009  0.00  0.00    +0.000 C 
ENDBRANCH  24  29
ENDBRANCH  18  19
ENDBRANCH   1  18
TORSDOF 8
ENDMDL
MODEL 10
REMARK VINA RESULT:      -7.4      2.095      8.545
REMARK  Name = 
REMARK  8 active torsions:
REMARK  status: ('A' for Active; 'I' for Inactive)
REMARK    1  A    between atoms: C_2  and  N_3
REMARK    2  A    between atoms: C_2  and  C_19
REMARK    3  A    between atoms: N_3  and  N_4
REMARK    4  A    between atoms: C_5  and  C_7
REMARK    5  A    between atoms: C_7  and  O_8
REMARK    6  A    between atoms: O_8  and  C_9
REMARK    7  A    between atoms: C_12  and  C_13
REMARK    8  A    between atoms: C_24  and  O_25
REMARK                            x       y       z     vdW  Elec       q    Type
REMARK                         _______ _______ _______ _____ _____    ______ ____
ROOT
ATOM      1  N   UNL     1      36.671   3.721  16.649  0.00  0.00    +0.000 NA
ENDROOT
BRANCH   1   2
ATOM      2  N   UNL     1      36.688   2.326  16.980  0.00  0.00    +0.000 NA
ATOM      3  C   UNL     1      35.456   1.593  16.916  0.00  0.00    +0.000 C 
ATOM      4  O   UNL     1      34.452   2.303  16.546  0.00  0.00    +0.000 OA
BRANCH   3   5
ATOM      5  C   UNL     1      35.227   0.204  17.213  0.00  0.00    +0.000 C 
BRANCH   5   6
ATOM      6  O   UNL     1      35.910  -0.792  16.688  0.00  0.00    +0.000 OA
BRANCH   6   7
ATOM      7  C   UNL     1      36.919  -1.031  15.839  0.00  0.00    +0.000 A 
ATOM      8  C   UNL     1      36.813  -0.875  14.489  0.00  0.00    +0.000 A 
ATOM      9  C   UNL     1      37.855  -1.127  13.622  0.00  0.00    +0.000 A 
ATOM     10  C   UNL     1      39.059  -1.555  14.130  0.00  0.00    +0.000 A 
ATOM     11  C   UNL     1      39.163  -1.711  15.491  0.00  0.00    +0.000 A 
ATOM     12  C   UNL     1      38.159  -1.471  16.365  0.00  0.00    +0.000 A 
BRANCH  10  13
ATOM     13  C   UNL     1      40.251  -1.871  13.309  0.00  0.00    +0.000 C 
ATOM     14  C   UNL     1      40.830  -0.524  12.848  0.00  0.00    +0.000 C 
ATOM     15  C   UNL     1      41.260  -2.661  14.078  0.00  0.00    +0.000 C 
ATOM     16  C   UNL     1      39.791  -2.606  12.055  0.00  0.00    +0.000 C 
ENDBRANCH  10  13
ENDBRANCH   6   7
ENDBRANCH   5   6
ENDBRANCH   3   5
ENDBRANCH   1   2
BRANCH   1  18
ATOM     17  C   UNL     1      38.070   3.950  14.789  0.00  0.00    +0.000 C 
ATOM     18  C   UNL     1      37.912   4.220  16.075  0.00  0.00    +0.000 C 
BRANCH  18  19
ATOM     19  C   UNL     1      38.879   4.903  16.912  0.00  0.00    +0.000 A 
ATOM     20  C   UNL     1      38.638   5.093  18.276  0.00  0.00    +0.000 A 
ATOM     21  C   UNL     1      39.501   5.741  19.121  0.00  0.00    +0.000 A 
ATOM     22  C   UNL     1      40.698   6.255  18.639  0.00  0.00    +0.000 A 
ATOM     23  C   UNL     1      41.594   6.907  19.445  0.00  0.00    +0.000 A 
ATOM     24  C   UNL     1      42.783   7.414  18.989  0.00  0.00    +0.000 A 
ATOM     25  C   UNL     1      43.038   7.228  17.636  0.00  0.00    +0.000 A 
ATOM     26  C   UNL     1      42.147   6.578  16.814  0.00  0.00    +0.000 A 
ATOM     27  C   UNL     1      40.954   6.077  17.291  0.00  0.00    +0.000 A 
ATOM     28  C   UNL     1      40.068   5.417  16.446  0.00  0.00    +0.000 A 
BRANCH  24  29
ATOM     29  O   UNL     1      43.692   8.075  19.816  0.00  0.00    +0.000 OA
ATOM     30  C   UNL     1      43.551   9.441  20.103  0.00  0.00    +0.000 C 
ENDBRANCH  24  29
ENDBRANCH  18  19
ENDBRANCH   1  18
TORSDOF 8
ENDMDL
