MODEL 1
REMARK VINA RESULT:      -6.3      0.000      0.000
REMARK  Name = 
REMARK  4 active torsions:
REMARK  status: ('A' for Active; 'I' for Inactive)
REMARK    1  A    between atoms: C_2  and  C_3
REMARK    2  A    between atoms: C_3  and  N_4
REMARK    3  A    between atoms: N_4  and  C_5
REMARK    4  A    between atoms: N_12  and  N_13
REMARK                            x       y       z     vdW  Elec       q    Type
REMARK                         _______ _______ _______ _____ _____    ______ ____
ROOT
ATOM      1  O   UNL     1      29.738  24.187  20.902  0.00  0.00    +0.000 OA
ATOM      2  C   UNL     1      28.945  25.118  21.191  0.00  0.00    +0.000 C 
ATOM      3  N   UNL     1      29.129  26.355  20.525  0.00  0.00    +0.000 NA
ENDROOT
BRANCH   3   4
ATOM      4  N   UNL     1      30.161  26.489  19.594  0.00  0.00    +0.000 NA
ATOM      5  C   UNL     1      30.366  27.585  18.951  0.00  0.00    +0.000 C 
ATOM      6  C   UNL     1      29.544  28.809  19.121  0.00  0.00    +0.000 C 
ATOM      7  C   UNL     1      29.262  29.363  17.755  0.00  0.00    +0.000 C 
ATOM      8  C   UNL     1      30.501  29.722  17.001  0.00  0.00    +0.000 C 
ATOM      9  C   UNL     1      31.739  29.037  17.486  0.00  0.00    +0.000 C 
ATOM     10  C   UNL     1      31.489  27.632  17.982  0.00  0.00    +0.000 C 
ENDBRANCH   3   4
BRANCH   2  11
ATOM     11  C   UNL     1      27.844  24.928  22.202  0.00  0.00    +0.000 C 
BRANCH  11  12
ATOM     12  N   UNL     1      27.865  23.564  22.621  0.00  0.00    +0.000 NA
BRANCH  12  13
ATOM     13  C   UNL     1      28.369  23.160  23.896  0.00  0.00    +0.000 A 
ATOM     14  C   UNL     1      27.559  23.079  25.009  0.00  0.00    +0.000 A 
ATOM     15  C   UNL     1      28.052  22.688  26.237  0.00  0.00    +0.000 A 
ATOM     16  C   UNL     1      29.378  22.358  26.415  0.00  0.00    +0.000 A 
ATOM     17  F   UNL     1      29.885  21.972  27.612  0.00  0.00    +0.000 F 
ATOM     18  C   UNL     1      30.189  22.439  25.303  0.00  0.00    +0.000 A 
ATOM     19  C   UNL     1      29.697  22.830  24.074  0.00  0.00    +0.000 A 
ENDBRANCH  12  13
ENDBRANCH  11  12
ENDBRANCH   2  11
TORSDOF 4
ENDMDL
MODEL 2
REMARK VINA RESULT:      -6.3     27.498     31.074
REMARK  Name = 
REMARK  4 active torsions:
REMARK  status: ('A' for Active; 'I' for Inactive)
REMARK    1  A    between atoms: C_2  and  C_3
REMARK    2  A    between atoms: C_3  and  N_4
REMARK    3  A    between atoms: N_4  and  C_5
REMARK    4  A    between atoms: N_12  and  N_13
REMARK                            x       y       z     vdW  Elec       q    Type
REMARK                         _______ _______ _______ _____ _____    ______ ____
ROOT
ATOM      1  O   UNL     1      33.284  -5.164  34.502  0.00  0.00    +0.000 OA
ATOM      2  C   UNL     1      33.353  -4.208  33.690  0.00  0.00    +0.000 C 
ATOM      3  N   UNL     1      33.672  -4.523  32.346  0.00  0.00    +0.000 NA
ENDROOT
BRANCH   3   4
ATOM      4  N   UNL     1      33.892  -5.854  31.984  0.00  0.00    +0.000 NA
ATOM      5  C   UNL     1      34.123  -6.203  30.766  0.00  0.00    +0.000 C 
ATOM      6  C   UNL     1      34.180  -5.251  29.629  0.00  0.00    +0.000 C 
ATOM      7  C   UNL     1      33.421  -5.857  28.486  0.00  0.00    +0.000 C 
ATOM      8  C   UNL     1      33.983  -7.168  28.039  0.00  0.00    +0.000 C 
ATOM      9  C   UNL     1      34.825  -7.859  29.063  0.00  0.00    +0.000 C 
ATOM     10  C   UNL     1      34.345  -7.642  30.479  0.00  0.00    +0.000 C 
ENDBRANCH   3   4
BRANCH   2  11
ATOM     11  C   UNL     1      33.107  -2.787  34.126  0.00  0.00    +0.000 C 
BRANCH  11  12
ATOM     12  N   UNL     1      33.820  -1.926  33.239  0.00  0.00    +0.000 NA
BRANCH  12  13
ATOM     13  C   UNL     1      33.769  -0.502  33.344  0.00  0.00    +0.000 A 
ATOM     14  C   UNL     1      33.230   0.129  34.446  0.00  0.00    +0.000 A 
ATOM     15  C   UNL     1      33.184   1.505  34.542  0.00  0.00    +0.000 A 
ATOM     16  C   UNL     1      33.674   2.319  33.544  0.00  0.00    +0.000 A 
ATOM     17  F   UNL     1      33.640   3.672  33.616  0.00  0.00    +0.000 F 
ATOM     18  C   UNL     1      34.213   1.689  32.442  0.00  0.00    +0.000 A 
ATOM     19  C   UNL     1      34.259   0.313  32.345  0.00  0.00    +0.000 A 
ENDBRANCH  12  13
ENDBRANCH  11  12
ENDBRANCH   2  11
TORSDOF 4
ENDMDL
MODEL 3
REMARK VINA RESULT:      -6.2     22.416     23.793
REMARK  Name = 
REMARK  4 active torsions:
REMARK  status: ('A' for Active; 'I' for Inactive)
REMARK    1  A    between atoms: C_2  and  C_3
REMARK    2  A    between atoms: C_3  and  N_4
REMARK    3  A    between atoms: N_4  and  C_5
REMARK    4  A    between atoms: N_12  and  N_13
REMARK                            x       y       z     vdW  Elec       q    Type
REMARK                         _______ _______ _______ _____ _____    ______ ____
ROOT
ATOM      1  O   UNL     1      19.661   9.743  39.607  0.00  0.00    +0.000 OA
ATOM      2  C   UNL     1      19.189  10.069  38.489  0.00  0.00    +0.000 C 
ATOM      3  N   UNL     1      19.987  10.905  37.669  0.00  0.00    +0.000 NA
ENDROOT
BRANCH   3   4
ATOM      4  N   UNL     1      21.239  11.324  38.124  0.00  0.00    +0.000 NA
ATOM      5  C   UNL     1      22.330  11.009  37.517  0.00  0.00    +0.000 C 
ATOM      6  C   UNL     1      22.381  10.179  36.287  0.00  0.00    +0.000 C 
ATOM      7  C   UNL     1      23.495   9.188  36.452  0.00  0.00    +0.000 C 
ATOM      8  C   UNL     1      24.830   9.832  36.649  0.00  0.00    +0.000 C 
ATOM      9  C   UNL     1      24.766  11.245  37.136  0.00  0.00    +0.000 C 
ATOM     10  C   UNL     1      23.612  11.502  38.077  0.00  0.00    +0.000 C 
ENDBRANCH   3   4
BRANCH   2  11
ATOM     11  C   UNL     1      17.833   9.592  38.039  0.00  0.00    +0.000 C 
BRANCH  11  12
ATOM     12  N   UNL     1      17.152  10.699  37.449  0.00  0.00    +0.000 NA
BRANCH  12  13
ATOM     13  C   UNL     1      16.892  10.782  36.046  0.00  0.00    +0.000 A 
ATOM     14  C   UNL     1      17.656  10.101  35.122  0.00  0.00    +0.000 A 
ATOM     15  C   UNL     1      17.401  10.185  33.768  0.00  0.00    +0.000 A 
ATOM     16  C   UNL     1      16.369  10.952  33.270  0.00  0.00    +0.000 A 
ATOM     17  F   UNL     1      16.099  11.049  31.946  0.00  0.00    +0.000 F 
ATOM     18  C   UNL     1      15.605  11.632  34.195  0.00  0.00    +0.000 A 
ATOM     19  C   UNL     1      15.860  11.550  35.548  0.00  0.00    +0.000 A 
ENDBRANCH  12  13
ENDBRANCH  11  12
ENDBRANCH   2  11
TORSDOF 4
ENDMDL
MODEL 4
REMARK VINA RESULT:      -6.2     22.990     25.779
REMARK  Name = 
REMARK  4 active torsions:
REMARK  status: ('A' for Active; 'I' for Inactive)
REMARK    1  A    between atoms: C_2  and  C_3
REMARK    2  A    between atoms: C_3  and  N_4
REMARK    3  A    between atoms: N_4  and  C_5
REMARK    4  A    between atoms: N_12  and  N_13
REMARK                            x       y       z     vdW  Elec       q    Type
REMARK                         _______ _______ _______ _____ _____    ______ ____
ROOT
ATOM      1  O   UNL     1      19.254   9.589  36.514  0.00  0.00    +0.000 OA
ATOM      2  C   UNL     1      18.212   9.762  37.194  0.00  0.00    +0.000 C 
ATOM      3  N   UNL     1      16.990   9.880  36.487  0.00  0.00    +0.000 NA
ENDROOT
BRANCH   3   4
ATOM      4  N   UNL     1      16.991   9.803  35.092  0.00  0.00    +0.000 NA
ATOM      5  C   UNL     1      16.508  10.740  34.354  0.00  0.00    +0.000 C 
ATOM      6  C   UNL     1      15.906  11.987  34.889  0.00  0.00    +0.000 C 
ATOM      7  C   UNL     1      14.647  12.253  34.117  0.00  0.00    +0.000 C 
ATOM      8  C   UNL     1      14.883  12.428  32.651  0.00  0.00    +0.000 C 
ATOM      9  C   UNL     1      16.165  11.837  32.159  0.00  0.00    +0.000 C 
ATOM     10  C   UNL     1      16.555  10.568  32.881  0.00  0.00    +0.000 C 
ENDBRANCH   3   4
BRANCH   2  11
ATOM     11  C   UNL     1      18.259   9.838  38.698  0.00  0.00    +0.000 C 
BRANCH  11  12
ATOM     12  N   UNL     1      19.013   8.724  39.171  0.00  0.00    +0.000 NA
BRANCH  12  13
ATOM     13  C   UNL     1      18.452   7.722  40.022  0.00  0.00    +0.000 A 
ATOM     14  C   UNL     1      17.337   7.963  40.795  0.00  0.00    +0.000 A 
ATOM     15  C   UNL     1      16.799   6.990  41.614  0.00  0.00    +0.000 A 
ATOM     16  C   UNL     1      17.349   5.729  41.701  0.00  0.00    +0.000 A 
ATOM     17  F   UNL     1      16.839   4.759  42.499  0.00  0.00    +0.000 F 
ATOM     18  C   UNL     1      18.464   5.488  40.928  0.00  0.00    +0.000 A 
ATOM     19  C   UNL     1      19.003   6.459  40.109  0.00  0.00    +0.000 A 
ENDBRANCH  12  13
ENDBRANCH  11  12
ENDBRANCH   2  11
TORSDOF 4
ENDMDL
MODEL 5
REMARK VINA RESULT:      -6.1      3.957      8.724
REMARK  Name = 
REMARK  4 active torsions:
REMARK  status: ('A' for Active; 'I' for Inactive)
REMARK    1  A    between atoms: C_2  and  C_3
REMARK    2  A    between atoms: C_3  and  N_4
REMARK    3  A    between atoms: N_4  and  C_5
REMARK    4  A    between atoms: N_12  and  N_13
REMARK                            x       y       z     vdW  Elec       q    Type
REMARK                         _______ _______ _______ _____ _____    ______ ____
ROOT
ATOM      1  O   UNL     1      28.122  26.609  21.419  0.00  0.00    +0.000 OA
ATOM      2  C   UNL     1      29.225  26.418  20.849  0.00  0.00    +0.000 C 
ATOM      3  N   UNL     1      29.830  25.148  21.019  0.00  0.00    +0.000 NA
ENDROOT
BRANCH   3   4
ATOM      4  N   UNL     1      29.192  24.180  21.798  0.00  0.00    +0.000 NA
ATOM      5  C   UNL     1      29.578  23.898  22.993  0.00  0.00    +0.000 C 
ATOM      6  C   UNL     1      30.725  24.556  23.668  0.00  0.00    +0.000 C 
ATOM      7  C   UNL     1      31.527  23.488  24.351  0.00  0.00    +0.000 C 
ATOM      8  C   UNL     1      30.743  22.729  25.374  0.00  0.00    +0.000 C 
ATOM      9  C   UNL     1      29.260  22.803  25.193  0.00  0.00    +0.000 C 
ATOM     10  C   UNL     1      28.836  22.855  23.743  0.00  0.00    +0.000 C 
ENDBRANCH   3   4
BRANCH   2  11
ATOM     11  C   UNL     1      29.877  27.492  20.017  0.00  0.00    +0.000 C 
BRANCH  11  12
ATOM     12  N   UNL     1      30.452  26.870  18.869  0.00  0.00    +0.000 NA
BRANCH  12  13
ATOM     13  C   UNL     1      30.395  27.458  17.568  0.00  0.00    +0.000 A 
ATOM     14  C   UNL     1      31.056  28.630  17.267  0.00  0.00    +0.000 A 
ATOM     15  C   UNL     1      30.997  29.192  16.008  0.00  0.00    +0.000 A 
ATOM     16  C   UNL     1      30.276  28.612  14.986  0.00  0.00    +0.000 A 
ATOM     17  F   UNL     1      30.203  29.146  13.743  0.00  0.00    +0.000 F 
ATOM     18  C   UNL     1      29.615  27.440  15.287  0.00  0.00    +0.000 A 
ATOM     19  C   UNL     1      29.672  26.877  16.545  0.00  0.00    +0.000 A 
ENDBRANCH  12  13
ENDBRANCH  11  12
ENDBRANCH   2  11
TORSDOF 4
ENDMDL
MODEL 6
REMARK VINA RESULT:      -6.0      1.697      1.955
REMARK  Name = 
REMARK  4 active torsions:
REMARK  status: ('A' for Active; 'I' for Inactive)
REMARK    1  A    between atoms: C_2  and  C_3
REMARK    2  A    between atoms: C_3  and  N_4
REMARK    3  A    between atoms: N_4  and  C_5
REMARK    4  A    between atoms: N_12  and  N_13
REMARK                            x       y       z     vdW  Elec       q    Type
REMARK                         _______ _______ _______ _____ _____    ______ ____
ROOT
ATOM      1  O   UNL     1      29.520  27.711  20.892  0.00  0.00    +0.000 OA
ATOM      2  C   UNL     1      29.418  26.537  20.456  0.00  0.00    +0.000 C 
ATOM      3  N   UNL     1      30.091  26.235  19.247  0.00  0.00    +0.000 NA
ENDROOT
BRANCH   3   4
ATOM      4  N   UNL     1      30.825  27.232  18.600  0.00  0.00    +0.000 NA
ATOM      5  C   UNL     1      30.428  27.770  17.500  0.00  0.00    +0.000 C 
ATOM      6  C   UNL     1      29.169  27.400  16.806  0.00  0.00    +0.000 C 
ATOM      7  C   UNL     1      29.472  27.283  15.341  0.00  0.00    +0.000 C 
ATOM      8  C   UNL     1      29.989  28.554  14.746  0.00  0.00    +0.000 C 
ATOM      9  C   UNL     1      30.570  29.508  15.740  0.00  0.00    +0.000 C 
ATOM     10  C   UNL     1      31.276  28.822  16.887  0.00  0.00    +0.000 C 
ENDBRANCH   3   4
BRANCH   2  11
ATOM     11  C   UNL     1      28.616  25.494  21.189  0.00  0.00    +0.000 C 
BRANCH  11  12
ATOM     12  N   UNL     1      29.530  24.566  21.772  0.00  0.00    +0.000 NA
BRANCH  12  13
ATOM     13  C   UNL     1      29.283  23.929  23.026  0.00  0.00    +0.000 A 
ATOM     14  C   UNL     1      28.004  23.694  23.486  0.00  0.00    +0.000 A 
ATOM     15  C   UNL     1      27.772  23.077  24.699  0.00  0.00    +0.000 A 
ATOM     16  C   UNL     1      28.805  22.664  25.513  0.00  0.00    +0.000 A 
ATOM     17  F   UNL     1      28.601  22.058  26.708  0.00  0.00    +0.000 F 
ATOM     18  C   UNL     1      30.083  22.899  25.054  0.00  0.00    +0.000 A 
ATOM     19  C   UNL     1      30.317  23.516  23.841  0.00  0.00    +0.000 A 
ENDBRANCH  12  13
ENDBRANCH  11  12
ENDBRANCH   2  11
TORSDOF 4
ENDMDL
MODEL 7
REMARK VINA RESULT:      -6.0     11.955     12.608
REMARK  Name = 
REMARK  4 active torsions:
REMARK  status: ('A' for Active; 'I' for Inactive)
REMARK    1  A    between atoms: C_2  and  C_3
REMARK    2  A    between atoms: C_3  and  N_4
REMARK    3  A    between atoms: N_4  and  C_5
REMARK    4  A    between atoms: N_12  and  N_13
REMARK                            x       y       z     vdW  Elec       q    Type
REMARK                         _______ _______ _______ _____ _____    ______ ____
ROOT
ATOM      1  O   UNL     1      36.984  18.553  10.949  0.00  0.00    +0.000 OA
ATOM      2  C   UNL     1      36.599  18.930  12.084  0.00  0.00    +0.000 C 
ATOM      3  N   UNL     1      35.338  19.571  12.160  0.00  0.00    +0.000 NA
ENDROOT
BRANCH   3   4
ATOM      4  N   UNL     1      34.588  19.756  10.996  0.00  0.00    +0.000 NA
ATOM      5  C   UNL     1      33.393  20.235  11.020  0.00  0.00    +0.000 C 
ATOM      6  C   UNL     1      32.689  20.638  12.263  0.00  0.00    +0.000 C 
ATOM      7  C   UNL     1      31.283  20.118  12.180  0.00  0.00    +0.000 C 
ATOM      8  C   UNL     1      30.528  20.656  11.007  0.00  0.00    +0.000 C 
ATOM      9  C   UNL     1      31.391  21.173   9.902  0.00  0.00    +0.000 C 
ATOM     10  C   UNL     1      32.675  20.395   9.731  0.00  0.00    +0.000 C 
ENDBRANCH   3   4
BRANCH   2  11
ATOM     11  C   UNL     1      37.442  18.708  13.313  0.00  0.00    +0.000 C 
BRANCH  11  12
ATOM     12  N   UNL     1      36.576  18.723  14.447  0.00  0.00    +0.000 NA
BRANCH  12  13
ATOM     13  C   UNL     1      36.453  17.608  15.333  0.00  0.00    +0.000 A 
ATOM     14  C   UNL     1      37.278  17.451  16.426  0.00  0.00    +0.000 A 
ATOM     15  C   UNL     1      37.154  16.372  17.279  0.00  0.00    +0.000 A 
ATOM     16  C   UNL     1      36.198  15.398  17.082  0.00  0.00    +0.000 A 
ATOM     17  F   UNL     1      36.058  14.330  17.905  0.00  0.00    +0.000 F 
ATOM     18  C   UNL     1      35.373  15.556  15.989  0.00  0.00    +0.000 A 
ATOM     19  C   UNL     1      35.497  16.633  15.136  0.00  0.00    +0.000 A 
ENDBRANCH  12  13
ENDBRANCH  11  12
ENDBRANCH   2  11
TORSDOF 4
ENDMDL
MODEL 8
REMARK VINA RESULT:      -5.9      3.868      6.770
REMARK  Name = 
REMARK  4 active torsions:
REMARK  status: ('A' for Active; 'I' for Inactive)
REMARK    1  A    between atoms: C_2  and  C_3
REMARK    2  A    between atoms: C_3  and  N_4
REMARK    3  A    between atoms: N_4  and  C_5
REMARK    4  A    between atoms: N_12  and  N_13
REMARK                            x       y       z     vdW  Elec       q    Type
REMARK                         _______ _______ _______ _____ _____    ______ ____
ROOT
ATOM      1  O   UNL     1      29.924  25.788  23.283  0.00  0.00    +0.000 OA
ATOM      2  C   UNL     1      29.636  24.667  22.794  0.00  0.00    +0.000 C 
ATOM      3  N   UNL     1      30.225  23.527  23.395  0.00  0.00    +0.000 NA
ENDROOT
BRANCH   3   4
ATOM      4  N   UNL     1      31.084  23.690  24.485  0.00  0.00    +0.000 NA
ATOM      5  C   UNL     1      30.816  23.205  25.647  0.00  0.00    +0.000 C 
ATOM      6  C   UNL     1      29.586  22.433  25.957  0.00  0.00    +0.000 C 
ATOM      7  C   UNL     1      29.054  22.929  27.269  0.00  0.00    +0.000 C 
ATOM      8  C   UNL     1      30.022  22.758  28.396  0.00  0.00    +0.000 C 
ATOM      9  C   UNL     1      31.447  22.614  27.968  0.00  0.00    +0.000 C 
ATOM     10  C   UNL     1      31.790  23.429  26.743  0.00  0.00    +0.000 C 
ENDBRANCH   3   4
BRANCH   2  11
ATOM     11  C   UNL     1      28.704  24.539  21.617  0.00  0.00    +0.000 C 
BRANCH  11  12
ATOM     12  N   UNL     1      27.411  24.981  22.032  0.00  0.00    +0.000 NA
BRANCH  12  13
ATOM     13  C   UNL     1      26.857  24.644  23.305  0.00  0.00    +0.000 A 
ATOM     14  C   UNL     1      26.565  23.341  23.652  0.00  0.00    +0.000 A 
ATOM     15  C   UNL     1      26.030  23.022  24.884  0.00  0.00    +0.000 A 
ATOM     16  C   UNL     1      25.760  23.987  25.830  0.00  0.00    +0.000 A 
ATOM     17  F   UNL     1      25.235  23.698  27.046  0.00  0.00    +0.000 F 
ATOM     18  C   UNL     1      26.052  25.290  25.484  0.00  0.00    +0.000 A 
ATOM     19  C   UNL     1      26.586  25.610  24.252  0.00  0.00    +0.000 A 
ENDBRANCH  12  13
ENDBRANCH  11  12
ENDBRANCH   2  11
TORSDOF 4
ENDMDL
MODEL 9
REMARK VINA RESULT:      -5.8     29.531     32.305
REMARK  Name = 
REMARK  4 active torsions:
REMARK  status: ('A' for Active; 'I' for Inactive)
REMARK    1  A    between atoms: C_2  and  C_3
REMARK    2  A    between atoms: C_3  and  N_4
REMARK    3  A    between atoms: N_4  and  C_5
REMARK    4  A    between atoms: N_12  and  N_13
REMARK                            x       y       z     vdW  Elec       q    Type
REMARK                         _______ _______ _______ _____ _____    ______ ____
ROOT
ATOM      1  O   UNL     1      32.569  -6.777  33.823  0.00  0.00    +0.000 OA
ATOM      2  C   UNL     1      33.555  -6.011  33.966  0.00  0.00    +0.000 C 
ATOM      3  N   UNL     1      34.654  -6.200  33.091  0.00  0.00    +0.000 NA
ENDROOT
BRANCH   3   4
ATOM      4  N   UNL     1      34.600  -7.207  32.126  0.00  0.00    +0.000 NA
ATOM      5  C   UNL     1      34.571  -6.947  30.865  0.00  0.00    +0.000 C 
ATOM      6  C   UNL     1      34.590  -5.573  30.304  0.00  0.00    +0.000 C 
ATOM      7  C   UNL     1      33.568  -5.513  29.207  0.00  0.00    +0.000 C 
ATOM      8  C   UNL     1      33.837  -6.484  28.102  0.00  0.00    +0.000 C 
ATOM      9  C   UNL     1      34.716  -7.629  28.488  0.00  0.00    +0.000 C 
ATOM     10  C   UNL     1      34.515  -8.085  29.915  0.00  0.00    +0.000 C 
ENDBRANCH   3   4
BRANCH   2  11
ATOM     11  C   UNL     1      33.569  -4.937  35.022  0.00  0.00    +0.000 C 
BRANCH  11  12
ATOM     12  N   UNL     1      32.510  -4.025  34.734  0.00  0.00    +0.000 NA
BRANCH  12  13
ATOM     13  C   UNL     1      32.739  -2.639  34.472  0.00  0.00    +0.000 A 
ATOM     14  C   UNL     1      33.665  -2.217  33.541  0.00  0.00    +0.000 A 
ATOM     15  C   UNL     1      33.882  -0.877  33.292  0.00  0.00    +0.000 A 
ATOM     16  C   UNL     1      33.185   0.108  33.958  0.00  0.00    +0.000 A 
ATOM     17  F   UNL     1      33.382   1.430  33.730  0.00  0.00    +0.000 F 
ATOM     18  C   UNL     1      32.259  -0.314  34.889  0.00  0.00    +0.000 A 
ATOM     19  C   UNL     1      32.042  -1.654  35.140  0.00  0.00    +0.000 A 
ENDBRANCH  12  13
ENDBRANCH  11  12
ENDBRANCH   2  11
TORSDOF 4
ENDMDL
MODEL 10
REMARK VINA RESULT:      -5.8      5.052      8.234
REMARK  Name = 
REMARK  4 active torsions:
REMARK  status: ('A' for Active; 'I' for Inactive)
REMARK    1  A    between atoms: C_2  and  C_3
REMARK    2  A    between atoms: C_3  and  N_4
REMARK    3  A    between atoms: N_4  and  C_5
REMARK    4  A    between atoms: N_12  and  N_13
REMARK                            x       y       z     vdW  Elec       q    Type
REMARK                         _______ _______ _______ _____ _____    ______ ____
ROOT
ATOM      1  O   UNL     1      31.263  24.165  26.627  0.00  0.00    +0.000 OA
ATOM      2  C   UNL     1      30.946  23.172  25.925  0.00  0.00    +0.000 C 
ATOM      3  N   UNL     1      30.166  22.165  26.544  0.00  0.00    +0.000 NA
ENDROOT
BRANCH   3   4
ATOM      4  N   UNL     1      29.787  22.310  27.880  0.00  0.00    +0.000 NA
ATOM      5  C   UNL     1      28.570  22.544  28.226  0.00  0.00    +0.000 C 
ATOM      6  C   UNL     1      27.449  22.683  27.262  0.00  0.00    +0.000 C 
ATOM      7  C   UNL     1      26.624  23.862  27.688  0.00  0.00    +0.000 C 
ATOM      8  C   UNL     1      26.055  23.713  29.063  0.00  0.00    +0.000 C 
ATOM      9  C   UNL     1      26.775  22.725  29.924  0.00  0.00    +0.000 C 
ATOM     10  C   UNL     1      28.264  22.683  29.671  0.00  0.00    +0.000 C 
ENDBRANCH   3   4
BRANCH   2  11
ATOM     11  C   UNL     1      31.377  23.058  24.486  0.00  0.00    +0.000 C 
BRANCH  11  12
ATOM     12  N   UNL     1      30.652  24.029  23.732  0.00  0.00    +0.000 NA
BRANCH  12  13
ATOM     13  C   UNL     1      29.234  24.174  23.830  0.00  0.00    +0.000 A 
ATOM     14  C   UNL     1      28.371  23.166  23.454  0.00  0.00    +0.000 A 
ATOM     15  C   UNL     1      27.001  23.313  23.551  0.00  0.00    +0.000 A 
ATOM     16  C   UNL     1      26.427  24.471  24.028  0.00  0.00    +0.000 A 
ATOM     17  F   UNL     1      25.086  24.637  24.132  0.00  0.00    +0.000 F 
ATOM     18  C   UNL     1      27.290  25.479  24.404  0.00  0.00    +0.000 A 
ATOM     19  C   UNL     1      28.659  25.334  24.307  0.00  0.00    +0.000 A 
ENDBRANCH  12  13
ENDBRANCH  11  12
ENDBRANCH   2  11
TORSDOF 4
ENDMDL
