MODEL 1
REMARK VINA RESULT:      -8.1      0.000      0.000
REMARK  Name = 
REMARK  2 active torsions:
REMARK  status: ('A' for Active; 'I' for Inactive)
REMARK    1  A    between atoms: O_2  and  C_3
REMARK    2  A    between atoms: C_7  and  C_8
REMARK                            x       y       z     vdW  Elec       q    Type
REMARK                         _______ _______ _______ _____ _____    ______ ____
ROOT
ATOM      1  C   UNL     1      16.764   9.930  36.198  0.00  0.00    +0.000 C 
ATOM      2  N   UNL     1      17.756  10.089  34.956  0.00  0.00    +0.000 NA
ATOM      3  C   UNL     1      17.112  10.530  33.773  0.00  0.00    +0.000 C 
ATOM      4  O   UNL     1      17.487  10.002  32.699  0.00  0.00    +0.000 OA
ATOM      5  C   UNL     1      16.048  11.567  33.826  0.00  0.00    +0.000 A 
ATOM      6  C   UNL     1      15.793  12.008  35.098  0.00  0.00    +0.000 A 
ATOM      7  S   UNL     1      14.555  13.176  34.826  0.00  0.00    +0.000 S 
ATOM      8  C   UNL     1      14.415  13.057  33.129  0.00  0.00    +0.000 A 
ATOM      9  C   UNL     1      15.348  12.099  32.824  0.00  0.00    +0.000 A 
ATOM     10  C   UNL     1      15.398  11.826  31.328  0.00  0.00    +0.000 C 
ATOM     11  C   UNL     1      15.599  13.168  30.689  0.00  0.00    +0.000 C 
ATOM     12  C   UNL     1      14.504  14.141  30.956  0.00  0.00    +0.000 C 
ATOM     13  C   UNL     1      13.574  13.717  32.060  0.00  0.00    +0.000 C 
ATOM     14  N   UNL     1      16.487  11.512  36.256  0.00  0.00    +0.000 NA
ENDROOT
BRANCH   1  19
ATOM     15  C   UNL     1      20.153   9.811  38.077  0.00  0.00    +0.000 A 
ATOM     16  C   UNL     1      19.695   9.899  39.370  0.00  0.00    +0.000 A 
ATOM     17  C   UNL     1      18.352   9.995  39.675  0.00  0.00    +0.000 A 
ATOM     18  C   UNL     1      17.411  10.002  38.610  0.00  0.00    +0.000 A 
ATOM     19  C   UNL     1      17.862   9.916  37.332  0.00  0.00    +0.000 A 
ATOM     20  C   UNL     1      19.170   9.824  37.068  0.00  0.00    +0.000 A 
BRANCH  15  22
ATOM     21  C   UNL     1      22.401  10.416  38.608  0.00  0.00    +0.000 C 
ATOM     22  O   UNL     1      21.502   9.715  37.770  0.00  0.00    +0.000 OA
ENDBRANCH  15  22
ENDBRANCH   1  19
TORSDOF 2
ENDMDL
MODEL 2
REMARK VINA RESULT:      -8.0      1.996      7.442
REMARK  Name = 
REMARK  2 active torsions:
REMARK  status: ('A' for Active; 'I' for Inactive)
REMARK    1  A    between atoms: O_2  and  C_3
REMARK    2  A    between atoms: C_7  and  C_8
REMARK                            x       y       z     vdW  Elec       q    Type
REMARK                         _______ _______ _______ _____ _____    ______ ____
ROOT
ATOM      1  C   UNL     1      16.963  11.695  34.743  0.00  0.00    +0.000 C 
ATOM      2  N   UNL     1      17.725  10.295  34.641  0.00  0.00    +0.000 NA
ATOM      3  C   UNL     1      18.243   9.843  35.880  0.00  0.00    +0.000 C 
ATOM      4  O   UNL     1      19.376   9.302  35.852  0.00  0.00    +0.000 OA
ATOM      5  C   UNL     1      17.470  10.012  37.138  0.00  0.00    +0.000 A 
ATOM      6  C   UNL     1      16.260  10.628  36.943  0.00  0.00    +0.000 A 
ATOM      7  S   UNL     1      15.621  10.666  38.543  0.00  0.00    +0.000 S 
ATOM      8  C   UNL     1      16.900   9.907  39.383  0.00  0.00    +0.000 A 
ATOM      9  C   UNL     1      17.796   9.646  38.377  0.00  0.00    +0.000 A 
ATOM     10  C   UNL     1      19.043   8.954  38.908  0.00  0.00    +0.000 C 
ATOM     11  C   UNL     1      18.540   7.763  39.668  0.00  0.00    +0.000 C 
ATOM     12  C   UNL     1      17.659   8.102  40.820  0.00  0.00    +0.000 C 
ATOM     13  C   UNL     1      17.183   9.528  40.818  0.00  0.00    +0.000 C 
ATOM     14  N   UNL     1      15.798  11.063  35.653  0.00  0.00    +0.000 NA
ENDROOT
BRANCH   1  19
ATOM     15  C   UNL     1      14.513  12.381  31.818  0.00  0.00    +0.000 A 
ATOM     16  C   UNL     1      14.861  11.342  30.987  0.00  0.00    +0.000 A 
ATOM     17  C   UNL     1      15.844  10.429  31.314  0.00  0.00    +0.000 A 
ATOM     18  C   UNL     1      16.518  10.571  32.557  0.00  0.00    +0.000 A 
ATOM     19  C   UNL     1      16.176  11.596  33.379  0.00  0.00    +0.000 A 
ATOM     20  C   UNL     1      15.219  12.465  33.034  0.00  0.00    +0.000 A 
BRANCH  15  22
ATOM     21  C   UNL     1      13.846  14.667  31.649  0.00  0.00    +0.000 C 
ATOM     22  O   UNL     1      13.527  13.298  31.489  0.00  0.00    +0.000 OA
ENDBRANCH  15  22
ENDBRANCH   1  19
TORSDOF 2
ENDMDL
MODEL 3
REMARK VINA RESULT:      -6.9     18.796     20.181
REMARK  Name = 
REMARK  2 active torsions:
REMARK  status: ('A' for Active; 'I' for Inactive)
REMARK    1  A    between atoms: O_2  and  C_3
REMARK    2  A    between atoms: C_7  and  C_8
REMARK                            x       y       z     vdW  Elec       q    Type
REMARK                         _______ _______ _______ _____ _____    ______ ____
ROOT
ATOM      1  C   UNL     1      32.372   0.151  34.789  0.00  0.00    +0.000 C 
ATOM      2  N   UNL     1      33.279   0.747  33.616  0.00  0.00    +0.000 NA
ATOM      3  C   UNL     1      33.588   2.120  33.785  0.00  0.00    +0.000 C 
ATOM      4  O   UNL     1      33.572   2.831  32.751  0.00  0.00    +0.000 OA
ATOM      5  C   UNL     1      33.909   2.670  35.128  0.00  0.00    +0.000 A 
ATOM      6  C   UNL     1      33.868   1.722  36.118  0.00  0.00    +0.000 A 
ATOM      7  S   UNL     1      34.284   2.648  37.511  0.00  0.00    +0.000 S 
ATOM      8  C   UNL     1      34.492   4.181  36.787  0.00  0.00    +0.000 A 
ATOM      9  C   UNL     1      34.226   3.919  35.467  0.00  0.00    +0.000 A 
ATOM     10  C   UNL     1      34.355   5.173  34.614  0.00  0.00    +0.000 C 
ATOM     11  C   UNL     1      35.720   5.716  34.916  0.00  0.00    +0.000 C 
ATOM     12  C   UNL     1      35.925   6.091  36.343  0.00  0.00    +0.000 C 
ATOM     13  C   UNL     1      34.860   5.566  37.265  0.00  0.00    +0.000 C 
ATOM     14  N   UNL     1      33.544   0.343  35.873  0.00  0.00    +0.000 NA
ENDROOT
BRANCH   1  19
ATOM     15  C   UNL     1      32.306  -3.723  34.937  0.00  0.00    +0.000 A 
ATOM     16  C   UNL     1      33.224  -4.000  33.952  0.00  0.00    +0.000 A 
ATOM     17  C   UNL     1      33.868  -3.008  33.239  0.00  0.00    +0.000 A 
ATOM     18  C   UNL     1      33.567  -1.651  33.537  0.00  0.00    +0.000 A 
ATOM     19  C   UNL     1      32.659  -1.376  34.509  0.00  0.00    +0.000 A 
ATOM     20  C   UNL     1      32.052  -2.359  35.182  0.00  0.00    +0.000 A 
BRANCH  15  22
ATOM     21  C   UNL     1      31.172  -5.823  34.916  0.00  0.00    +0.000 C 
ATOM     22  O   UNL     1      31.659  -4.719  35.653  0.00  0.00    +0.000 OA
ENDBRANCH  15  22
ENDBRANCH   1  19
TORSDOF 2
ENDMDL
MODEL 4
REMARK VINA RESULT:      -6.8      5.615      7.501
REMARK  Name = 
REMARK  2 active torsions:
REMARK  status: ('A' for Active; 'I' for Inactive)
REMARK    1  A    between atoms: O_2  and  C_3
REMARK    2  A    between atoms: C_7  and  C_8
REMARK                            x       y       z     vdW  Elec       q    Type
REMARK                         _______ _______ _______ _____ _____    ______ ____
ROOT
ATOM      1  C   UNL     1      18.688  10.081  39.534  0.00  0.00    +0.000 C 
ATOM      2  N   UNL     1      18.870   9.238  38.189  0.00  0.00    +0.000 NA
ATOM      3  C   UNL     1      20.015   9.611  37.441  0.00  0.00    +0.000 C 
ATOM      4  O   UNL     1      19.883   9.649  36.193  0.00  0.00    +0.000 OA
ATOM      5  C   UNL     1      21.296   9.939  38.119  0.00  0.00    +0.000 A 
ATOM      6  C   UNL     1      21.220   9.836  39.484  0.00  0.00    +0.000 A 
ATOM      7  S   UNL     1      22.822  10.258  39.959  0.00  0.00    +0.000 S 
ATOM      8  C   UNL     1      23.513  10.543  38.424  0.00  0.00    +0.000 A 
ATOM      9  C   UNL     1      22.461  10.298  37.579  0.00  0.00    +0.000 A 
ATOM     10  C   UNL     1      22.858  10.495  36.124  0.00  0.00    +0.000 C 
ATOM     11  C   UNL     1      24.073   9.638  35.927  0.00  0.00    +0.000 C 
ATOM     12  C   UNL     1      25.229  10.013  36.788  0.00  0.00    +0.000 C 
ATOM     13  C   UNL     1      24.871  10.955  37.904  0.00  0.00    +0.000 C 
ATOM     14  N   UNL     1      20.021   9.453  40.178  0.00  0.00    +0.000 NA
ENDROOT
BRANCH   1  19
ATOM     15  C   UNL     1      17.064   6.926  41.095  0.00  0.00    +0.000 A 
ATOM     16  C   UNL     1      15.871   7.471  41.509  0.00  0.00    +0.000 A 
ATOM     17  C   UNL     1      15.557   8.801  41.314  0.00  0.00    +0.000 A 
ATOM     18  C   UNL     1      16.504   9.636  40.661  0.00  0.00    +0.000 A 
ATOM     19  C   UNL     1      17.683   9.100  40.252  0.00  0.00    +0.000 A 
ATOM     20  C   UNL     1      17.958   7.807  40.456  0.00  0.00    +0.000 A 
BRANCH  15  22
ATOM     21  C   UNL     1      17.376   5.120  42.625  0.00  0.00    +0.000 C 
ATOM     22  O   UNL     1      17.380   5.591  41.292  0.00  0.00    +0.000 OA
ENDBRANCH  15  22
ENDBRANCH   1  19
TORSDOF 2
ENDMDL
MODEL 5
REMARK VINA RESULT:      -6.5     21.747     23.436
REMARK  Name = 
REMARK  2 active torsions:
REMARK  status: ('A' for Active; 'I' for Inactive)
REMARK    1  A    between atoms: O_2  and  C_3
REMARK    2  A    between atoms: C_7  and  C_8
REMARK                            x       y       z     vdW  Elec       q    Type
REMARK                         _______ _______ _______ _____ _____    ______ ____
ROOT
ATOM      1  C   UNL     1      20.901  -8.399  24.787  0.00  0.00    +0.000 C 
ATOM      2  N   UNL     1      21.620  -8.940  26.107  0.00  0.00    +0.000 NA
ATOM      3  C   UNL     1      22.839  -9.616  25.848  0.00  0.00    +0.000 C 
ATOM      4  O   UNL     1      23.067 -10.643  26.533  0.00  0.00    +0.000 OA
ATOM      5  C   UNL     1      23.783  -9.118  24.814  0.00  0.00    +0.000 A 
ATOM      6  C   UNL     1      23.338  -7.984  24.185  0.00  0.00    +0.000 A 
ATOM      7  S   UNL     1      24.623  -7.664  23.083  0.00  0.00    +0.000 S 
ATOM      8  C   UNL     1      25.660  -8.966  23.462  0.00  0.00    +0.000 A 
ATOM      9  C   UNL     1      24.963  -9.618  24.448  0.00  0.00    +0.000 A 
ATOM     10  C   UNL     1      25.717 -10.841  24.948  0.00  0.00    +0.000 C 
ATOM     11  C   UNL     1      27.078 -10.336  25.328  0.00  0.00    +0.000 C 
ATOM     12  C   UNL     1      27.842  -9.737  24.199  0.00  0.00    +0.000 C 
ATOM     13  C   UNL     1      27.005  -9.459  22.982  0.00  0.00    +0.000 C 
ATOM     14  N   UNL     1      22.085  -7.351  24.499  0.00  0.00    +0.000 NA
ENDROOT
BRANCH   1  19
ATOM     15  C   UNL     1      17.855  -6.781  26.556  0.00  0.00    +0.000 A 
ATOM     16  C   UNL     1      18.335  -5.500  26.702  0.00  0.00    +0.000 A 
ATOM     17  C   UNL     1      19.589  -5.125  26.261  0.00  0.00    +0.000 A 
ATOM     18  C   UNL     1      20.410  -6.101  25.635  0.00  0.00    +0.000 A 
ATOM     19  C   UNL     1      19.938  -7.366  25.491  0.00  0.00    +0.000 A 
ATOM     20  C   UNL     1      18.718  -7.699  25.928  0.00  0.00    +0.000 A 
BRANCH  15  22
ATOM     21  C   UNL     1      15.894  -8.098  26.208  0.00  0.00    +0.000 C 
ATOM     22  O   UNL     1      16.596  -7.158  26.998  0.00  0.00    +0.000 OA
ENDBRANCH  15  22
ENDBRANCH   1  19
TORSDOF 2
ENDMDL
MODEL 6
REMARK VINA RESULT:      -6.5     20.498     22.219
REMARK  Name = 
REMARK  2 active torsions:
REMARK  status: ('A' for Active; 'I' for Inactive)
REMARK    1  A    between atoms: O_2  and  C_3
REMARK    2  A    between atoms: C_7  and  C_8
REMARK                            x       y       z     vdW  Elec       q    Type
REMARK                         _______ _______ _______ _____ _____    ______ ____
ROOT
ATOM      1  C   UNL     1      28.174  24.281  23.577  0.00  0.00    +0.000 C 
ATOM      2  N   UNL     1      29.430  24.140  22.600  0.00  0.00    +0.000 NA
ATOM      3  C   UNL     1      29.441  25.097  21.554  0.00  0.00    +0.000 C 
ATOM      4  O   UNL     1      29.809  24.690  20.425  0.00  0.00    +0.000 OA
ATOM      5  C   UNL     1      29.032  26.503  21.802  0.00  0.00    +0.000 A 
ATOM      6  C   UNL     1      28.665  26.732  23.103  0.00  0.00    +0.000 A 
ATOM      7  S   UNL     1      28.266  28.408  23.069  0.00  0.00    +0.000 S 
ATOM      8  C   UNL     1      28.578  28.745  21.424  0.00  0.00    +0.000 A 
ATOM      9  C   UNL     1      28.988  27.525  20.948  0.00  0.00    +0.000 A 
ATOM     10  C   UNL     1      29.327  27.592  19.466  0.00  0.00    +0.000 C 
ATOM     11  C   UNL     1      30.313  28.714  19.337  0.00  0.00    +0.000 C 
ATOM     12  C   UNL     1      29.787  30.040  19.762  0.00  0.00    +0.000 C 
ATOM     13  C   UNL     1      28.497  29.961  20.531  0.00  0.00    +0.000 C 
ATOM     14  N   UNL     1      28.677  25.710  24.115  0.00  0.00    +0.000 NA
ENDROOT
BRANCH   1  19
ATOM     15  C   UNL     1      28.563  22.412  26.951  0.00  0.00    +0.000 A 
ATOM     16  C   UNL     1      29.859  21.973  26.815  0.00  0.00    +0.000 A 
ATOM     17  C   UNL     1      30.619  22.245  25.695  0.00  0.00    +0.000 A 
ATOM     18  C   UNL     1      30.038  23.007  24.646  0.00  0.00    +0.000 A 
ATOM     19  C   UNL     1      28.758  23.441  24.778  0.00  0.00    +0.000 A 
ATOM     20  C   UNL     1      28.046  23.161  25.875  0.00  0.00    +0.000 A 
BRANCH  15  22
ATOM     21  C   UNL     1      28.272  22.643  29.309  0.00  0.00    +0.000 C 
ATOM     22  O   UNL     1      27.799  22.139  28.075  0.00  0.00    +0.000 OA
ENDBRANCH  15  22
ENDBRANCH   1  19
TORSDOF 2
ENDMDL
MODEL 7
REMARK VINA RESULT:      -6.5     22.503     25.380
REMARK  Name = 
REMARK  2 active torsions:
REMARK  status: ('A' for Active; 'I' for Inactive)
REMARK    1  A    between atoms: O_2  and  C_3
REMARK    2  A    between atoms: C_7  and  C_8
REMARK                            x       y       z     vdW  Elec       q    Type
REMARK                         _______ _______ _______ _____ _____    ______ ____
ROOT
ATOM      1  C   UNL     1      30.041  27.487  19.868  0.00  0.00    +0.000 C 
ATOM      2  N   UNL     1      29.753  25.928  19.672  0.00  0.00    +0.000 NA
ATOM      3  C   UNL     1      29.272  25.292  20.844  0.00  0.00    +0.000 C 
ATOM      4  O   UNL     1      29.712  24.140  21.078  0.00  0.00    +0.000 OA
ATOM      5  C   UNL     1      28.298  25.972  21.736  0.00  0.00    +0.000 A 
ATOM      6  C   UNL     1      27.951  27.223  21.295  0.00  0.00    +0.000 A 
ATOM      7  S   UNL     1      26.834  27.728  22.507  0.00  0.00    +0.000 S 
ATOM      8  C   UNL     1      26.854  26.347  23.511  0.00  0.00    +0.000 A 
ATOM      9  C   UNL     1      27.741  25.526  22.862  0.00  0.00    +0.000 A 
ATOM     10  C   UNL     1      27.917  24.206  23.597  0.00  0.00    +0.000 C 
ATOM     11  C   UNL     1      26.529  23.665  23.775  0.00  0.00    +0.000 C 
ATOM     12  C   UNL     1      25.633  24.540  24.581  0.00  0.00    +0.000 C 
ATOM     13  C   UNL     1      26.173  25.928  24.793  0.00  0.00    +0.000 C 
ATOM     14  N   UNL     1      28.482  27.808  20.093  0.00  0.00    +0.000 NA
ENDROOT
BRANCH   1  19
ATOM     15  C   UNL     1      29.099  28.918  16.390  0.00  0.00    +0.000 A 
ATOM     16  C   UNL     1      30.205  28.518  15.677  0.00  0.00    +0.000 A 
ATOM     17  C   UNL     1      31.241  27.811  16.253  0.00  0.00    +0.000 A 
ATOM     18  C   UNL     1      31.159  27.486  17.634  0.00  0.00    +0.000 A 
ATOM     19  C   UNL     1      30.068  27.881  18.340  0.00  0.00    +0.000 A 
ATOM     20  C   UNL     1      29.080  28.565  17.754  0.00  0.00    +0.000 A 
BRANCH  15  22
ATOM     21  C   UNL     1      27.217  30.357  16.685  0.00  0.00    +0.000 C 
ATOM     22  O   UNL     1      28.058  29.628  15.812  0.00  0.00    +0.000 OA
ENDBRANCH  15  22
ENDBRANCH   1  19
TORSDOF 2
ENDMDL
MODEL 8
REMARK VINA RESULT:      -6.4      5.523      7.381
REMARK  Name = 
REMARK  2 active torsions:
REMARK  status: ('A' for Active; 'I' for Inactive)
REMARK    1  A    between atoms: O_2  and  C_3
REMARK    2  A    between atoms: C_7  and  C_8
REMARK                            x       y       z     vdW  Elec       q    Type
REMARK                         _______ _______ _______ _____ _____    ______ ____
ROOT
ATOM      1  C   UNL     1      20.923   9.904  37.295  0.00  0.00    +0.000 C 
ATOM      2  N   UNL     1      20.076  11.139  37.853  0.00  0.00    +0.000 NA
ATOM      3  C   UNL     1      18.849  10.756  38.450  0.00  0.00    +0.000 C 
ATOM      4  O   UNL     1      17.859  11.494  38.224  0.00  0.00    +0.000 OA
ATOM      5  C   UNL     1      18.760   9.538  39.297  0.00  0.00    +0.000 A 
ATOM      6  C   UNL     1      19.956   8.878  39.413  0.00  0.00    +0.000 A 
ATOM      7  S   UNL     1      19.533   7.556  40.434  0.00  0.00    +0.000 S 
ATOM      8  C   UNL     1      17.876   7.892  40.670  0.00  0.00    +0.000 A 
ATOM      9  C   UNL     1      17.702   9.038  39.935  0.00  0.00    +0.000 A 
ATOM     10  C   UNL     1      16.264   9.530  40.004  0.00  0.00    +0.000 C 
ATOM     11  C   UNL     1      15.951   9.632  41.467  0.00  0.00    +0.000 C 
ATOM     12  C   UNL     1      16.045   8.340  42.202  0.00  0.00    +0.000 C 
ATOM     13  C   UNL     1      16.736   7.252  41.427  0.00  0.00    +0.000 C 
ATOM     14  N   UNL     1      21.165   9.325  38.774  0.00  0.00    +0.000 NA
ENDROOT
BRANCH   1  19
ATOM     15  C   UNL     1      23.899  12.314  37.902  0.00  0.00    +0.000 A 
ATOM     16  C   UNL     1      24.745  11.878  36.911  0.00  0.00    +0.000 A 
ATOM     17  C   UNL     1      24.413  10.848  36.053  0.00  0.00    +0.000 A 
ATOM     18  C   UNL     1      23.148  10.218  36.203  0.00  0.00    +0.000 A 
ATOM     19  C   UNL     1      22.311  10.647  37.183  0.00  0.00    +0.000 A 
ATOM     20  C   UNL     1      22.661  11.647  37.998  0.00  0.00    +0.000 A 
BRANCH  15  22
ATOM     21  C   UNL     1      25.183  14.287  38.301  0.00  0.00    +0.000 C 
ATOM     22  O   UNL     1      24.232  13.348  38.764  0.00  0.00    +0.000 OA
ENDBRANCH  15  22
ENDBRANCH   1  19
TORSDOF 2
ENDMDL
MODEL 9
REMARK VINA RESULT:      -6.4     18.645     19.939
REMARK  Name = 
REMARK  2 active torsions:
REMARK  status: ('A' for Active; 'I' for Inactive)
REMARK    1  A    between atoms: O_2  and  C_3
REMARK    2  A    between atoms: C_7  and  C_8
REMARK                            x       y       z     vdW  Elec       q    Type
REMARK                         _______ _______ _______ _____ _____    ______ ____
ROOT
ATOM      1  C   UNL     1      14.286  24.252  22.205  0.00  0.00    +0.000 C 
ATOM      2  N   UNL     1      14.308  23.647  20.726  0.00  0.00    +0.000 NA
ATOM      3  C   UNL     1      13.492  22.497  20.576  0.00  0.00    +0.000 C 
ATOM      4  O   UNL     1      13.952  21.572  19.864  0.00  0.00    +0.000 OA
ATOM      5  C   UNL     1      12.165  22.411  21.238  0.00  0.00    +0.000 A 
ATOM      6  C   UNL     1      11.858  23.530  21.969  0.00  0.00    +0.000 A 
ATOM      7  S   UNL     1      10.298  23.133  22.585  0.00  0.00    +0.000 S 
ATOM      8  C   UNL     1      10.102  21.582  21.897  0.00  0.00    +0.000 A 
ATOM      9  C   UNL     1      11.274  21.421  21.201  0.00  0.00    +0.000 A 
ATOM     10  C   UNL     1      11.318  20.076  20.492  0.00  0.00    +0.000 C 
ATOM     11  C   UNL     1      10.057  20.015  19.682  0.00  0.00    +0.000 C 
ATOM     12  C   UNL     1       8.809  20.082  20.491  0.00  0.00    +0.000 C 
ATOM     13  C   UNL     1       9.033  20.515  21.914  0.00  0.00    +0.000 C 
ATOM     14  N   UNL     1      12.737  24.663  22.078  0.00  0.00    +0.000 NA
ENDROOT
BRANCH   1  19
ATOM     15  C   UNL     1      16.631  27.132  21.093  0.00  0.00    +0.000 A 
ATOM     16  C   UNL     1      15.772  28.194  21.251  0.00  0.00    +0.000 A 
ATOM     17  C   UNL     1      14.474  28.036  21.697  0.00  0.00    +0.000 A 
ATOM     18  C   UNL     1      14.014  26.727  22.003  0.00  0.00    +0.000 A 
ATOM     19  C   UNL     1      14.861  25.677  21.847  0.00  0.00    +0.000 A 
ATOM     20  C   UNL     1      16.113  25.862  21.413  0.00  0.00    +0.000 A 
BRANCH  15  22
ATOM     21  C   UNL     1      18.117  28.030  19.454  0.00  0.00    +0.000 C 
ATOM     22  O   UNL     1      17.934  27.290  20.645  0.00  0.00    +0.000 OA
ENDBRANCH  15  22
ENDBRANCH   1  19
TORSDOF 2
ENDMDL
MODEL 10
REMARK VINA RESULT:      -6.3     18.025     19.643
REMARK  Name = 
REMARK  2 active torsions:
REMARK  status: ('A' for Active; 'I' for Inactive)
REMARK    1  A    between atoms: O_2  and  C_3
REMARK    2  A    between atoms: C_7  and  C_8
REMARK                            x       y       z     vdW  Elec       q    Type
REMARK                         _______ _______ _______ _____ _____    ______ ____
ROOT
ATOM      1  C   UNL     1      26.215  23.655  26.275  0.00  0.00    +0.000 C 
ATOM      2  N   UNL     1      27.677  23.237  25.783  0.00  0.00    +0.000 NA
ATOM      3  C   UNL     1      27.961  23.641  24.454  0.00  0.00    +0.000 C 
ATOM      4  O   UNL     1      28.600  22.827  23.744  0.00  0.00    +0.000 OA
ATOM      5  C   UNL     1      27.515  24.966  23.948  0.00  0.00    +0.000 A 
ATOM      6  C   UNL     1      26.833  25.696  24.886  0.00  0.00    +0.000 A 
ATOM      7  S   UNL     1      26.472  27.139  24.017  0.00  0.00    +0.000 S 
ATOM      8  C   UNL     1      27.193  26.761  22.517  0.00  0.00    +0.000 A 
ATOM      9  C   UNL     1      27.699  25.506  22.743  0.00  0.00    +0.000 A 
ATOM     10  C   UNL     1      28.403  24.959  21.510  0.00  0.00    +0.000 C 
ATOM     11  C   UNL     1      29.401  26.011  21.127  0.00  0.00    +0.000 C 
ATOM     12  C   UNL     1      28.796  27.327  20.781  0.00  0.00    +0.000 C 
ATOM     13  C   UNL     1      27.352  27.454  21.184  0.00  0.00    +0.000 C 
ATOM     14  N   UNL     1      26.579  25.220  26.219  0.00  0.00    +0.000 NA
ENDROOT
BRANCH   1  19
ATOM     15  C   UNL     1      26.056  24.073  30.125  0.00  0.00    +0.000 A 
ATOM     16  C   UNL     1      26.973  23.115  30.492  0.00  0.00    +0.000 A 
ATOM     17  C   UNL     1      27.643  22.339  29.568  0.00  0.00    +0.000 A 
ATOM     18  C   UNL     1      27.373  22.539  28.187  0.00  0.00    +0.000 A 
ATOM     19  C   UNL     1      26.467  23.484  27.823  0.00  0.00    +0.000 A 
ATOM     20  C   UNL     1      25.834  24.221  28.742  0.00  0.00    +0.000 A 
BRANCH  15  22
ATOM     21  C   UNL     1      24.683  25.977  30.558  0.00  0.00    +0.000 C 
ATOM     22  O   UNL     1      25.383  24.853  31.053  0.00  0.00    +0.000 OA
ENDBRANCH  15  22
ENDBRANCH   1  19
TORSDOF 2
ENDMDL
