MODEL 1
REMARK VINA RESULT:      -7.5      0.000      0.000
REMARK  Name = 
REMARK  3 active torsions:
REMARK  status: ('A' for Active; 'I' for Inactive)
REMARK    1  A    between atoms: C_8  and  C_9
REMARK    2  A    between atoms: C_9  and  N_10
REMARK    3  A    between atoms: N_10  and  C_11
REMARK                            x       y       z     vdW  Elec       q    Type
REMARK                         _______ _______ _______ _____ _____    ______ ____
ROOT
ATOM      1  C   UNL     1      16.880  11.345  36.108  0.00  0.00    +0.000 A 
ATOM      2  C   UNL     1      18.210  11.057  36.139  0.00  0.00    +0.000 A 
ATOM      3  C   UNL     1      18.722  10.452  37.268  0.00  0.00    +0.000 A 
ATOM      4  C   UNL     1      17.855  10.179  38.292  0.00  0.00    +0.000 A 
ATOM      5  N   UNL     1      16.537  10.473  38.241  0.00  0.00    +0.000 N 
ATOM      6  C   UNL     1      15.565  10.271  39.153  0.00  0.00    +0.000 A 
ATOM      7  C   UNL     1      15.719   9.650  40.485  0.00  0.00    +0.000 C 
ATOM      8  C   UNL     1      14.398  10.754  38.606  0.00  0.00    +0.000 A 
ATOM      9  C   UNL     1      13.076  10.725  39.289  0.00  0.00    +0.000 C 
ATOM     10  N   UNL     1      14.703  11.235  37.377  0.00  0.00    +0.000 NA
ATOM     11  C   UNL     1      16.023  11.063  37.146  0.00  0.00    +0.000 A 
ENDROOT
BRANCH   1  12
ATOM     12  N   UNL     1      16.340  11.976  34.932  0.00  0.00    +0.000 NA
BRANCH  12  13
ATOM     13  C   UNL     1      15.371  11.290  34.096  0.00  0.00    +0.000 C 
BRANCH  13  21
ATOM     14  C   UNL     1      15.955  10.884  31.327  0.00  0.00    +0.000 C 
ATOM     15  C   UNL     1      15.155  12.070  31.726  0.00  0.00    +0.000 A 
ATOM     16  C   UNL     1      14.708  12.950  30.768  0.00  0.00    +0.000 A 
ATOM     17  C   UNL     1      13.964  14.055  31.123  0.00  0.00    +0.000 A 
ATOM     18  C   UNL     1      13.695  14.231  32.465  0.00  0.00    +0.000 A 
ATOM     19  C   UNL     1      14.140  13.353  33.422  0.00  0.00    +0.000 A 
ATOM     20  O   UNL     1      13.867  13.529  34.791  0.00  0.00    +0.000 OA
ATOM     21  C   UNL     1      14.885  12.244  33.076  0.00  0.00    +0.000 A 
ENDBRANCH  13  21
ENDBRANCH  12  13
ENDBRANCH   1  12
TORSDOF 3
ENDMDL
MODEL 2
REMARK VINA RESULT:      -7.1     28.755     31.340
REMARK  Name = 
REMARK  3 active torsions:
REMARK  status: ('A' for Active; 'I' for Inactive)
REMARK    1  A    between atoms: C_8  and  C_9
REMARK    2  A    between atoms: C_9  and  N_10
REMARK    3  A    between atoms: N_10  and  C_11
REMARK                            x       y       z     vdW  Elec       q    Type
REMARK                         _______ _______ _______ _____ _____    ______ ____
ROOT
ATOM      1  C   UNL     1      31.945  21.939  11.084  0.00  0.00    +0.000 A 
ATOM      2  C   UNL     1      32.790  21.280  11.923  0.00  0.00    +0.000 A 
ATOM      3  C   UNL     1      33.693  20.393  11.376  0.00  0.00    +0.000 A 
ATOM      4  C   UNL     1      33.681  20.230  10.017  0.00  0.00    +0.000 A 
ATOM      5  N   UNL     1      32.833  20.894   9.202  0.00  0.00    +0.000 N 
ATOM      6  C   UNL     1      32.698  20.845   7.861  0.00  0.00    +0.000 A 
ATOM      7  C   UNL     1      33.483  20.015   6.925  0.00  0.00    +0.000 C 
ATOM      8  C   UNL     1      31.686  21.718   7.529  0.00  0.00    +0.000 A 
ATOM      9  C   UNL     1      31.215  21.967   6.140  0.00  0.00    +0.000 C 
ATOM     10  N   UNL     1      31.241  22.268   8.684  0.00  0.00    +0.000 NA
ATOM     11  C   UNL     1      31.946  21.763   9.720  0.00  0.00    +0.000 A 
ENDROOT
BRANCH   1  12
ATOM     12  N   UNL     1      30.999  22.867  11.649  0.00  0.00    +0.000 NA
BRANCH  12  13
ATOM     13  C   UNL     1      30.199  22.505  12.806  0.00  0.00    +0.000 C 
BRANCH  13  21
ATOM     14  C   UNL     1      28.847  24.514  14.325  0.00  0.00    +0.000 C 
ATOM     15  C   UNL     1      28.110  23.818  13.239  0.00  0.00    +0.000 A 
ATOM     16  C   UNL     1      26.800  24.145  12.978  0.00  0.00    +0.000 A 
ATOM     17  C   UNL     1      26.105  23.508  11.972  0.00  0.00    +0.000 A 
ATOM     18  C   UNL     1      26.778  22.542  11.253  0.00  0.00    +0.000 A 
ATOM     19  C   UNL     1      28.086  22.214  11.512  0.00  0.00    +0.000 A 
ATOM     20  O   UNL     1      28.774  21.230  10.780  0.00  0.00    +0.000 OA
ATOM     21  C   UNL     1      28.791  22.847  12.517  0.00  0.00    +0.000 A 
ENDBRANCH  13  21
ENDBRANCH  12  13
ENDBRANCH   1  12
TORSDOF 3
ENDMDL
MODEL 3
REMARK VINA RESULT:      -6.9      2.829      7.406
REMARK  Name = 
REMARK  3 active torsions:
REMARK  status: ('A' for Active; 'I' for Inactive)
REMARK    1  A    between atoms: C_8  and  C_9
REMARK    2  A    between atoms: C_9  and  N_10
REMARK    3  A    between atoms: N_10  and  C_11
REMARK                            x       y       z     vdW  Elec       q    Type
REMARK                         _______ _______ _______ _____ _____    ______ ____
ROOT
ATOM      1  C   UNL     1      17.155  10.152  37.173  0.00  0.00    +0.000 A 
ATOM      2  C   UNL     1      18.133   9.301  36.760  0.00  0.00    +0.000 A 
ATOM      3  C   UNL     1      18.400   9.217  35.410  0.00  0.00    +0.000 A 
ATOM      4  C   UNL     1      17.660   9.999  34.565  0.00  0.00    +0.000 A 
ATOM      5  N   UNL     1      16.692  10.838  34.996  0.00  0.00    +0.000 N 
ATOM      6  C   UNL     1      15.884  11.664  34.300  0.00  0.00    +0.000 A 
ATOM      7  C   UNL     1      15.867  11.855  32.835  0.00  0.00    +0.000 C 
ATOM      8  C   UNL     1      15.075  12.297  35.216  0.00  0.00    +0.000 A 
ATOM      9  C   UNL     1      14.032  13.298  34.864  0.00  0.00    +0.000 C 
ATOM     10  N   UNL     1      15.421  11.832  36.441  0.00  0.00    +0.000 NA
ATOM     11  C   UNL     1      16.419  10.931  36.310  0.00  0.00    +0.000 A 
ENDROOT
BRANCH   1  12
ATOM     12  N   UNL     1      16.871  10.244  38.582  0.00  0.00    +0.000 NA
BRANCH  12  13
ATOM     13  C   UNL     1      17.915  10.027  39.568  0.00  0.00    +0.000 C 
BRANCH  13  21
ATOM     14  C   UNL     1      15.485   9.474  40.970  0.00  0.00    +0.000 C 
ATOM     15  C   UNL     1      16.519   8.412  40.880  0.00  0.00    +0.000 A 
ATOM     16  C   UNL     1      16.299   7.187  41.466  0.00  0.00    +0.000 A 
ATOM     17  C   UNL     1      17.250   6.192  41.389  0.00  0.00    +0.000 A 
ATOM     18  C   UNL     1      18.414   6.482  40.708  0.00  0.00    +0.000 A 
ATOM     19  C   UNL     1      18.636   7.704  40.123  0.00  0.00    +0.000 A 
ATOM     20  O   UNL     1      19.822   8.002  39.428  0.00  0.00    +0.000 OA
ATOM     21  C   UNL     1      17.689   8.706  40.194  0.00  0.00    +0.000 A 
ENDBRANCH  13  21
ENDBRANCH  12  13
ENDBRANCH   1  12
TORSDOF 3
ENDMDL
MODEL 4
REMARK VINA RESULT:      -6.8      3.647      6.045
REMARK  Name = 
REMARK  3 active torsions:
REMARK  status: ('A' for Active; 'I' for Inactive)
REMARK    1  A    between atoms: C_8  and  C_9
REMARK    2  A    between atoms: C_9  and  N_10
REMARK    3  A    between atoms: N_10  and  C_11
REMARK                            x       y       z     vdW  Elec       q    Type
REMARK                         _______ _______ _______ _____ _____    ______ ____
ROOT
ATOM      1  C   UNL     1      17.582   8.514  40.087  0.00  0.00    +0.000 A 
ATOM      2  C   UNL     1      16.670   9.334  40.677  0.00  0.00    +0.000 A 
ATOM      3  C   UNL     1      16.027   8.886  41.812  0.00  0.00    +0.000 A 
ATOM      4  C   UNL     1      16.348   7.639  42.275  0.00  0.00    +0.000 A 
ATOM      5  N   UNL     1      17.258   6.840  41.674  0.00  0.00    +0.000 N 
ATOM      6  C   UNL     1      17.680   5.602  42.001  0.00  0.00    +0.000 A 
ATOM      7  C   UNL     1      17.227   4.790  43.149  0.00  0.00    +0.000 C 
ATOM      8  C   UNL     1      18.616   5.237  41.060  0.00  0.00    +0.000 A 
ATOM      9  C   UNL     1      19.335   3.934  41.054  0.00  0.00    +0.000 C 
ATOM     10  N   UNL     1      18.730   6.269  40.191  0.00  0.00    +0.000 NA
ATOM     11  C   UNL     1      17.893   7.262  40.566  0.00  0.00    +0.000 A 
ENDROOT
BRANCH   1  12
ATOM     12  N   UNL     1      18.257   8.975  38.901  0.00  0.00    +0.000 NA
BRANCH  12  13
ATOM     13  C   UNL     1      18.149  10.359  38.473  0.00  0.00    +0.000 C 
BRANCH  13  21
ATOM     14  C   UNL     1      15.510  11.206  37.770  0.00  0.00    +0.000 C 
ATOM     15  C   UNL     1      16.437  10.776  36.692  0.00  0.00    +0.000 A 
ATOM     16  C   UNL     1      16.020  10.792  35.382  0.00  0.00    +0.000 A 
ATOM     17  C   UNL     1      16.870  10.397  34.370  0.00  0.00    +0.000 A 
ATOM     18  C   UNL     1      18.138   9.992  34.734  0.00  0.00    +0.000 A 
ATOM     19  C   UNL     1      18.555   9.976  36.041  0.00  0.00    +0.000 A 
ATOM     20  O   UNL     1      19.848   9.563  36.414  0.00  0.00    +0.000 OA
ATOM     21  C   UNL     1      17.712  10.370  37.060  0.00  0.00    +0.000 A 
ENDBRANCH  13  21
ENDBRANCH  12  13
ENDBRANCH   1  12
TORSDOF 3
ENDMDL
MODEL 5
REMARK VINA RESULT:      -6.8      3.030      7.613
REMARK  Name = 
REMARK  3 active torsions:
REMARK  status: ('A' for Active; 'I' for Inactive)
REMARK    1  A    between atoms: C_8  and  C_9
REMARK    2  A    between atoms: C_9  and  N_10
REMARK    3  A    between atoms: N_10  and  C_11
REMARK                            x       y       z     vdW  Elec       q    Type
REMARK                         _______ _______ _______ _____ _____    ______ ____
ROOT
ATOM      1  C   UNL     1      16.936  10.144  38.126  0.00  0.00    +0.000 A 
ATOM      2  C   UNL     1      18.063   9.654  37.541  0.00  0.00    +0.000 A 
ATOM      3  C   UNL     1      18.252   9.881  36.194  0.00  0.00    +0.000 A 
ATOM      4  C   UNL     1      17.288  10.588  35.527  0.00  0.00    +0.000 A 
ATOM      5  N   UNL     1      16.176  11.066  36.127  0.00  0.00    +0.000 N 
ATOM      6  C   UNL     1      15.146  11.771  35.616  0.00  0.00    +0.000 A 
ATOM      7  C   UNL     1      14.986  12.208  34.214  0.00  0.00    +0.000 C 
ATOM      8  C   UNL     1      14.271  12.007  36.651  0.00  0.00    +0.000 A 
ATOM      9  C   UNL     1      12.994  12.759  36.516  0.00  0.00    +0.000 C 
ATOM     10  N   UNL     1      14.800  11.435  37.759  0.00  0.00    +0.000 NA
ATOM     11  C   UNL     1      15.977  10.853  37.441  0.00  0.00    +0.000 A 
ENDROOT
BRANCH   1  12
ATOM     12  N   UNL     1      16.733   9.910  39.533  0.00  0.00    +0.000 NA
BRANCH  12  13
ATOM     13  C   UNL     1      17.845   9.556  40.398  0.00  0.00    +0.000 C 
BRANCH  13  21
ATOM     14  C   UNL     1      18.554   6.839  39.860  0.00  0.00    +0.000 C 
ATOM     15  C   UNL     1      17.732   7.143  41.059  0.00  0.00    +0.000 A 
ATOM     16  C   UNL     1      17.325   6.124  41.889  0.00  0.00    +0.000 A 
ATOM     17  C   UNL     1      16.563   6.392  43.006  0.00  0.00    +0.000 A 
ATOM     18  C   UNL     1      16.233   7.710  43.245  0.00  0.00    +0.000 A 
ATOM     19  C   UNL     1      16.637   8.728  42.417  0.00  0.00    +0.000 A 
ATOM     20  O   UNL     1      16.303  10.073  42.658  0.00  0.00    +0.000 OA
ATOM     21  C   UNL     1      17.402   8.470  41.297  0.00  0.00    +0.000 A 
ENDBRANCH  13  21
ENDBRANCH  12  13
ENDBRANCH   1  12
TORSDOF 3
ENDMDL
MODEL 6
REMARK VINA RESULT:      -6.6     19.387     21.424
REMARK  Name = 
REMARK  3 active torsions:
REMARK  status: ('A' for Active; 'I' for Inactive)
REMARK    1  A    between atoms: C_8  and  C_9
REMARK    2  A    between atoms: C_9  and  N_10
REMARK    3  A    between atoms: N_10  and  C_11
REMARK                            x       y       z     vdW  Elec       q    Type
REMARK                         _______ _______ _______ _____ _____    ______ ____
ROOT
ATOM      1  C   UNL     1      27.981  23.252  24.320  0.00  0.00    +0.000 A 
ATOM      2  C   UNL     1      26.803  23.450  23.669  0.00  0.00    +0.000 A 
ATOM      3  C   UNL     1      25.656  23.592  24.423  0.00  0.00    +0.000 A 
ATOM      4  C   UNL     1      25.777  23.522  25.784  0.00  0.00    +0.000 A 
ATOM      5  N   UNL     1      26.958  23.324  26.411  0.00  0.00    +0.000 N 
ATOM      6  C   UNL     1      27.240  23.233  27.726  0.00  0.00    +0.000 A 
ATOM      7  C   UNL     1      26.279  23.333  28.844  0.00  0.00    +0.000 C 
ATOM      8  C   UNL     1      28.597  23.028  27.831  0.00  0.00    +0.000 A 
ATOM      9  C   UNL     1      29.326  22.872  29.119  0.00  0.00    +0.000 C 
ATOM     10  N   UNL     1      29.094  23.002  26.571  0.00  0.00    +0.000 NA
ATOM     11  C   UNL     1      28.085  23.185  25.690  0.00  0.00    +0.000 A 
ENDROOT
BRANCH   1  12
ATOM     12  N   UNL     1      29.183  23.104  23.539  0.00  0.00    +0.000 NA
BRANCH  12  13
ATOM     13  C   UNL     1      30.220  24.120  23.567  0.00  0.00    +0.000 C 
BRANCH  13  21
ATOM     14  C   UNL     1      29.696  26.471  25.107  0.00  0.00    +0.000 C 
ATOM     15  C   UNL     1      29.424  26.494  23.647  0.00  0.00    +0.000 A 
ATOM     16  C   UNL     1      28.929  27.634  23.058  0.00  0.00    +0.000 A 
ATOM     17  C   UNL     1      28.673  27.670  21.704  0.00  0.00    +0.000 A 
ATOM     18  C   UNL     1      28.933  26.523  20.982  0.00  0.00    +0.000 A 
ATOM     19  C   UNL     1      29.427  25.384  21.568  0.00  0.00    +0.000 A 
ATOM     20  O   UNL     1      29.693  24.214  20.834  0.00  0.00    +0.000 OA
ATOM     21  C   UNL     1      29.687  25.339  22.923  0.00  0.00    +0.000 A 
ENDBRANCH  13  21
ENDBRANCH  12  13
ENDBRANCH   1  12
TORSDOF 3
ENDMDL
MODEL 7
REMARK VINA RESULT:      -6.5     18.221     19.871
REMARK  Name = 
REMARK  3 active torsions:
REMARK  status: ('A' for Active; 'I' for Inactive)
REMARK    1  A    between atoms: C_8  and  C_9
REMARK    2  A    between atoms: C_9  and  N_10
REMARK    3  A    between atoms: N_10  and  C_11
REMARK                            x       y       z     vdW  Elec       q    Type
REMARK                         _______ _______ _______ _____ _____    ______ ____
ROOT
ATOM      1  C   UNL     1      28.491  23.350  27.921  0.00  0.00    +0.000 A 
ATOM      2  C   UNL     1      27.182  23.461  28.277  0.00  0.00    +0.000 A 
ATOM      3  C   UNL     1      26.833  23.176  29.581  0.00  0.00    +0.000 A 
ATOM      4  C   UNL     1      27.831  22.798  30.438  0.00  0.00    +0.000 A 
ATOM      5  N   UNL     1      29.125  22.694  30.064  0.00  0.00    +0.000 N 
ATOM      6  C   UNL     1      30.212  22.339  30.779  0.00  0.00    +0.000 A 
ATOM      7  C   UNL     1      30.244  21.963  32.208  0.00  0.00    +0.000 C 
ATOM      8  C   UNL     1      31.289  22.393  29.924  0.00  0.00    +0.000 A 
ATOM      9  C   UNL     1      32.688  22.074  30.315  0.00  0.00    +0.000 C 
ATOM     10  N   UNL     1      30.817  22.781  28.714  0.00  0.00    +0.000 NA
ATOM     11  C   UNL     1      29.481  22.968  28.796  0.00  0.00    +0.000 A 
ENDROOT
BRANCH   1  12
ATOM     12  N   UNL     1      28.861  23.646  26.561  0.00  0.00    +0.000 NA
BRANCH  12  13
ATOM     13  C   UNL     1      28.829  22.615  25.539  0.00  0.00    +0.000 C 
BRANCH  13  21
ATOM     14  C   UNL     1      26.076  22.926  24.836  0.00  0.00    +0.000 C 
ATOM     15  C   UNL     1      27.116  23.411  23.893  0.00  0.00    +0.000 A 
ATOM     16  C   UNL     1      26.747  23.998  22.706  0.00  0.00    +0.000 A 
ATOM     17  C   UNL     1      27.702  24.453  21.822  0.00  0.00    +0.000 A 
ATOM     18  C   UNL     1      29.024  24.291  22.182  0.00  0.00    +0.000 A 
ATOM     19  C   UNL     1      29.394  23.705  23.367  0.00  0.00    +0.000 A 
ATOM     20  O   UNL     1      30.741  23.540  23.737  0.00  0.00    +0.000 OA
ATOM     21  C   UNL     1      28.445  23.247  24.259  0.00  0.00    +0.000 A 
ENDBRANCH  13  21
ENDBRANCH  12  13
ENDBRANCH   1  12
TORSDOF 3
ENDMDL
MODEL 8
REMARK VINA RESULT:      -6.5     17.935     20.168
REMARK  Name = 
REMARK  3 active torsions:
REMARK  status: ('A' for Active; 'I' for Inactive)
REMARK    1  A    between atoms: C_8  and  C_9
REMARK    2  A    between atoms: C_9  and  N_10
REMARK    3  A    between atoms: N_10  and  C_11
REMARK                            x       y       z     vdW  Elec       q    Type
REMARK                         _______ _______ _______ _____ _____    ______ ____
ROOT
ATOM      1  C   UNL     1      29.239  22.457  26.554  0.00  0.00    +0.000 A 
ATOM      2  C   UNL     1      30.593  22.504  26.418  0.00  0.00    +0.000 A 
ATOM      3  C   UNL     1      31.114  22.869  25.194  0.00  0.00    +0.000 A 
ATOM      4  C   UNL     1      30.233  23.161  24.189  0.00  0.00    +0.000 A 
ATOM      5  N   UNL     1      28.891  23.108  24.345  0.00  0.00    +0.000 N 
ATOM      6  C   UNL     1      27.903  23.362  23.464  0.00  0.00    +0.000 A 
ATOM      7  C   UNL     1      28.061  23.780  22.056  0.00  0.00    +0.000 C 
ATOM      8  C   UNL     1      26.714  23.159  24.128  0.00  0.00    +0.000 A 
ATOM      9  C   UNL     1      25.370  23.334  23.515  0.00  0.00    +0.000 C 
ATOM     10  N   UNL     1      27.024  22.787  25.393  0.00  0.00    +0.000 NA
ATOM     11  C   UNL     1      28.367  22.754  25.532  0.00  0.00    +0.000 A 
ENDROOT
BRANCH   1  12
ATOM     12  N   UNL     1      28.688  22.077  27.830  0.00  0.00    +0.000 NA
BRANCH  12  13
ATOM     13  C   UNL     1      28.978  22.848  29.026  0.00  0.00    +0.000 C 
BRANCH  13  21
ATOM     14  C   UNL     1      26.502  22.167  30.282  0.00  0.00    +0.000 C 
ATOM     15  C   UNL     1      26.702  23.556  29.796  0.00  0.00    +0.000 A 
ATOM     16  C   UNL     1      25.704  24.489  29.955  0.00  0.00    +0.000 A 
ATOM     17  C   UNL     1      25.876  25.782  29.509  0.00  0.00    +0.000 A 
ATOM     18  C   UNL     1      27.078  26.088  28.906  0.00  0.00    +0.000 A 
ATOM     19  C   UNL     1      28.075  25.157  28.746  0.00  0.00    +0.000 A 
ATOM     20  O   UNL     1      29.302  25.466  28.131  0.00  0.00    +0.000 OA
ATOM     21  C   UNL     1      27.913  23.860  29.190  0.00  0.00    +0.000 A 
ENDBRANCH  13  21
ENDBRANCH  12  13
ENDBRANCH   1  12
TORSDOF 3
ENDMDL
MODEL 9
REMARK VINA RESULT:      -6.5     18.008     19.684
REMARK  Name = 
REMARK  3 active torsions:
REMARK  status: ('A' for Active; 'I' for Inactive)
REMARK    1  A    between atoms: C_8  and  C_9
REMARK    2  A    between atoms: C_9  and  N_10
REMARK    3  A    between atoms: N_10  and  C_11
REMARK                            x       y       z     vdW  Elec       q    Type
REMARK                         _______ _______ _______ _____ _____    ______ ____
ROOT
ATOM      1  C   UNL     1      27.565  23.365  27.931  0.00  0.00    +0.000 A 
ATOM      2  C   UNL     1      26.356  23.371  28.557  0.00  0.00    +0.000 A 
ATOM      3  C   UNL     1      26.314  23.064  29.901  0.00  0.00    +0.000 A 
ATOM      4  C   UNL     1      27.497  22.770  30.523  0.00  0.00    +0.000 A 
ATOM      5  N   UNL     1      28.688  22.770  29.883  0.00  0.00    +0.000 N 
ATOM      6  C   UNL     1      29.925  22.506  30.349  0.00  0.00    +0.000 A 
ATOM      7  C   UNL     1      30.288  22.139  31.733  0.00  0.00    +0.000 C 
ATOM      8  C   UNL     1      30.790  22.644  29.286  0.00  0.00    +0.000 A 
ATOM      9  C   UNL     1      32.261  22.440  29.370  0.00  0.00    +0.000 C 
ATOM     10  N   UNL     1      30.044  22.988  28.209  0.00  0.00    +0.000 NA
ATOM     11  C   UNL     1      28.745  23.067  28.573  0.00  0.00    +0.000 A 
ENDROOT
BRANCH   1  12
ATOM     12  N   UNL     1      27.616  23.685  26.528  0.00  0.00    +0.000 NA
BRANCH  12  13
ATOM     13  C   UNL     1      27.667  22.635  25.526  0.00  0.00    +0.000 C 
BRANCH  13  21
ATOM     14  C   UNL     1      30.325  23.006  24.539  0.00  0.00    +0.000 C 
ATOM     15  C   UNL     1      29.180  23.458  23.707  0.00  0.00    +0.000 A 
ATOM     16  C   UNL     1      29.409  24.043  22.484  0.00  0.00    +0.000 A 
ATOM     17  C   UNL     1      28.357  24.467  21.700  0.00  0.00    +0.000 A 
ATOM     18  C   UNL     1      27.084  24.277  22.198  0.00  0.00    +0.000 A 
ATOM     19  C   UNL     1      26.853  23.694  23.418  0.00  0.00    +0.000 A 
ATOM     20  O   UNL     1      25.556  23.499  23.928  0.00  0.00    +0.000 OA
ATOM     21  C   UNL     1      27.901  23.266  24.210  0.00  0.00    +0.000 A 
ENDBRANCH  13  21
ENDBRANCH  12  13
ENDBRANCH   1  12
TORSDOF 3
ENDMDL
MODEL 10
REMARK VINA RESULT:      -6.4     21.007     22.942
REMARK  Name = 
REMARK  3 active torsions:
REMARK  status: ('A' for Active; 'I' for Inactive)
REMARK    1  A    between atoms: C_8  and  C_9
REMARK    2  A    between atoms: C_9  and  N_10
REMARK    3  A    between atoms: N_10  and  C_11
REMARK                            x       y       z     vdW  Elec       q    Type
REMARK                         _______ _______ _______ _____ _____    ______ ____
ROOT
ATOM      1  C   UNL     1      24.769   3.678  17.957  0.00  0.00    +0.000 A 
ATOM      2  C   UNL     1      23.541   4.169  18.276  0.00  0.00    +0.000 A 
ATOM      3  C   UNL     1      22.474   3.294  18.300  0.00  0.00    +0.000 A 
ATOM      4  C   UNL     1      22.721   1.982  18.000  0.00  0.00    +0.000 A 
ATOM      5  N   UNL     1      23.949   1.515  17.685  0.00  0.00    +0.000 N 
ATOM      6  C   UNL     1      24.351   0.268  17.368  0.00  0.00    +0.000 A 
ATOM      7  C   UNL     1      23.503  -0.939  17.289  0.00  0.00    +0.000 C 
ATOM      8  C   UNL     1      25.706   0.332  17.133  0.00  0.00    +0.000 A 
ATOM      9  C   UNL     1      26.548  -0.835  16.753  0.00  0.00    +0.000 C 
ATOM     10  N   UNL     1      26.081   1.621  17.316  0.00  0.00    +0.000 NA
ATOM     11  C   UNL     1      25.000   2.355  17.657  0.00  0.00    +0.000 A 
ENDROOT
BRANCH   1  12
ATOM     12  N   UNL     1      25.887   4.586  17.929  0.00  0.00    +0.000 NA
BRANCH  12  13
ATOM     13  C   UNL     1      25.709   5.975  17.544  0.00  0.00    +0.000 C 
BRANCH  13  21
ATOM     14  C   UNL     1      27.917   7.139  18.939  0.00  0.00    +0.000 C 
ATOM     15  C   UNL     1      28.004   6.977  17.465  0.00  0.00    +0.000 A 
ATOM     16  C   UNL     1      29.135   7.383  16.795  0.00  0.00    +0.000 A 
ATOM     17  C   UNL     1      29.230   7.237  15.428  0.00  0.00    +0.000 A 
ATOM     18  C   UNL     1      28.152   6.673  14.776  0.00  0.00    +0.000 A 
ATOM     19  C   UNL     1      27.023   6.267  15.443  0.00  0.00    +0.000 A 
ATOM     20  O   UNL     1      25.923   5.692  14.782  0.00  0.00    +0.000 OA
ATOM     21  C   UNL     1      26.919   6.409  16.813  0.00  0.00    +0.000 A 
ENDBRANCH  13  21
ENDBRANCH  12  13
ENDBRANCH   1  12
TORSDOF 3
ENDMDL
