MODEL 1
REMARK VINA RESULT:      -7.6      0.000      0.000
REMARK  Name = 
REMARK  2 active torsions:
REMARK  status: ('A' for Active; 'I' for Inactive)
REMARK    1  A    between atoms: C_4  and  N_5
REMARK    2  A    between atoms: C_6  and  C_8
REMARK                            x       y       z     vdW  Elec       q    Type
REMARK                         _______ _______ _______ _____ _____    ______ ____
ROOT
ATOM      1  N   UNL     1      15.613  11.280  35.675  0.00  0.00    +0.000 NA
ATOM      2  C   UNL     1      16.791  11.625  36.391  0.00  0.00    +0.000 C 
ATOM      3  O   UNL     1      17.348  12.713  36.102  0.00  0.00    +0.000 OA
ENDROOT
BRANCH   1   7
ATOM      4  C   UNL     1      12.887  15.160  34.440  0.00  0.00    +0.000 C 
ATOM      5  C   UNL     1      13.722  14.012  34.056  0.00  0.00    +0.000 A 
ATOM      6  C   UNL     1      14.285  13.173  35.013  0.00  0.00    +0.000 A 
ATOM      7  C   UNL     1      15.063  12.102  34.673  0.00  0.00    +0.000 A 
ATOM      8  C   UNL     1      15.302  11.839  33.354  0.00  0.00    +0.000 A 
ATOM      9  C   UNL     1      16.154  10.669  32.940  0.00  0.00    +0.000 C 
ATOM     10  C   UNL     1      14.758  12.652  32.388  0.00  0.00    +0.000 A 
ATOM     11  C   UNL     1      13.979  13.723  32.746  0.00  0.00    +0.000 A 
ATOM     12  O   UNL     1      13.456  14.509  31.721  0.00  0.00    +0.000 OA
ENDBRANCH   1   7
BRANCH   2  13
ATOM     13  C   UNL     1      17.294  10.724  37.411  0.00  0.00    +0.000 A 
ATOM     14  C   UNL     1      18.498  10.063  37.259  0.00  0.00    +0.000 A 
ATOM     15  C   UNL     1      18.957   9.210  38.241  0.00  0.00    +0.000 A 
ATOM     16  C   UNL     1      18.255   8.977  39.404  0.00  0.00    +0.000 A 
ATOM     17 BR   UNL     1      18.923   7.786  40.747  0.00  0.00    +0.000 Br
ATOM     18  C   UNL     1      17.050   9.634  39.563  0.00  0.00    +0.000 A 
ATOM     19  C   UNL     1      16.596  10.485  38.577  0.00  0.00    +0.000 A 
ENDBRANCH   2  13
TORSDOF 2
ENDMDL
MODEL 2
REMARK VINA RESULT:      -6.8      3.711      7.395
REMARK  Name = 
REMARK  2 active torsions:
REMARK  status: ('A' for Active; 'I' for Inactive)
REMARK    1  A    between atoms: C_4  and  N_5
REMARK    2  A    between atoms: C_6  and  C_8
REMARK                            x       y       z     vdW  Elec       q    Type
REMARK                         _______ _______ _______ _____ _____    ______ ____
ROOT
ATOM      1  N   UNL     1      16.964  11.008  37.156  0.00  0.00    +0.000 NA
ATOM      2  C   UNL     1      16.984  10.241  35.961  0.00  0.00    +0.000 C 
ATOM      3  O   UNL     1      17.462   9.081  36.024  0.00  0.00    +0.000 OA
ENDROOT
BRANCH   1   7
ATOM      4  C   UNL     1      16.138   8.696  41.396  0.00  0.00    +0.000 C 
ATOM      5  C   UNL     1      17.055   9.382  40.473  0.00  0.00    +0.000 A 
ATOM      6  C   UNL     1      16.614   9.881  39.251  0.00  0.00    +0.000 A 
ATOM      7  C   UNL     1      17.453  10.520  38.382  0.00  0.00    +0.000 A 
ATOM      8  C   UNL     1      18.769  10.679  38.715  0.00  0.00    +0.000 A 
ATOM      9  C   UNL     1      19.723  11.379  37.785  0.00  0.00    +0.000 C 
ATOM     10  C   UNL     1      19.230  10.196  39.917  0.00  0.00    +0.000 A 
ATOM     11  C   UNL     1      18.375   9.557  40.777  0.00  0.00    +0.000 A 
ATOM     12  O   UNL     1      18.903   9.090  41.980  0.00  0.00    +0.000 OA
ENDBRANCH   1   7
BRANCH   2  13
ATOM     13  C   UNL     1      16.459  10.815  34.736  0.00  0.00    +0.000 A 
ATOM     14  C   UNL     1      15.460  11.769  34.756  0.00  0.00    +0.000 A 
ATOM     15  C   UNL     1      14.975  12.300  33.579  0.00  0.00    +0.000 A 
ATOM     16  C   UNL     1      15.452  11.917  32.345  0.00  0.00    +0.000 A 
ATOM     17 BR   UNL     1      14.754  12.676  30.731  0.00  0.00    +0.000 Br
ATOM     18  C   UNL     1      16.450  10.964  32.316  0.00  0.00    +0.000 A 
ATOM     19  C   UNL     1      16.931  10.436  33.496  0.00  0.00    +0.000 A 
ENDBRANCH   2  13
TORSDOF 2
ENDMDL
MODEL 3
REMARK VINA RESULT:      -6.6      3.731      7.708
REMARK  Name = 
REMARK  2 active torsions:
REMARK  status: ('A' for Active; 'I' for Inactive)
REMARK    1  A    between atoms: C_4  and  N_5
REMARK    2  A    between atoms: C_6  and  C_8
REMARK                            x       y       z     vdW  Elec       q    Type
REMARK                         _______ _______ _______ _____ _____    ______ ____
ROOT
ATOM      1  N   UNL     1      18.186  10.846  36.617  0.00  0.00    +0.000 NA
ATOM      2  C   UNL     1      17.627  10.077  35.561  0.00  0.00    +0.000 C 
ATOM      3  O   UNL     1      17.872   8.845  35.548  0.00  0.00    +0.000 OA
ENDROOT
BRANCH   1   7
ATOM      4  C   UNL     1      22.625   9.512  38.205  0.00  0.00    +0.000 C 
ATOM      5  C   UNL     1      21.174   9.623  38.415  0.00  0.00    +0.000 A 
ATOM      6  C   UNL     1      20.341  10.172  37.445  0.00  0.00    +0.000 A 
ATOM      7  C   UNL     1      18.990  10.283  37.625  0.00  0.00    +0.000 A 
ATOM      8  C   UNL     1      18.431   9.842  38.791  0.00  0.00    +0.000 A 
ATOM      9  C   UNL     1      16.948   9.946  39.025  0.00  0.00    +0.000 C 
ATOM     10  C   UNL     1      19.231   9.295  39.766  0.00  0.00    +0.000 A 
ATOM     11  C   UNL     1      20.585   9.191  39.570  0.00  0.00    +0.000 A 
ATOM     12  O   UNL     1      21.341   8.627  40.595  0.00  0.00    +0.000 OA
ENDBRANCH   1   7
BRANCH   2  13
ATOM     13  C   UNL     1      16.806  10.732  34.559  0.00  0.00    +0.000 A 
ATOM     14  C   UNL     1      16.968  10.471  33.212  0.00  0.00    +0.000 A 
ATOM     15  C   UNL     1      16.177  11.106  32.277  0.00  0.00    +0.000 A 
ATOM     16  C   UNL     1      15.203  12.015  32.628  0.00  0.00    +0.000 A 
ATOM     17 BR   UNL     1      14.124  12.878  31.301  0.00  0.00    +0.000 Br
ATOM     18  C   UNL     1      15.036  12.281  33.972  0.00  0.00    +0.000 A 
ATOM     19  C   UNL     1      15.830  11.644  34.903  0.00  0.00    +0.000 A 
ENDBRANCH   2  13
TORSDOF 2
ENDMDL
MODEL 4
REMARK VINA RESULT:      -6.4     22.029     23.695
REMARK  Name = 
REMARK  2 active torsions:
REMARK  status: ('A' for Active; 'I' for Inactive)
REMARK    1  A    between atoms: C_4  and  N_5
REMARK    2  A    between atoms: C_6  and  C_8
REMARK                            x       y       z     vdW  Elec       q    Type
REMARK                         _______ _______ _______ _____ _____    ______ ____
ROOT
ATOM      1  N   UNL     1      22.411  -7.963  25.260  0.00  0.00    +0.000 NA
ATOM      2  C   UNL     1      22.968  -7.890  23.956  0.00  0.00    +0.000 C 
ATOM      3  O   UNL     1      22.208  -7.537  23.020  0.00  0.00    +0.000 OA
ENDROOT
BRANCH   1   7
ATOM      4  C   UNL     1      18.981  -4.638  26.348  0.00  0.00    +0.000 C 
ATOM      5  C   UNL     1      19.367  -6.029  26.067  0.00  0.00    +0.000 A 
ATOM      6  C   UNL     1      20.688  -6.373  25.795  0.00  0.00    +0.000 A 
ATOM      7  C   UNL     1      21.063  -7.661  25.531  0.00  0.00    +0.000 A 
ATOM      8  C   UNL     1      20.119  -8.648  25.532  0.00  0.00    +0.000 A 
ATOM      9  C   UNL     1      20.494 -10.077  25.246  0.00  0.00    +0.000 C 
ATOM     10  C   UNL     1      18.807  -8.334  25.798  0.00  0.00    +0.000 A 
ATOM     11  C   UNL     1      18.447  -7.037  26.060  0.00  0.00    +0.000 A 
ATOM     12  O   UNL     1      17.101  -6.785  26.323  0.00  0.00    +0.000 OA
ENDBRANCH   1   7
BRANCH   2  13
ATOM     13  C   UNL     1      24.368  -8.217  23.758  0.00  0.00    +0.000 A 
ATOM     14  C   UNL     1      25.240  -7.324  23.167  0.00  0.00    +0.000 A 
ATOM     15  C   UNL     1      26.567  -7.656  22.988  0.00  0.00    +0.000 A 
ATOM     16  C   UNL     1      27.083  -8.872  23.381  0.00  0.00    +0.000 A 
ATOM     17 BR   UNL     1      28.932  -9.300  23.116  0.00  0.00    +0.000 Br
ATOM     18  C   UNL     1      26.217  -9.770  23.972  0.00  0.00    +0.000 A 
ATOM     19  C   UNL     1      24.891  -9.432  24.148  0.00  0.00    +0.000 A 
ENDBRANCH   2  13
TORSDOF 2
ENDMDL
MODEL 5
REMARK VINA RESULT:      -6.3      1.209      2.344
REMARK  Name = 
REMARK  2 active torsions:
REMARK  status: ('A' for Active; 'I' for Inactive)
REMARK    1  A    between atoms: C_4  and  N_5
REMARK    2  A    between atoms: C_6  and  C_8
REMARK                            x       y       z     vdW  Elec       q    Type
REMARK                         _______ _______ _______ _____ _____    ______ ____
ROOT
ATOM      1  N   UNL     1      16.375  10.560  36.459  0.00  0.00    +0.000 NA
ATOM      2  C   UNL     1      17.433  11.055  37.269  0.00  0.00    +0.000 C 
ATOM      3  O   UNL     1      17.843  12.219  37.039  0.00  0.00    +0.000 OA
ENDROOT
BRANCH   1   7
ATOM      4  C   UNL     1      16.168  11.764  31.715  0.00  0.00    +0.000 C 
ATOM      5  C   UNL     1      15.679  11.917  33.093  0.00  0.00    +0.000 A 
ATOM      6  C   UNL     1      16.231  11.188  34.142  0.00  0.00    +0.000 A 
ATOM      7  C   UNL     1      15.788  11.318  35.429  0.00  0.00    +0.000 A 
ATOM      8  C   UNL     1      14.770  12.187  35.703  0.00  0.00    +0.000 A 
ATOM      9  C   UNL     1      14.255  12.358  37.107  0.00  0.00    +0.000 C 
ATOM     10  C   UNL     1      14.207  12.919  34.684  0.00  0.00    +0.000 A 
ATOM     11  C   UNL     1      14.664  12.777  33.399  0.00  0.00    +0.000 A 
ATOM     12  O   UNL     1      14.052  13.547  32.412  0.00  0.00    +0.000 OA
ENDBRANCH   1   7
BRANCH   2  13
ATOM     13  C   UNL     1      17.985  10.212  38.313  0.00  0.00    +0.000 A 
ATOM     14  C   UNL     1      19.314   9.833  38.306  0.00  0.00    +0.000 A 
ATOM     15  C   UNL     1      19.818   9.031  39.309  0.00  0.00    +0.000 A 
ATOM     16  C   UNL     1      19.040   8.574  40.350  0.00  0.00    +0.000 A 
ATOM     17 BR   UNL     1      19.774   7.461  41.725  0.00  0.00    +0.000 Br
ATOM     18  C   UNL     1      17.711   8.948  40.364  0.00  0.00    +0.000 A 
ATOM     19  C   UNL     1      17.213   9.750  39.359  0.00  0.00    +0.000 A 
ENDBRANCH   2  13
TORSDOF 2
ENDMDL
MODEL 6
REMARK VINA RESULT:      -6.3      4.009      7.896
REMARK  Name = 
REMARK  2 active torsions:
REMARK  status: ('A' for Active; 'I' for Inactive)
REMARK    1  A    between atoms: C_4  and  N_5
REMARK    2  A    between atoms: C_6  and  C_8
REMARK                            x       y       z     vdW  Elec       q    Type
REMARK                         _______ _______ _______ _____ _____    ______ ____
ROOT
ATOM      1  N   UNL     1      19.516  10.720  37.710  0.00  0.00    +0.000 NA
ATOM      2  C   UNL     1      18.543  10.184  36.825  0.00  0.00    +0.000 C 
ATOM      3  O   UNL     1      18.868   9.179  36.145  0.00  0.00    +0.000 OA
ENDROOT
BRANCH   1   7
ATOM      4  C   UNL     1      23.949   9.877  35.802  0.00  0.00    +0.000 C 
ATOM      5  C   UNL     1      22.993   9.754  36.912  0.00  0.00    +0.000 A 
ATOM      6  C   UNL     1      21.707  10.279  36.822  0.00  0.00    +0.000 A 
ATOM      7  C   UNL     1      20.806  10.174  37.844  0.00  0.00    +0.000 A 
ATOM      8  C   UNL     1      21.171   9.534  38.996  0.00  0.00    +0.000 A 
ATOM      9  C   UNL     1      20.206   9.398  40.143  0.00  0.00    +0.000 C 
ATOM     10  C   UNL     1      22.435   9.007  39.110  0.00  0.00    +0.000 A 
ATOM     11  C   UNL     1      23.327   9.121  38.075  0.00  0.00    +0.000 A 
ATOM     12  O   UNL     1      24.592   8.565  38.252  0.00  0.00    +0.000 OA
ENDBRANCH   1   7
BRANCH   2  13
ATOM     13  C   UNL     1      17.233  10.804  36.745  0.00  0.00    +0.000 A 
ATOM     14  C   UNL     1      16.343  10.749  37.800  0.00  0.00    +0.000 A 
ATOM     15  C   UNL     1      15.103  11.345  37.701  0.00  0.00    +0.000 A 
ATOM     16  C   UNL     1      14.693  12.013  36.567  0.00  0.00    +0.000 A 
ATOM     17 BR   UNL     1      12.963  12.828  36.465  0.00  0.00    +0.000 Br
ATOM     18  C   UNL     1      15.577  12.072  35.508  0.00  0.00    +0.000 A 
ATOM     19  C   UNL     1      16.816  11.474  35.613  0.00  0.00    +0.000 A 
ENDBRANCH   2  13
TORSDOF 2
ENDMDL
MODEL 7
REMARK VINA RESULT:      -6.2     19.536     20.120
REMARK  Name = 
REMARK  2 active torsions:
REMARK  status: ('A' for Active; 'I' for Inactive)
REMARK    1  A    between atoms: C_4  and  N_5
REMARK    2  A    between atoms: C_6  and  C_8
REMARK                            x       y       z     vdW  Elec       q    Type
REMARK                         _______ _______ _______ _____ _____    ______ ____
ROOT
ATOM      1  N   UNL     1      30.415  22.105  26.958  0.00  0.00    +0.000 NA
ATOM      2  C   UNL     1      30.876  22.981  27.977  0.00  0.00    +0.000 C 
ATOM      3  O   UNL     1      30.506  24.180  27.924  0.00  0.00    +0.000 OA
ENDROOT
BRANCH   1   7
ATOM      4  C   UNL     1      25.895  22.948  25.267  0.00  0.00    +0.000 C 
ATOM      5  C   UNL     1      27.352  22.949  25.070  0.00  0.00    +0.000 A 
ATOM      6  C   UNL     1      28.219  22.536  26.077  0.00  0.00    +0.000 A 
ATOM      7  C   UNL     1      29.575  22.531  25.912  0.00  0.00    +0.000 A 
ATOM      8  C   UNL     1      30.107  22.943  24.722  0.00  0.00    +0.000 A 
ATOM      9  C   UNL     1      31.596  22.952  24.502  0.00  0.00    +0.000 C 
ATOM     10  C   UNL     1      29.272  23.356  23.711  0.00  0.00    +0.000 A 
ATOM     11  C   UNL     1      27.913  23.355  23.894  0.00  0.00    +0.000 A 
ATOM     12  O   UNL     1      27.121  23.785  22.830  0.00  0.00    +0.000 OA
ENDBRANCH   1   7
BRANCH   2  13
ATOM     13  C   UNL     1      31.739  22.465  29.024  0.00  0.00    +0.000 A 
ATOM     14  C   UNL     1      33.112  22.432  28.876  0.00  0.00    +0.000 A 
ATOM     15  C   UNL     1      33.913  21.937  29.884  0.00  0.00    +0.000 A 
ATOM     16  C   UNL     1      33.398  21.457  31.068  0.00  0.00    +0.000 A 
ATOM     17 BR   UNL     1      34.541  20.776  32.446  0.00  0.00    +0.000 Br
ATOM     18  C   UNL     1      32.026  21.486  31.224  0.00  0.00    +0.000 A 
ATOM     19  C   UNL     1      31.230  21.983  30.212  0.00  0.00    +0.000 A 
ENDBRANCH   2  13
TORSDOF 2
ENDMDL
MODEL 8
REMARK VINA RESULT:      -6.2      3.443      5.133
REMARK  Name = 
REMARK  2 active torsions:
REMARK  status: ('A' for Active; 'I' for Inactive)
REMARK    1  A    between atoms: C_4  and  N_5
REMARK    2  A    between atoms: C_6  and  C_8
REMARK                            x       y       z     vdW  Elec       q    Type
REMARK                         _______ _______ _______ _____ _____    ______ ____
ROOT
ATOM      1  N   UNL     1      18.807  10.625  37.306  0.00  0.00    +0.000 NA
ATOM      2  C   UNL     1      19.802  11.500  37.818  0.00  0.00    +0.000 C 
ATOM      3  O   UNL     1      19.414  12.564  38.362  0.00  0.00    +0.000 OA
ENDROOT
BRANCH   1   7
ATOM      4  C   UNL     1      14.834  12.775  35.408  0.00  0.00    +0.000 C 
ATOM      5  C   UNL     1      15.468  11.963  36.457  0.00  0.00    +0.000 A 
ATOM      6  C   UNL     1      16.826  11.661  36.418  0.00  0.00    +0.000 A 
ATOM      7  C   UNL     1      17.430  10.908  37.386  0.00  0.00    +0.000 A 
ATOM      8  C   UNL     1      16.686  10.433  38.429  0.00  0.00    +0.000 A 
ATOM      9  C   UNL     1      17.316   9.601  39.513  0.00  0.00    +0.000 C 
ATOM     10  C   UNL     1      15.342  10.718  38.491  0.00  0.00    +0.000 A 
ATOM     11  C   UNL     1      14.751  11.475  37.512  0.00  0.00    +0.000 A 
ATOM     12  O   UNL     1      13.386  11.729  37.633  0.00  0.00    +0.000 OA
ENDBRANCH   1   7
BRANCH   2  13
ATOM     13  C   UNL     1      21.201  11.137  37.697  0.00  0.00    +0.000 A 
ATOM     14  C   UNL     1      22.200  11.926  38.236  0.00  0.00    +0.000 A 
ATOM     15  C   UNL     1      23.524  11.562  38.109  0.00  0.00    +0.000 A 
ATOM     16  C   UNL     1      23.915  10.416  37.451  0.00  0.00    +0.000 A 
ATOM     17 BR   UNL     1      25.765   9.942  37.294  0.00  0.00    +0.000 Br
ATOM     18  C   UNL     1      22.923   9.623  36.910  0.00  0.00    +0.000 A 
ATOM     19  C   UNL     1      21.600   9.992  37.040  0.00  0.00    +0.000 A 
ENDBRANCH   2  13
TORSDOF 2
ENDMDL
MODEL 9
REMARK VINA RESULT:      -6.1     21.158     22.942
REMARK  Name = 
REMARK  2 active torsions:
REMARK  status: ('A' for Active; 'I' for Inactive)
REMARK    1  A    between atoms: C_4  and  N_5
REMARK    2  A    between atoms: C_6  and  C_8
REMARK                            x       y       z     vdW  Elec       q    Type
REMARK                         _______ _______ _______ _____ _____    ______ ____
ROOT
ATOM      1  N   UNL     1      16.047  -8.614  26.707  0.00  0.00    +0.000 NA
ATOM      2  C   UNL     1      14.940  -8.603  25.817  0.00  0.00    +0.000 C 
ATOM      3  O   UNL     1      15.105  -8.072  24.691  0.00  0.00    +0.000 OA
ENDROOT
BRANCH   1   7
ATOM      4  C   UNL     1      19.017  -4.720  26.563  0.00  0.00    +0.000 C 
ATOM      5  C   UNL     1      18.766  -6.144  26.299  0.00  0.00    +0.000 A 
ATOM      6  C   UNL     1      17.546  -6.735  26.612  0.00  0.00    +0.000 A 
ATOM      7  C   UNL     1      17.296  -8.058  26.373  0.00  0.00    +0.000 A 
ATOM      8  C   UNL     1      18.271  -8.833  25.810  0.00  0.00    +0.000 A 
ATOM      9  C   UNL     1      18.034 -10.293  25.532  0.00  0.00    +0.000 C 
ATOM     10  C   UNL     1      19.486  -8.274  25.491  0.00  0.00    +0.000 A 
ATOM     11  C   UNL     1      19.719  -6.945  25.737  0.00  0.00    +0.000 A 
ATOM     12  O   UNL     1      20.971  -6.438  25.391  0.00  0.00    +0.000 OA
ENDBRANCH   1   7
BRANCH   2  13
ATOM     13  C   UNL     1      13.684  -9.199  26.234  0.00  0.00    +0.000 A 
ATOM     14  C   UNL     1      13.616 -10.507  26.671  0.00  0.00    +0.000 A 
ATOM     15  C   UNL     1      12.411 -11.053  27.062  0.00  0.00    +0.000 A 
ATOM     16  C   UNL     1      11.234 -10.337  27.038  0.00  0.00    +0.000 A 
ATOM     17 BR   UNL     1       9.578 -11.128  27.588  0.00  0.00    +0.000 Br
ATOM     18  C   UNL     1      11.293  -9.029  26.602  0.00  0.00    +0.000 A 
ATOM     19  C   UNL     1      12.501  -8.488  26.212  0.00  0.00    +0.000 A 
ENDBRANCH   2  13
TORSDOF 2
ENDMDL
MODEL 10
REMARK VINA RESULT:      -5.9     18.578     20.588
REMARK  Name = 
REMARK  2 active torsions:
REMARK  status: ('A' for Active; 'I' for Inactive)
REMARK    1  A    between atoms: C_4  and  N_5
REMARK    2  A    between atoms: C_6  and  C_8
REMARK                            x       y       z     vdW  Elec       q    Type
REMARK                         _______ _______ _______ _____ _____    ______ ____
ROOT
ATOM      1  N   UNL     1      34.285   3.185  34.764  0.00  0.00    +0.000 NA
ATOM      2  C   UNL     1      33.944   2.193  35.722  0.00  0.00    +0.000 C 
ATOM      3  O   UNL     1      33.855   2.553  36.922  0.00  0.00    +0.000 OA
ENDROOT
BRANCH   1   7
ATOM      4  C   UNL     1      37.119   6.531  36.949  0.00  0.00    +0.000 C 
ATOM      5  C   UNL     1      35.912   6.184  36.184  0.00  0.00    +0.000 A 
ATOM      6  C   UNL     1      35.639   4.868  35.821  0.00  0.00    +0.000 A 
ATOM      7  C   UNL     1      34.522   4.528  35.109  0.00  0.00    +0.000 A 
ATOM      8  C   UNL     1      33.640   5.504  34.738  0.00  0.00    +0.000 A 
ATOM      9  C   UNL     1      32.400   5.169  33.955  0.00  0.00    +0.000 C 
ATOM     10  C   UNL     1      33.887   6.812  35.084  0.00  0.00    +0.000 A 
ATOM     11  C   UNL     1      35.013   7.136  35.798  0.00  0.00    +0.000 A 
ATOM     12  O   UNL     1      35.206   8.479  36.118  0.00  0.00    +0.000 OA
ENDBRANCH   1   7
BRANCH   2  13
ATOM     13  C   UNL     1      33.714   0.829  35.286  0.00  0.00    +0.000 A 
ATOM     14  C   UNL     1      33.812   0.471  33.955  0.00  0.00    +0.000 A 
ATOM     15  C   UNL     1      33.588  -0.833  33.563  0.00  0.00    +0.000 A 
ATOM     16  C   UNL     1      33.261  -1.828  34.459  0.00  0.00    +0.000 A 
ATOM     17 BR   UNL     1      32.957  -3.627  33.878  0.00  0.00    +0.000 Br
ATOM     18  C   UNL     1      33.161  -1.478  35.791  0.00  0.00    +0.000 A 
ATOM     19  C   UNL     1      33.386  -0.173  36.177  0.00  0.00    +0.000 A 
ENDBRANCH   2  13
TORSDOF 2
ENDMDL
