MODEL 1
REMARK VINA RESULT:      -5.4      0.000      0.000
REMARK  Name = 
REMARK  4 active torsions:
REMARK  status: ('A' for Active; 'I' for Inactive)
REMARK    1  A    between atoms: C_3  and  C_4
REMARK    2  A    between atoms: C_4  and  O_6
REMARK    3  A    between atoms: O_6  and  C_7
REMARK    4  A    between atoms: C_11  and  C_12
REMARK                            x       y       z     vdW  Elec       q    Type
REMARK                         _______ _______ _______ _____ _____    ______ ____
ROOT
ATOM      1  C   UNL     1      26.104  26.602  24.367  0.00  0.00    +0.000 C 
ATOM      2  C   UNL     1      27.099  25.950  23.390  0.00  0.00    +0.000 C 
ATOM      3  C   UNL     1      27.473  24.744  23.585  0.00  0.00    +0.000 C 
ATOM      4  C   UNL     1      28.409  23.828  22.854  0.00  0.00    +0.000 C 
ATOM      5  S   UNL     1      29.000  24.844  21.403  0.00  0.00    +0.000 S 
ATOM      6  C   UNL     1      28.281  26.442  21.455  0.00  0.00    +0.000 C 
ATOM      7  N   UNL     1      28.630  27.352  20.432  0.00  0.00    +0.000 NA
ATOM      8  N   UNL     1      27.471  26.811  22.361  0.00  0.00    +0.000 NA
ENDROOT
BRANCH   4   9
ATOM      9  C   UNL     1      29.669  23.983  23.743  0.00  0.00    +0.000 A 
ATOM     10  C   UNL     1      30.268  22.848  24.234  0.00  0.00    +0.000 A 
ATOM     11  C   UNL     1      31.398  22.909  25.047  0.00  0.00    +0.000 A 
ATOM     12  C   UNL     1      31.911  24.148  25.351  0.00  0.00    +0.000 A 
ATOM     13  C   UNL     1      31.308  25.276  24.857  0.00  0.00    +0.000 A 
ATOM     14  C   UNL     1      30.186  25.202  24.051  0.00  0.00    +0.000 A 
ENDBRANCH   4   9
BRANCH   3  15
ATOM     15  C   UNL     1      26.884  24.076  24.783  0.00  0.00    +0.000 C 
ATOM     16  O   UNL     1      26.145  23.098  24.594  0.00  0.00    +0.000 OA
BRANCH  15  17
ATOM     17  O   UNL     1      27.111  24.480  26.066  0.00  0.00    +0.000 OA
BRANCH  17  18
ATOM     18  C   UNL     1      27.555  23.650  27.095  0.00  0.00    +0.000 C 
ATOM     19  C   UNL     1      28.830  24.274  27.674  0.00  0.00    +0.000 C 
ATOM     20  C   UNL     1      27.946  22.273  26.604  0.00  0.00    +0.000 C 
ATOM     21  C   UNL     1      26.497  23.567  28.192  0.00  0.00    +0.000 C 
ENDBRANCH  17  18
ENDBRANCH  15  17
ENDBRANCH   3  15
TORSDOF 4
ENDMDL
MODEL 2
REMARK VINA RESULT:      -5.3      1.795      2.482
REMARK  Name = 
REMARK  4 active torsions:
REMARK  status: ('A' for Active; 'I' for Inactive)
REMARK    1  A    between atoms: C_3  and  C_4
REMARK    2  A    between atoms: C_4  and  O_6
REMARK    3  A    between atoms: O_6  and  C_7
REMARK    4  A    between atoms: C_11  and  C_12
REMARK                            x       y       z     vdW  Elec       q    Type
REMARK                         _______ _______ _______ _____ _____    ______ ____
ROOT
ATOM      1  C   UNL     1      27.809  27.691  23.932  0.00  0.00    +0.000 C 
ATOM      2  C   UNL     1      27.849  26.230  23.449  0.00  0.00    +0.000 C 
ATOM      3  C   UNL     1      27.160  25.346  24.062  0.00  0.00    +0.000 C 
ATOM      4  C   UNL     1      26.976  23.871  23.868  0.00  0.00    +0.000 C 
ATOM      5  S   UNL     1      28.025  23.473  22.375  0.00  0.00    +0.000 S 
ATOM      6  C   UNL     1      28.822  24.924  21.798  0.00  0.00    +0.000 C 
ATOM      7  N   UNL     1      29.670  24.803  20.673  0.00  0.00    +0.000 NA
ATOM      8  N   UNL     1      28.672  26.063  22.339  0.00  0.00    +0.000 NA
ENDROOT
BRANCH   4   9
ATOM      9  C   UNL     1      27.950  23.345  24.952  0.00  0.00    +0.000 A 
ATOM     10  C   UNL     1      27.447  22.550  25.955  0.00  0.00    +0.000 A 
ATOM     11  C   UNL     1      28.261  22.048  26.969  0.00  0.00    +0.000 A 
ATOM     12  C   UNL     1      29.598  22.367  26.944  0.00  0.00    +0.000 A 
ATOM     13  C   UNL     1      30.092  23.159  25.940  0.00  0.00    +0.000 A 
ATOM     14  C   UNL     1      29.274  23.652  24.940  0.00  0.00    +0.000 A 
ENDBRANCH   4   9
BRANCH   3  15
ATOM     15  C   UNL     1      26.363  25.845  25.222  0.00  0.00    +0.000 C 
ATOM     16  O   UNL     1      25.150  26.038  25.050  0.00  0.00    +0.000 OA
BRANCH  15  17
ATOM     17  O   UNL     1      26.893  26.101  26.453  0.00  0.00    +0.000 OA
BRANCH  17  18
ATOM     18  C   UNL     1      26.293  25.758  27.664  0.00  0.00    +0.000 C 
ATOM     19  C   UNL     1      27.398  25.256  28.601  0.00  0.00    +0.000 C 
ATOM     20  C   UNL     1      25.310  24.616  27.525  0.00  0.00    +0.000 C 
ATOM     21  C   UNL     1      25.632  26.986  28.285  0.00  0.00    +0.000 C 
ENDBRANCH  17  18
ENDBRANCH  15  17
ENDBRANCH   3  15
TORSDOF 4
ENDMDL
MODEL 3
REMARK VINA RESULT:      -5.2     33.710     35.589
REMARK  Name = 
REMARK  4 active torsions:
REMARK  status: ('A' for Active; 'I' for Inactive)
REMARK    1  A    between atoms: C_3  and  C_4
REMARK    2  A    between atoms: C_4  and  O_6
REMARK    3  A    between atoms: O_6  and  C_7
REMARK    4  A    between atoms: C_11  and  C_12
REMARK                            x       y       z     vdW  Elec       q    Type
REMARK                         _______ _______ _______ _____ _____    ______ ____
ROOT
ATOM      1  C   UNL     1      16.804 -10.939  24.764  0.00  0.00    +0.000 C 
ATOM      2  C   UNL     1      17.453 -10.391  26.048  0.00  0.00    +0.000 C 
ATOM      3  C   UNL     1      17.053  -9.277  26.529  0.00  0.00    +0.000 C 
ATOM      4  C   UNL     1      17.458  -8.471  27.727  0.00  0.00    +0.000 C 
ATOM      5  S   UNL     1      18.796  -9.494  28.534  0.00  0.00    +0.000 S 
ATOM      6  C   UNL     1      19.081 -10.952  27.602  0.00  0.00    +0.000 C 
ATOM      7  N   UNL     1      20.076 -11.842  28.066  0.00  0.00    +0.000 NA
ATOM      8  N   UNL     1      18.441 -11.238  26.543  0.00  0.00    +0.000 NA
ENDROOT
BRANCH   4   9
ATOM      9  C   UNL     1      18.379  -7.432  27.039  0.00  0.00    +0.000 A 
ATOM     10  C   UNL     1      18.049  -6.100  27.135  0.00  0.00    +0.000 A 
ATOM     11  C   UNL     1      18.824  -5.109  26.535  0.00  0.00    +0.000 A 
ATOM     12  C   UNL     1      19.943  -5.497  25.836  0.00  0.00    +0.000 A 
ATOM     13  C   UNL     1      20.265  -6.826  25.745  0.00  0.00    +0.000 A 
ATOM     14  C   UNL     1      19.487  -7.800  26.345  0.00  0.00    +0.000 A 
ENDBRANCH   4   9
BRANCH   3  15
ATOM     15  C   UNL     1      15.960  -8.604  25.766  0.00  0.00    +0.000 C 
ATOM     16  O   UNL     1      16.222  -8.190  24.626  0.00  0.00    +0.000 OA
BRANCH  15  17
ATOM     17  O   UNL     1      14.698  -8.421  26.249  0.00  0.00    +0.000 OA
BRANCH  17  18
ATOM     18  C   UNL     1      13.637  -9.305  26.060  0.00  0.00    +0.000 C 
ATOM     19  C   UNL     1      12.366  -8.617  26.570  0.00  0.00    +0.000 C 
ATOM     20  C   UNL     1      13.784 -10.573  26.872  0.00  0.00    +0.000 C 
ATOM     21  C   UNL     1      13.474  -9.615  24.574  0.00  0.00    +0.000 C 
ENDBRANCH  17  18
ENDBRANCH  15  17
ENDBRANCH   3  15
TORSDOF 4
ENDMDL
MODEL 4
REMARK VINA RESULT:      -5.0      1.849      2.238
REMARK  Name = 
REMARK  4 active torsions:
REMARK  status: ('A' for Active; 'I' for Inactive)
REMARK    1  A    between atoms: C_3  and  C_4
REMARK    2  A    between atoms: C_4  and  O_6
REMARK    3  A    between atoms: O_6  and  C_7
REMARK    4  A    between atoms: C_11  and  C_12
REMARK                            x       y       z     vdW  Elec       q    Type
REMARK                         _______ _______ _______ _____ _____    ______ ____
ROOT
ATOM      1  C   UNL     1      26.714  26.515  25.343  0.00  0.00    +0.000 C 
ATOM      2  C   UNL     1      27.497  25.322  24.765  0.00  0.00    +0.000 C 
ATOM      3  C   UNL     1      27.557  24.230  25.426  0.00  0.00    +0.000 C 
ATOM      4  C   UNL     1      28.219  22.909  25.169  0.00  0.00    +0.000 C 
ATOM      5  S   UNL     1      29.026  23.121  23.498  0.00  0.00    +0.000 S 
ATOM      6  C   UNL     1      28.735  24.741  22.892  0.00  0.00    +0.000 C 
ATOM      7  N   UNL     1      29.288  25.080  21.636  0.00  0.00    +0.000 NA
ATOM      8  N   UNL     1      28.059  25.609  23.525  0.00  0.00    +0.000 NA
ENDROOT
BRANCH   4   9
ATOM      9  C   UNL     1      29.490  23.085  26.037  0.00  0.00    +0.000 A 
ATOM     10  C   UNL     1      29.885  22.040  26.839  0.00  0.00    +0.000 A 
ATOM     11  C   UNL     1      31.012  22.128  27.654  0.00  0.00    +0.000 A 
ATOM     12  C   UNL     1      31.733  23.299  27.637  0.00  0.00    +0.000 A 
ATOM     13  C   UNL     1      31.334  24.335  26.835  0.00  0.00    +0.000 A 
ATOM     14  C   UNL     1      30.213  24.236  26.030  0.00  0.00    +0.000 A 
ENDBRANCH   4   9
BRANCH   3  15
ATOM     15  C   UNL     1      26.836  24.231  26.733  0.00  0.00    +0.000 C 
ATOM     16  O   UNL     1      25.683  23.773  26.758  0.00  0.00    +0.000 OA
BRANCH  15  17
ATOM     17  O   UNL     1      27.371  24.706  27.895  0.00  0.00    +0.000 OA
BRANCH  17  18
ATOM     18  C   UNL     1      27.349  24.031  29.115  0.00  0.00    +0.000 C 
ATOM     19  C   UNL     1      28.699  24.273  29.800  0.00  0.00    +0.000 C 
ATOM     20  C   UNL     1      27.224  22.532  28.949  0.00  0.00    +0.000 C 
ATOM     21  C   UNL     1      26.235  24.586  29.998  0.00  0.00    +0.000 C 
ENDBRANCH  17  18
ENDBRANCH  15  17
ENDBRANCH   3  15
TORSDOF 4
ENDMDL
MODEL 5
REMARK VINA RESULT:      -4.9     15.324     17.194
REMARK  Name = 
REMARK  4 active torsions:
REMARK  status: ('A' for Active; 'I' for Inactive)
REMARK    1  A    between atoms: C_3  and  C_4
REMARK    2  A    between atoms: C_4  and  O_6
REMARK    3  A    between atoms: O_6  and  C_7
REMARK    4  A    between atoms: C_11  and  C_12
REMARK                            x       y       z     vdW  Elec       q    Type
REMARK                         _______ _______ _______ _____ _____    ______ ____
ROOT
ATOM      1  C   UNL     1       9.986  24.360  24.294  0.00  0.00    +0.000 C 
ATOM      2  C   UNL     1      10.908  25.088  23.299  0.00  0.00    +0.000 C 
ATOM      3  C   UNL     1      11.023  24.644  22.107  0.00  0.00    +0.000 C 
ATOM      4  C   UNL     1      11.816  25.092  20.916  0.00  0.00    +0.000 C 
ATOM      5  S   UNL     1      12.706  26.623  21.511  0.00  0.00    +0.000 S 
ATOM      6  C   UNL     1      12.310  26.933  23.191  0.00  0.00    +0.000 C 
ATOM      7  N   UNL     1      12.909  28.054  23.809  0.00  0.00    +0.000 NA
ATOM      8  N   UNL     1      11.519  26.203  23.866  0.00  0.00    +0.000 NA
ENDROOT
BRANCH   4   9
ATOM      9  C   UNL     1      13.008  24.108  21.015  0.00  0.00    +0.000 A 
ATOM     10  C   UNL     1      13.101  23.096  20.089  0.00  0.00    +0.000 A 
ATOM     11  C   UNL     1      14.140  22.168  20.119  0.00  0.00    +0.000 A 
ATOM     12  C   UNL     1      15.086  22.288  21.109  0.00  0.00    +0.000 A 
ATOM     13  C   UNL     1      14.988  23.299  22.029  0.00  0.00    +0.000 A 
ATOM     14  C   UNL     1      13.951  24.214  21.988  0.00  0.00    +0.000 A 
ENDBRANCH   4   9
BRANCH   3  15
ATOM     15  C   UNL     1      10.223  23.421  21.799  0.00  0.00    +0.000 C 
ATOM     16  O   UNL     1       9.195  23.560  21.119  0.00  0.00    +0.000 OA
BRANCH  15  17
ATOM     17  O   UNL     1      10.557  22.168  22.222  0.00  0.00    +0.000 OA
BRANCH  17  18
ATOM     18  C   UNL     1      10.220  20.989  21.560  0.00  0.00    +0.000 C 
ATOM     19  C   UNL     1       8.842  20.551  22.071  0.00  0.00    +0.000 C 
ATOM     20  C   UNL     1      11.167  19.852  21.877  0.00  0.00    +0.000 C 
ATOM     21  C   UNL     1      10.138  21.238  20.057  0.00  0.00    +0.000 C 
ENDBRANCH  17  18
ENDBRANCH  15  17
ENDBRANCH   3  15
TORSDOF 4
ENDMDL
MODEL 6
REMARK VINA RESULT:      -4.9      2.829      3.820
REMARK  Name = 
REMARK  4 active torsions:
REMARK  status: ('A' for Active; 'I' for Inactive)
REMARK    1  A    between atoms: C_3  and  C_4
REMARK    2  A    between atoms: C_4  and  O_6
REMARK    3  A    between atoms: O_6  and  C_7
REMARK    4  A    between atoms: C_11  and  C_12
REMARK                            x       y       z     vdW  Elec       q    Type
REMARK                         _______ _______ _______ _____ _____    ______ ____
ROOT
ATOM      1  C   UNL     1      26.643  24.517  29.042  0.00  0.00    +0.000 C 
ATOM      2  C   UNL     1      26.542  24.157  27.549  0.00  0.00    +0.000 C 
ATOM      3  C   UNL     1      27.220  23.176  27.091  0.00  0.00    +0.000 C 
ATOM      4  C   UNL     1      27.359  22.572  25.725  0.00  0.00    +0.000 C 
ATOM      5  S   UNL     1      26.213  23.590  24.658  0.00  0.00    +0.000 S 
ATOM      6  C   UNL     1      25.451  24.843  25.619  0.00  0.00    +0.000 C 
ATOM      7  N   UNL     1      24.556  25.719  24.964  0.00  0.00    +0.000 NA
ATOM      8  N   UNL     1      25.667  24.994  26.862  0.00  0.00    +0.000 NA
ENDROOT
BRANCH   4   9
ATOM      9  C   UNL     1      28.691  23.231  25.286  0.00  0.00    +0.000 A 
ATOM     10  C   UNL     1      29.754  22.416  24.977  0.00  0.00    +0.000 A 
ATOM     11  C   UNL     1      30.986  22.936  24.584  0.00  0.00    +0.000 A 
ATOM     12  C   UNL     1      31.117  24.303  24.508  0.00  0.00    +0.000 A 
ATOM     13  C   UNL     1      30.052  25.109  24.818  0.00  0.00    +0.000 A 
ATOM     14  C   UNL     1      28.835  24.580  25.208  0.00  0.00    +0.000 A 
ENDBRANCH   4   9
BRANCH   3  15
ATOM     15  C   UNL     1      28.067  22.460  28.090  0.00  0.00    +0.000 C 
ATOM     16  O   UNL     1      27.495  21.907  29.042  0.00  0.00    +0.000 OA
BRANCH  15  17
ATOM     17  O   UNL     1      29.427  22.383  28.016  0.00  0.00    +0.000 OA
BRANCH  17  18
ATOM     18  C   UNL     1      30.310  23.103  28.819  0.00  0.00    +0.000 C 
ATOM     19  C   UNL     1      31.733  22.683  28.433  0.00  0.00    +0.000 C 
ATOM     20  C   UNL     1      30.159  22.777  30.289  0.00  0.00    +0.000 C 
ATOM     21  C   UNL     1      30.146  24.599  28.564  0.00  0.00    +0.000 C 
ENDBRANCH  17  18
ENDBRANCH  15  17
ENDBRANCH   3  15
TORSDOF 4
ENDMDL
MODEL 7
REMARK VINA RESULT:      -4.9     20.953     22.072
REMARK  Name = 
REMARK  4 active torsions:
REMARK  status: ('A' for Active; 'I' for Inactive)
REMARK    1  A    between atoms: C_3  and  C_4
REMARK    2  A    between atoms: C_4  and  O_6
REMARK    3  A    between atoms: O_6  and  C_7
REMARK    4  A    between atoms: C_11  and  C_12
REMARK                            x       y       z     vdW  Elec       q    Type
REMARK                         _______ _______ _______ _____ _____    ______ ____
ROOT
ATOM      1  C   UNL     1      23.841   4.463  13.189  0.00  0.00    +0.000 C 
ATOM      2  C   UNL     1      25.349   4.625  13.453  0.00  0.00    +0.000 C 
ATOM      3  C   UNL     1      25.879   4.034  14.454  0.00  0.00    +0.000 C 
ATOM      4  C   UNL     1      27.277   3.981  14.993  0.00  0.00    +0.000 C 
ATOM      5  S   UNL     1      28.265   5.026  13.801  0.00  0.00    +0.000 S 
ATOM      6  C   UNL     1      27.213   5.675  12.557  0.00  0.00    +0.000 C 
ATOM      7  N   UNL     1      27.796   6.503  11.572  0.00  0.00    +0.000 NA
ATOM      8  N   UNL     1      25.967   5.434  12.504  0.00  0.00    +0.000 NA
ENDROOT
BRANCH   4   9
ATOM      9  C   UNL     1      27.155   5.024  16.132  0.00  0.00    +0.000 A 
ATOM     10  C   UNL     1      27.797   4.774  17.321  0.00  0.00    +0.000 A 
ATOM     11  C   UNL     1      27.725   5.662  18.393  0.00  0.00    +0.000 A 
ATOM     12  C   UNL     1      26.988   6.811  18.233  0.00  0.00    +0.000 A 
ATOM     13  C   UNL     1      26.350   7.054  17.044  0.00  0.00    +0.000 A 
ATOM     14  C   UNL     1      26.429   6.164  15.987  0.00  0.00    +0.000 A 
ENDBRANCH   4   9
BRANCH   3  15
ATOM     15  C   UNL     1      24.944   3.222  15.289  0.00  0.00    +0.000 C 
ATOM     16  O   UNL     1      24.960   1.991  15.143  0.00  0.00    +0.000 OA
BRANCH  15  17
ATOM     17  O   UNL     1      24.077   3.758  16.196  0.00  0.00    +0.000 OA
BRANCH  17  18
ATOM     18  C   UNL     1      23.946   3.333  17.518  0.00  0.00    +0.000 C 
ATOM     19  C   UNL     1      23.899   4.584  18.402  0.00  0.00    +0.000 C 
ATOM     20  C   UNL     1      25.137   2.528  17.991  0.00  0.00    +0.000 C 
ATOM     21  C   UNL     1      22.646   2.551  17.688  0.00  0.00    +0.000 C 
ENDBRANCH  17  18
ENDBRANCH  15  17
ENDBRANCH   3  15
TORSDOF 4
ENDMDL
MODEL 8
REMARK VINA RESULT:      -4.9     16.146     18.317
REMARK  Name = 
REMARK  4 active torsions:
REMARK  status: ('A' for Active; 'I' for Inactive)
REMARK    1  A    between atoms: C_3  and  C_4
REMARK    2  A    between atoms: C_4  and  O_6
REMARK    3  A    between atoms: O_6  and  C_7
REMARK    4  A    between atoms: C_11  and  C_12
REMARK                            x       y       z     vdW  Elec       q    Type
REMARK                         _______ _______ _______ _____ _____    ______ ____
ROOT
ATOM      1  C   UNL     1      14.094  21.679  20.360  0.00  0.00    +0.000 C 
ATOM      2  C   UNL     1      13.423  22.869  21.070  0.00  0.00    +0.000 C 
ATOM      3  C   UNL     1      12.216  22.761  21.475  0.00  0.00    +0.000 C 
ATOM      4  C   UNL     1      11.281  23.699  22.178  0.00  0.00    +0.000 C 
ATOM      5  S   UNL     1      12.295  25.247  22.434  0.00  0.00    +0.000 S 
ATOM      6  C   UNL     1      13.897  25.034  21.754  0.00  0.00    +0.000 C 
ATOM      7  N   UNL     1      14.798  26.119  21.850  0.00  0.00    +0.000 NA
ATOM      8  N   UNL     1      14.276  23.962  21.188  0.00  0.00    +0.000 NA
ENDROOT
BRANCH   4   9
ATOM      9  C   UNL     1      10.451  24.192  20.967  0.00  0.00    +0.000 A 
ATOM     10  C   UNL     1       9.079  24.156  21.054  0.00  0.00    +0.000 A 
ATOM     11  C   UNL     1       8.267  24.575  20.001  0.00  0.00    +0.000 A 
ATOM     12  C   UNL     1       8.876  25.034  18.857  0.00  0.00    +0.000 A 
ATOM     13  C   UNL     1      10.244  25.068  18.778  0.00  0.00    +0.000 A 
ATOM     14  C   UNL     1      11.039  24.649  19.830  0.00  0.00    +0.000 A 
ENDBRANCH   4   9
BRANCH   3  15
ATOM     15  C   UNL     1      11.565  21.445  21.205  0.00  0.00    +0.000 C 
ATOM     16  O   UNL     1      11.676  20.558  22.064  0.00  0.00    +0.000 OA
BRANCH  15  17
ATOM     17  O   UNL     1      10.859  21.166  20.071  0.00  0.00    +0.000 OA
BRANCH  17  18
ATOM     18  C   UNL     1       9.681  20.421  20.030  0.00  0.00    +0.000 C 
ATOM     19  C   UNL     1       8.778  21.044  18.959  0.00  0.00    +0.000 C 
ATOM     20  C   UNL     1       8.904  20.489  21.327  0.00  0.00    +0.000 C 
ATOM     21  C   UNL     1       9.990  18.977  19.644  0.00  0.00    +0.000 C 
ENDBRANCH  17  18
ENDBRANCH  15  17
ENDBRANCH   3  15
TORSDOF 4
ENDMDL
MODEL 9
REMARK VINA RESULT:      -4.9     21.343     23.390
REMARK  Name = 
REMARK  4 active torsions:
REMARK  status: ('A' for Active; 'I' for Inactive)
REMARK    1  A    between atoms: C_3  and  C_4
REMARK    2  A    between atoms: C_4  and  O_6
REMARK    3  A    between atoms: O_6  and  C_7
REMARK    4  A    between atoms: C_11  and  C_12
REMARK                            x       y       z     vdW  Elec       q    Type
REMARK                         _______ _______ _______ _____ _____    ______ ____
ROOT
ATOM      1  C   UNL     1      21.123   7.741  40.451  0.00  0.00    +0.000 C 
ATOM      2  C   UNL     1      20.958   9.117  39.780  0.00  0.00    +0.000 C 
ATOM      3  C   UNL     1      19.801   9.655  39.725  0.00  0.00    +0.000 C 
ATOM      4  C   UNL     1      19.295  10.947  39.155  0.00  0.00    +0.000 C 
ATOM      5  S   UNL     1      20.825  11.774  38.473  0.00  0.00    +0.000 S 
ATOM      6  C   UNL     1      22.225  10.749  38.725  0.00  0.00    +0.000 C 
ATOM      7  N   UNL     1      23.473  11.218  38.257  0.00  0.00    +0.000 NA
ATOM      8  N   UNL     1      22.165   9.620  39.303  0.00  0.00    +0.000 NA
ENDROOT
BRANCH   4   9
ATOM      9  C   UNL     1      18.722  10.430  37.812  0.00  0.00    +0.000 A 
ATOM     10  C   UNL     1      17.390  10.640  37.544  0.00  0.00    +0.000 A 
ATOM     11  C   UNL     1      16.802  10.196  36.361  0.00  0.00    +0.000 A 
ATOM     12  C   UNL     1      17.594   9.533  35.453  0.00  0.00    +0.000 A 
ATOM     13  C   UNL     1      18.921   9.327  35.728  0.00  0.00    +0.000 A 
ATOM     14  C   UNL     1      19.493   9.773  36.906  0.00  0.00    +0.000 A 
ENDBRANCH   4   9
BRANCH   3  15
ATOM     15  C   UNL     1      18.695   8.863  40.340  0.00  0.00    +0.000 C 
ATOM     16  O   UNL     1      18.289   7.865  39.725  0.00  0.00    +0.000 OA
BRANCH  15  17
ATOM     17  O   UNL     1      18.109   9.174  41.532  0.00  0.00    +0.000 OA
BRANCH  17  18
ATOM     18  C   UNL     1      16.746   9.059  41.803  0.00  0.00    +0.000 C 
ATOM     19  C   UNL     1      16.458   9.871  43.071  0.00  0.00    +0.000 C 
ATOM     20  C   UNL     1      16.332   7.636  42.111  0.00  0.00    +0.000 C 
ATOM     21  C   UNL     1      15.933   9.634  40.646  0.00  0.00    +0.000 C 
ENDBRANCH  17  18
ENDBRANCH  15  17
ENDBRANCH   3  15
TORSDOF 4
ENDMDL
MODEL 10
REMARK VINA RESULT:      -4.7      3.472      4.863
REMARK  Name = 
REMARK  4 active torsions:
REMARK  status: ('A' for Active; 'I' for Inactive)
REMARK    1  A    between atoms: C_3  and  C_4
REMARK    2  A    between atoms: C_4  and  O_6
REMARK    3  A    between atoms: O_6  and  C_7
REMARK    4  A    between atoms: C_11  and  C_12
REMARK                            x       y       z     vdW  Elec       q    Type
REMARK                         _______ _______ _______ _____ _____    ______ ____
ROOT
ATOM      1  C   UNL     1      28.784  25.870  28.367  0.00  0.00    +0.000 C 
ATOM      2  C   UNL     1      29.453  24.740  27.563  0.00  0.00    +0.000 C 
ATOM      3  C   UNL     1      29.679  23.616  28.126  0.00  0.00    +0.000 C 
ATOM      4  C   UNL     1      30.303  22.338  27.652  0.00  0.00    +0.000 C 
ATOM      5  S   UNL     1      30.728  22.672  25.865  0.00  0.00    +0.000 S 
ATOM      6  C   UNL     1      30.275  24.311  25.437  0.00  0.00    +0.000 C 
ATOM      7  N   UNL     1      30.537  24.740  24.116  0.00  0.00    +0.000 NA
ATOM      8  N   UNL     1      29.729  25.118  26.252  0.00  0.00    +0.000 NA
ENDROOT
BRANCH   4   9
ATOM      9  C   UNL     1      31.726  22.511  28.240  0.00  0.00    +0.000 A 
ATOM     10  C   UNL     1      32.195  21.558  29.113  0.00  0.00    +0.000 A 
ATOM     11  C   UNL     1      33.461  21.652  29.688  0.00  0.00    +0.000 A 
ATOM     12  C   UNL     1      34.243  22.733  29.359  0.00  0.00    +0.000 A 
ATOM     13  C   UNL     1      33.769  23.679  28.487  0.00  0.00    +0.000 A 
ATOM     14  C   UNL     1      32.510  23.575  27.923  0.00  0.00    +0.000 A 
ENDBRANCH   4   9
BRANCH   3  15
ATOM     15  C   UNL     1      29.255  23.518  29.555  0.00  0.00    +0.000 C 
ATOM     16  O   UNL     1      29.795  24.280  30.371  0.00  0.00    +0.000 OA
BRANCH  15  17
ATOM     17  O   UNL     1      28.314  22.641  30.008  0.00  0.00    +0.000 OA
BRANCH  17  18
ATOM     18  C   UNL     1      26.937  22.857  29.962  0.00  0.00    +0.000 C 
ATOM     19  C   UNL     1      26.254  21.589  30.485  0.00  0.00    +0.000 C 
ATOM     20  C   UNL     1      26.427  23.058  28.551  0.00  0.00    +0.000 C 
ATOM     21  C   UNL     1      26.562  24.033  30.860  0.00  0.00    +0.000 C 
ENDBRANCH  17  18
ENDBRANCH  15  17
ENDBRANCH   3  15
TORSDOF 4
ENDMDL
