MODEL 1
REMARK VINA RESULT:      -5.9      0.000      0.000
REMARK  Name = 
REMARK  4 active torsions:
REMARK  status: ('A' for Active; 'I' for Inactive)
REMARK    1  A    between atoms: C_2  and  C_3
REMARK    2  A    between atoms: C_3  and  N_4
REMARK    3  A    between atoms: N_4  and  C_5
REMARK    4  A    between atoms: C_9  and  C_10
REMARK                            x       y       z     vdW  Elec       q    Type
REMARK                         _______ _______ _______ _____ _____    ______ ____
ROOT
ATOM      1  C   UNL     1      16.600  10.910  37.943  0.00  0.00    +0.000 A 
ATOM      2  C   UNL     1      17.736  10.419  38.648  0.00  0.00    +0.000 A 
ATOM      3  C   UNL     1      17.588   9.751  39.801  0.00  0.00    +0.000 A 
ATOM      4  C   UNL     1      18.770   9.218  40.570  0.00  0.00    +0.000 C 
ATOM      5  C   UNL     1      16.319   9.552  40.284  0.00  0.00    +0.000 A 
ATOM      6  C   UNL     1      15.221  10.038  39.584  0.00  0.00    +0.000 A 
ATOM      7  N   UNL     1      13.898   9.988  39.821  0.00  0.00    +0.000 NA
ATOM      8  C   UNL     1      13.219  10.597  38.862  0.00  0.00    +0.000 A 
ATOM      9  C   UNL     1      11.890  10.848  38.590  0.00  0.00    +0.000 A 
ATOM     10  C   UNL     1      11.483  11.533  37.473  0.00  0.00    +0.000 A 
ATOM     11  C   UNL     1      12.414  11.999  36.574  0.00  0.00    +0.000 A 
ATOM     12  C   UNL     1      13.718  11.760  36.829  0.00  0.00    +0.000 A 
ATOM     13  C   UNL     1      14.159  11.073  37.947  0.00  0.00    +0.000 A 
ATOM     14  N   UNL     1      15.360  10.714  38.419  0.00  0.00    +0.000 N 
ENDROOT
BRANCH   5  15
ATOM     15  C   UNL     1      16.106   8.850  41.501  0.00  0.00    +0.000 C 
ATOM     16  N   UNL     1      15.949   8.268  42.489  0.00  0.00    +0.000 NA
ENDBRANCH   5  15
BRANCH   1  17
ATOM     17  N   UNL     1      16.832  11.594  36.756  0.00  0.00    +0.000 NA
BRANCH  17  18
ATOM     18  C   UNL     1      17.237  11.357  35.472  0.00  0.00    +0.000 C 
BRANCH  18  20
ATOM     19  C   UNL     1      17.836   8.992  35.168  0.00  0.00    +0.000 C 
ATOM     20  C   UNL     1      17.000  10.018  34.921  0.00  0.00    +0.000 C 
ENDBRANCH  18  20
ENDBRANCH  17  18
ENDBRANCH   1  17
TORSDOF 4
ENDMDL
MODEL 2
REMARK VINA RESULT:      -5.8     18.993     22.175
REMARK  Name = 
REMARK  4 active torsions:
REMARK  status: ('A' for Active; 'I' for Inactive)
REMARK    1  A    between atoms: C_2  and  C_3
REMARK    2  A    between atoms: C_3  and  N_4
REMARK    3  A    between atoms: N_4  and  C_5
REMARK    4  A    between atoms: C_9  and  C_10
REMARK                            x       y       z     vdW  Elec       q    Type
REMARK                         _______ _______ _______ _____ _____    ______ ____
ROOT
ATOM      1  C   UNL     1      27.589  23.307  26.714  0.00  0.00    +0.000 A 
ATOM      2  C   UNL     1      28.794  22.694  26.267  0.00  0.00    +0.000 A 
ATOM      3  C   UNL     1      29.272  22.944  25.039  0.00  0.00    +0.000 A 
ATOM      4  C   UNL     1      30.545  22.311  24.537  0.00  0.00    +0.000 C 
ATOM      5  C   UNL     1      28.573  23.801  24.226  0.00  0.00    +0.000 A 
ATOM      6  C   UNL     1      27.399  24.390  24.678  0.00  0.00    +0.000 A 
ATOM      7  N   UNL     1      26.534  25.247  24.106  0.00  0.00    +0.000 NA
ATOM      8  C   UNL     1      25.539  25.540  24.928  0.00  0.00    +0.000 A 
ATOM      9  C   UNL     1      24.410  26.331  24.882  0.00  0.00    +0.000 A 
ATOM     10  C   UNL     1      23.537  26.433  25.935  0.00  0.00    +0.000 A 
ATOM     11  C   UNL     1      23.772  25.729  27.094  0.00  0.00    +0.000 A 
ATOM     12  C   UNL     1      24.873  24.952  27.153  0.00  0.00    +0.000 A 
ATOM     13  C   UNL     1      25.772  24.829  26.106  0.00  0.00    +0.000 A 
ATOM     14  N   UNL     1      26.908  24.144  25.916  0.00  0.00    +0.000 N 
ENDROOT
BRANCH   5  15
ATOM     15  C   UNL     1      29.036  24.099  22.916  0.00  0.00    +0.000 C 
ATOM     16  N   UNL     1      29.421  24.324  21.848  0.00  0.00    +0.000 NA
ENDBRANCH   5  15
BRANCH   1  17
ATOM     17  N   UNL     1      27.155  23.000  27.998  0.00  0.00    +0.000 NA
BRANCH  17  18
ATOM     18  C   UNL     1      27.592  22.367  29.128  0.00  0.00    +0.000 C 
BRANCH  18  20
ATOM     19  C   UNL     1      26.090  21.207  30.692  0.00  0.00    +0.000 C 
ATOM     20  C   UNL     1      26.690  22.343  30.285  0.00  0.00    +0.000 C 
ENDBRANCH  18  20
ENDBRANCH  17  18
ENDBRANCH   1  17
TORSDOF 4
ENDMDL
MODEL 3
REMARK VINA RESULT:      -5.7      1.913      4.732
REMARK  Name = 
REMARK  4 active torsions:
REMARK  status: ('A' for Active; 'I' for Inactive)
REMARK    1  A    between atoms: C_2  and  C_3
REMARK    2  A    between atoms: C_3  and  N_4
REMARK    3  A    between atoms: N_4  and  C_5
REMARK    4  A    between atoms: C_9  and  C_10
REMARK                            x       y       z     vdW  Elec       q    Type
REMARK                         _______ _______ _______ _____ _____    ______ ____
ROOT
ATOM      1  C   UNL     1      17.286   9.716  39.649  0.00  0.00    +0.000 A 
ATOM      2  C   UNL     1      18.527   9.174  40.090  0.00  0.00    +0.000 A 
ATOM      3  C   UNL     1      19.611   9.219  39.301  0.00  0.00    +0.000 A 
ATOM      4  C   UNL     1      20.938   8.654  39.739  0.00  0.00    +0.000 C 
ATOM      5  C   UNL     1      19.494   9.798  38.062  0.00  0.00    +0.000 A 
ATOM      6  C   UNL     1      18.277  10.323  37.647  0.00  0.00    +0.000 A 
ATOM      7  N   UNL     1      17.889  10.932  36.513  0.00  0.00    +0.000 NA
ATOM      8  C   UNL     1      16.610  11.267  36.565  0.00  0.00    +0.000 A 
ATOM      9  C   UNL     1      15.710  11.889  35.725  0.00  0.00    +0.000 A 
ATOM     10  C   UNL     1      14.400  12.101  36.075  0.00  0.00    +0.000 A 
ATOM     11  C   UNL     1      13.940  11.687  37.304  0.00  0.00    +0.000 A 
ATOM     12  C   UNL     1      14.811  11.077  38.135  0.00  0.00    +0.000 A 
ATOM     13  C   UNL     1      16.138  10.849  37.810  0.00  0.00    +0.000 A 
ATOM     14  N   UNL     1      17.177  10.282  38.437  0.00  0.00    +0.000 N 
ENDROOT
BRANCH   5  15
ATOM     15  C   UNL     1      20.612   9.871  37.187  0.00  0.00    +0.000 C 
ATOM     16  N   UNL     1      21.511   9.939  36.460  0.00  0.00    +0.000 NA
ENDBRANCH   5  15
BRANCH   1  17
ATOM     17  N   UNL     1      16.207   9.632  40.521  0.00  0.00    +0.000 NA
BRANCH  17  18
ATOM     18  C   UNL     1      15.656   8.768  41.425  0.00  0.00    +0.000 C 
BRANCH  18  20
ATOM     19  C   UNL     1      16.578  10.031  43.322  0.00  0.00    +0.000 C 
ATOM     20  C   UNL     1      16.085   8.881  42.823  0.00  0.00    +0.000 C 
ENDBRANCH  18  20
ENDBRANCH  17  18
ENDBRANCH   1  17
TORSDOF 4
ENDMDL
MODEL 4
REMARK VINA RESULT:      -5.7     19.192     21.999
REMARK  Name = 
REMARK  4 active torsions:
REMARK  status: ('A' for Active; 'I' for Inactive)
REMARK    1  A    between atoms: C_2  and  C_3
REMARK    2  A    between atoms: C_3  and  N_4
REMARK    3  A    between atoms: N_4  and  C_5
REMARK    4  A    between atoms: C_9  and  C_10
REMARK                            x       y       z     vdW  Elec       q    Type
REMARK                         _______ _______ _______ _____ _____    ______ ____
ROOT
ATOM      1  C   UNL     1      29.718  22.877  26.663  0.00  0.00    +0.000 A 
ATOM      2  C   UNL     1      30.109  22.748  28.027  0.00  0.00    +0.000 A 
ATOM      3  C   UNL     1      29.194  22.785  29.006  0.00  0.00    +0.000 A 
ATOM      4  C   UNL     1      29.576  22.650  30.458  0.00  0.00    +0.000 C 
ATOM      5  C   UNL     1      27.875  22.951  28.663  0.00  0.00    +0.000 A 
ATOM      6  C   UNL     1      27.510  23.076  27.328  0.00  0.00    +0.000 A 
ATOM      7  N   UNL     1      26.321  23.244  26.724  0.00  0.00    +0.000 NA
ATOM      8  C   UNL     1      26.461  23.313  25.410  0.00  0.00    +0.000 A 
ATOM      9  C   UNL     1      25.620  23.474  24.327  0.00  0.00    +0.000 A 
ATOM     10  C   UNL     1      26.080  23.507  23.035  0.00  0.00    +0.000 A 
ATOM     11  C   UNL     1      27.426  23.376  22.780  0.00  0.00    +0.000 A 
ATOM     12  C   UNL     1      28.259  23.218  23.830  0.00  0.00    +0.000 A 
ATOM     13  C   UNL     1      27.825  23.182  25.145  0.00  0.00    +0.000 A 
ATOM     14  N   UNL     1      28.428  23.039  26.332  0.00  0.00    +0.000 N 
ENDROOT
BRANCH   5  15
ATOM     15  C   UNL     1      26.866  22.997  29.663  0.00  0.00    +0.000 C 
ATOM     16  N   UNL     1      26.030  23.038  30.463  0.00  0.00    +0.000 NA
ENDBRANCH   5  15
BRANCH   1  17
ATOM     17  N   UNL     1      30.723  22.830  25.704  0.00  0.00    +0.000 NA
BRANCH  17  18
ATOM     18  C   UNL     1      31.770  23.579  25.246  0.00  0.00    +0.000 C 
BRANCH  18  20
ATOM     19  C   UNL     1      30.802  25.718  24.517  0.00  0.00    +0.000 C 
ATOM     20  C   UNL     1      31.645  25.039  25.319  0.00  0.00    +0.000 C 
ENDBRANCH  18  20
ENDBRANCH  17  18
ENDBRANCH   1  17
TORSDOF 4
ENDMDL
MODEL 5
REMARK VINA RESULT:      -5.6      2.092      4.893
REMARK  Name = 
REMARK  4 active torsions:
REMARK  status: ('A' for Active; 'I' for Inactive)
REMARK    1  A    between atoms: C_2  and  C_3
REMARK    2  A    between atoms: C_3  and  N_4
REMARK    3  A    between atoms: N_4  and  C_5
REMARK    4  A    between atoms: C_9  and  C_10
REMARK                            x       y       z     vdW  Elec       q    Type
REMARK                         _______ _______ _______ _____ _____    ______ ____
ROOT
ATOM      1  C   UNL     1      17.642  10.344  37.026  0.00  0.00    +0.000 A 
ATOM      2  C   UNL     1      17.186  10.946  35.819  0.00  0.00    +0.000 A 
ATOM      3  C   UNL     1      15.945  11.449  35.733  0.00  0.00    +0.000 A 
ATOM      4  C   UNL     1      15.433  12.093  34.470  0.00  0.00    +0.000 C 
ATOM      5  C   UNL     1      15.129  11.368  36.834  0.00  0.00    +0.000 A 
ATOM      6  C   UNL     1      15.589  10.777  38.004  0.00  0.00    +0.000 A 
ATOM      7  N   UNL     1      15.017  10.568  39.202  0.00  0.00    +0.000 NA
ATOM      8  C   UNL     1      15.850   9.957  40.029  0.00  0.00    +0.000 A 
ATOM      9  C   UNL     1      15.809   9.509  41.333  0.00  0.00    +0.000 A 
ATOM     10  C   UNL     1      16.875   8.889  41.934  0.00  0.00    +0.000 A 
ATOM     11  C   UNL     1      18.042   8.694  41.233  0.00  0.00    +0.000 A 
ATOM     12  C   UNL     1      18.097   9.128  39.956  0.00  0.00    +0.000 A 
ATOM     13  C   UNL     1      17.037   9.756  39.322  0.00  0.00    +0.000 A 
ATOM     14  N   UNL     1      16.840  10.266  38.100  0.00  0.00    +0.000 N 
ENDROOT
BRANCH   5  15
ATOM     15  C   UNL     1      13.805  11.885  36.796  0.00  0.00    +0.000 C 
ATOM     16  N   UNL     1      12.726  12.303  36.784  0.00  0.00    +0.000 NA
ENDBRANCH   5  15
BRANCH   1  17
ATOM     17  N   UNL     1      18.939   9.844  37.039  0.00  0.00    +0.000 NA
BRANCH  17  18
ATOM     18  C   UNL     1      20.215  10.251  37.309  0.00  0.00    +0.000 C 
BRANCH  18  20
ATOM     19  C   UNL     1      22.587   9.950  36.734  0.00  0.00    +0.000 C 
ATOM     20  C   UNL     1      21.287   9.742  36.447  0.00  0.00    +0.000 C 
ENDBRANCH  18  20
ENDBRANCH  17  18
ENDBRANCH   1  17
TORSDOF 4
ENDMDL
MODEL 6
REMARK VINA RESULT:      -5.6     20.765     23.751
REMARK  Name = 
REMARK  4 active torsions:
REMARK  status: ('A' for Active; 'I' for Inactive)
REMARK    1  A    between atoms: C_2  and  C_3
REMARK    2  A    between atoms: C_3  and  N_4
REMARK    3  A    between atoms: N_4  and  C_5
REMARK    4  A    between atoms: C_9  and  C_10
REMARK                            x       y       z     vdW  Elec       q    Type
REMARK                         _______ _______ _______ _____ _____    ______ ____
ROOT
ATOM      1  C   UNL     1      20.632  -9.307  26.038  0.00  0.00    +0.000 A 
ATOM      2  C   UNL     1      19.364  -9.176  26.675  0.00  0.00    +0.000 A 
ATOM      3  C   UNL     1      18.784  -7.973  26.799  0.00  0.00    +0.000 A 
ATOM      4  C   UNL     1      17.443  -7.802  27.467  0.00  0.00    +0.000 C 
ATOM      5  C   UNL     1      19.439  -6.876  26.299  0.00  0.00    +0.000 A 
ATOM      6  C   UNL     1      20.675  -7.021  25.681  0.00  0.00    +0.000 A 
ATOM      7  N   UNL     1      21.517  -6.138  25.116  0.00  0.00    +0.000 NA
ATOM      8  C   UNL     1      22.596  -6.743  24.646  0.00  0.00    +0.000 A 
ATOM      9  C   UNL     1      23.749  -6.356  23.994  0.00  0.00    +0.000 A 
ATOM     10  C   UNL     1      24.721  -7.250  23.622  0.00  0.00    +0.000 A 
ATOM     11  C   UNL     1      24.567  -8.589  23.898  0.00  0.00    +0.000 A 
ATOM     12  C   UNL     1      23.444  -8.981  24.536  0.00  0.00    +0.000 A 
ATOM     13  C   UNL     1      22.445  -8.102  24.924  0.00  0.00    +0.000 A 
ATOM     14  N   UNL     1      21.269  -8.231  25.551  0.00  0.00    +0.000 N 
ENDROOT
BRANCH   5  15
ATOM     15  C   UNL     1      18.868  -5.579  26.405  0.00  0.00    +0.000 C 
ATOM     16  N   UNL     1      18.409  -4.518  26.473  0.00  0.00    +0.000 NA
ENDBRANCH   5  15
BRANCH   1  17
ATOM     17  N   UNL     1      21.171 -10.585  25.947  0.00  0.00    +0.000 NA
BRANCH  17  18
ATOM     18  C   UNL     1      21.618 -11.593  26.754  0.00  0.00    +0.000 C 
BRANCH  18  20
ATOM     19  C   UNL     1      24.031 -11.462  27.207  0.00  0.00    +0.000 C 
ATOM     20  C   UNL     1      22.761 -11.308  27.628  0.00  0.00    +0.000 C 
ENDBRANCH  18  20
ENDBRANCH  17  18
ENDBRANCH   1  17
TORSDOF 4
ENDMDL
MODEL 7
REMARK VINA RESULT:      -5.5      3.319      5.406
REMARK  Name = 
REMARK  4 active torsions:
REMARK  status: ('A' for Active; 'I' for Inactive)
REMARK    1  A    between atoms: C_2  and  C_3
REMARK    2  A    between atoms: C_3  and  N_4
REMARK    3  A    between atoms: N_4  and  C_5
REMARK    4  A    between atoms: C_9  and  C_10
REMARK                            x       y       z     vdW  Elec       q    Type
REMARK                         _______ _______ _______ _____ _____    ______ ____
ROOT
ATOM      1  C   UNL     1      19.359   9.761  37.211  0.00  0.00    +0.000 A 
ATOM      2  C   UNL     1      20.552   9.801  36.433  0.00  0.00    +0.000 A 
ATOM      3  C   UNL     1      21.755   9.770  37.026  0.00  0.00    +0.000 A 
ATOM      4  C   UNL     1      23.034   9.811  36.230  0.00  0.00    +0.000 C 
ATOM      5  C   UNL     1      21.808   9.699  38.395  0.00  0.00    +0.000 A 
ATOM      6  C   UNL     1      20.635   9.660  39.139  0.00  0.00    +0.000 A 
ATOM      7  N   UNL     1      20.400   9.592  40.462  0.00  0.00    +0.000 NA
ATOM      8  C   UNL     1      19.102   9.579  40.715  0.00  0.00    +0.000 A 
ATOM      9  C   UNL     1      18.308   9.521  41.842  0.00  0.00    +0.000 A 
ATOM     10  C   UNL     1      16.938   9.525  41.780  0.00  0.00    +0.000 A 
ATOM     11  C   UNL     1      16.304   9.589  40.560  0.00  0.00    +0.000 A 
ATOM     12  C   UNL     1      17.068   9.646  39.450  0.00  0.00    +0.000 A 
ATOM     13  C   UNL     1      18.453   9.644  39.480  0.00  0.00    +0.000 A 
ATOM     14  N   UNL     1      19.416   9.692  38.550  0.00  0.00    +0.000 N 
ENDROOT
BRANCH   5  15
ATOM     15  C   UNL     1      23.057   9.664  39.072  0.00  0.00    +0.000 C 
ATOM     16  N   UNL     1      24.081   9.621  39.611  0.00  0.00    +0.000 NA
ENDBRANCH   5  15
BRANCH   1  17
ATOM     17  N   UNL     1      18.150   9.798  36.527  0.00  0.00    +0.000 NA
BRANCH  17  18
ATOM     18  C   UNL     1      17.553   9.253  35.425  0.00  0.00    +0.000 C 
BRANCH  18  20
ATOM     19  C   UNL     1      16.864  11.140  34.006  0.00  0.00    +0.000 C 
ATOM     20  C   UNL     1      17.599  10.024  34.178  0.00  0.00    +0.000 C 
ENDBRANCH  18  20
ENDBRANCH  17  18
ENDBRANCH   1  17
TORSDOF 4
ENDMDL
MODEL 8
REMARK VINA RESULT:      -5.5      3.478      6.376
REMARK  Name = 
REMARK  4 active torsions:
REMARK  status: ('A' for Active; 'I' for Inactive)
REMARK    1  A    between atoms: C_2  and  C_3
REMARK    2  A    between atoms: C_3  and  N_4
REMARK    3  A    between atoms: N_4  and  C_5
REMARK    4  A    between atoms: C_9  and  C_10
REMARK                            x       y       z     vdW  Elec       q    Type
REMARK                         _______ _______ _______ _____ _____    ______ ____
ROOT
ATOM      1  C   UNL     1      19.037   9.624  37.456  0.00  0.00    +0.000 A 
ATOM      2  C   UNL     1      17.837   9.542  38.220  0.00  0.00    +0.000 A 
ATOM      3  C   UNL     1      17.876   9.586  39.560  0.00  0.00    +0.000 A 
ATOM      4  C   UNL     1      16.625   9.502  40.395  0.00  0.00    +0.000 C 
ATOM      5  C   UNL     1      19.097   9.713  40.175  0.00  0.00    +0.000 A 
ATOM      6  C   UNL     1      20.257   9.792  39.415  0.00  0.00    +0.000 A 
ATOM      7  N   UNL     1      21.554   9.917  39.748  0.00  0.00    +0.000 NA
ATOM      8  C   UNL     1      22.322   9.951  38.670  0.00  0.00    +0.000 A 
ATOM      9  C   UNL     1      23.673  10.062  38.414  0.00  0.00    +0.000 A 
ATOM     10  C   UNL     1      24.184  10.068  37.141  0.00  0.00    +0.000 A 
ATOM     11  C   UNL     1      23.340   9.960  36.060  0.00  0.00    +0.000 A 
ATOM     12  C   UNL     1      22.015   9.851  36.297  0.00  0.00    +0.000 A 
ATOM     13  C   UNL     1      21.470   9.842  37.570  0.00  0.00    +0.000 A 
ATOM     14  N   UNL     1      20.228   9.748  38.062  0.00  0.00    +0.000 N 
ENDROOT
BRANCH   5  15
ATOM     15  C   UNL     1      19.194   9.766  41.592  0.00  0.00    +0.000 C 
ATOM     16  N   UNL     1      19.253   9.807  42.747  0.00  0.00    +0.000 NA
ENDBRANCH   5  15
BRANCH   1  17
ATOM     17  N   UNL     1      18.917   9.570  36.073  0.00  0.00    +0.000 NA
BRANCH  17  18
ATOM     18  C   UNL     1      17.973   9.342  35.111  0.00  0.00    +0.000 C 
BRANCH  18  20
ATOM     19  C   UNL     1      16.782  10.604  33.369  0.00  0.00    +0.000 C 
ATOM     20  C   UNL     1      17.183  10.489  34.649  0.00  0.00    +0.000 C 
ENDBRANCH  18  20
ENDBRANCH  17  18
ENDBRANCH   1  17
TORSDOF 4
ENDMDL
MODEL 9
REMARK VINA RESULT:      -5.5     19.722     21.790
REMARK  Name = 
REMARK  4 active torsions:
REMARK  status: ('A' for Active; 'I' for Inactive)
REMARK    1  A    between atoms: C_2  and  C_3
REMARK    2  A    between atoms: C_3  and  N_4
REMARK    3  A    between atoms: N_4  and  C_5
REMARK    4  A    between atoms: C_9  and  C_10
REMARK                            x       y       z     vdW  Elec       q    Type
REMARK                         _______ _______ _______ _____ _____    ______ ____
ROOT
ATOM      1  C   UNL     1      28.393  22.769  28.885  0.00  0.00    +0.000 A 
ATOM      2  C   UNL     1      28.901  22.630  30.208  0.00  0.00    +0.000 A 
ATOM      3  C   UNL     1      30.212  22.445  30.420  0.00  0.00    +0.000 A 
ATOM      4  C   UNL     1      30.780  22.295  31.808  0.00  0.00    +0.000 C 
ATOM      5  C   UNL     1      31.050  22.392  29.334  0.00  0.00    +0.000 A 
ATOM      6  C   UNL     1      30.538  22.530  28.050  0.00  0.00    +0.000 A 
ATOM      7  N   UNL     1      31.116  22.519  26.835  0.00  0.00    +0.000 NA
ATOM      8  C   UNL     1      30.218  22.689  25.879  0.00  0.00    +0.000 A 
ATOM      9  C   UNL     1      30.233  22.761  24.501  0.00  0.00    +0.000 A 
ATOM     10  C   UNL     1      29.095  22.951  23.760  0.00  0.00    +0.000 A 
ATOM     11  C   UNL     1      27.878  23.078  24.388  0.00  0.00    +0.000 A 
ATOM     12  C   UNL     1      27.848  23.010  25.736  0.00  0.00    +0.000 A 
ATOM     13  C   UNL     1      28.980  22.818  26.511  0.00  0.00    +0.000 A 
ATOM     14  N   UNL     1      29.215  22.717  27.825  0.00  0.00    +0.000 N 
ENDROOT
BRANCH   5  15
ATOM     15  C   UNL     1      32.447  22.198  29.504  0.00  0.00    +0.000 C 
ATOM     16  N   UNL     1      33.589  22.052  29.626  0.00  0.00    +0.000 NA
ENDBRANCH   5  15
BRANCH   1  17
ATOM     17  N   UNL     1      27.023  22.957  28.744  0.00  0.00    +0.000 NA
BRANCH  17  18
ATOM     18  C   UNL     1      26.041  23.829  29.121  0.00  0.00    +0.000 C 
BRANCH  18  20
ATOM     19  C   UNL     1      24.911  24.835  27.183  0.00  0.00    +0.000 C 
ATOM     20  C   UNL     1      25.753  24.956  28.228  0.00  0.00    +0.000 C 
ENDBRANCH  18  20
ENDBRANCH  17  18
ENDBRANCH   1  17
TORSDOF 4
ENDMDL
MODEL 10
REMARK VINA RESULT:      -5.5     19.713     21.796
REMARK  Name = 
REMARK  4 active torsions:
REMARK  status: ('A' for Active; 'I' for Inactive)
REMARK    1  A    between atoms: C_2  and  C_3
REMARK    2  A    between atoms: C_3  and  N_4
REMARK    3  A    between atoms: N_4  and  C_5
REMARK    4  A    between atoms: C_9  and  C_10
REMARK                            x       y       z     vdW  Elec       q    Type
REMARK                         _______ _______ _______ _____ _____    ______ ____
ROOT
ATOM      1  C   UNL     1      28.339  23.070  26.719  0.00  0.00    +0.000 A 
ATOM      2  C   UNL     1      27.045  23.608  26.464  0.00  0.00    +0.000 A 
ATOM      3  C   UNL     1      26.285  24.063  27.471  0.00  0.00    +0.000 A 
ATOM      4  C   UNL     1      24.912  24.638  27.234  0.00  0.00    +0.000 C 
ATOM      5  C   UNL     1      26.783  23.998  28.749  0.00  0.00    +0.000 A 
ATOM      6  C   UNL     1      28.047  23.471  28.980  0.00  0.00    +0.000 A 
ATOM      7  N   UNL     1      28.765  23.290  30.102  0.00  0.00    +0.000 NA
ATOM      8  C   UNL     1      29.939  22.742  29.834  0.00  0.00    +0.000 A 
ATOM      9  C   UNL     1      31.042  22.345  30.563  0.00  0.00    +0.000 A 
ATOM     10  C   UNL     1      32.150  21.787  29.978  0.00  0.00    +0.000 A 
ATOM     11  C   UNL     1      32.191  21.605  28.615  0.00  0.00    +0.000 A 
ATOM     12  C   UNL     1      31.120  21.989  27.890  0.00  0.00    +0.000 A 
ATOM     13  C   UNL     1      29.986  22.554  28.452  0.00  0.00    +0.000 A 
ATOM     14  N   UNL     1      28.822  23.008  27.970  0.00  0.00    +0.000 N 
ENDROOT
BRANCH   5  15
ATOM     15  C   UNL     1      26.018  24.467  29.851  0.00  0.00    +0.000 C 
ATOM     16  N   UNL     1      25.411  24.848  30.760  0.00  0.00    +0.000 NA
ENDBRANCH   5  15
BRANCH   1  17
ATOM     17  N   UNL     1      29.068  22.618  25.626  0.00  0.00    +0.000 NA
BRANCH  17  18
ATOM     18  C   UNL     1      29.370  22.983  24.344  0.00  0.00    +0.000 C 
BRANCH  18  20
ATOM     19  C   UNL     1      31.794  23.347  24.535  0.00  0.00    +0.000 C 
ATOM     20  C   UNL     1      30.583  23.779  24.132  0.00  0.00    +0.000 C 
ENDBRANCH  18  20
ENDBRANCH  17  18
ENDBRANCH   1  17
TORSDOF 4
ENDMDL
