MODEL 1
REMARK VINA RESULT:      -6.3      0.000      0.000
REMARK  Name = 
REMARK  2 active torsions:
REMARK  status: ('A' for Active; 'I' for Inactive)
REMARK    1  A    between atoms: N_2  and  C_4
REMARK    2  A    between atoms: C_9  and  N_10
REMARK                            x       y       z     vdW  Elec       q    Type
REMARK                         _______ _______ _______ _____ _____    ______ ____
ROOT
ATOM      1  C   UNL     1      28.540  23.255  29.511  0.00  0.00    +0.000 A 
ATOM      2  C   UNL     1      29.335  23.397  28.390  0.00  0.00    +0.000 A 
ATOM      3  C   UNL     1      28.706  23.376  27.162  0.00  0.00    +0.000 A 
ATOM      4  C   UNL     1      27.401  23.233  26.946  0.00  0.00    +0.000 A 
ATOM      5  C   UNL     1      26.627  23.091  28.102  0.00  0.00    +0.000 A 
ATOM      6  C   UNL     1      27.176  23.101  29.367  0.00  0.00    +0.000 A 
ATOM      7  C   UNL     1      27.058  23.253  25.534  0.00  0.00    +0.000 A 
ATOM      8  C   UNL     1      25.836  23.138  24.878  0.00  0.00    +0.000 A 
ATOM      9  C   UNL     1      25.769  23.191  23.488  0.00  0.00    +0.000 A 
ATOM     10  C   UNL     1      26.946  23.359  22.790  0.00  0.00    +0.000 A 
ATOM     11  C   UNL     1      28.155  23.473  23.434  0.00  0.00    +0.000 A 
ATOM     12  C   UNL     1      28.142  23.411  24.808  0.00  0.00    +0.000 A 
ATOM     13  C   UNL     1      29.447  23.524  25.737  0.00  0.00    +0.000 C 
ATOM     14  O   UNL     1      29.423  25.091  25.788  0.00  0.00    +0.000 OA
ENDROOT
BRANCH   1  16
ATOM     15  C   UNL     1      29.590  22.087  31.480  0.00  0.00    +0.000 C 
ATOM     16  N   UNL     1      29.136  23.270  30.811  0.00  0.00    +0.000 N 
ATOM     17  C   UNL     1      29.291  24.547  31.493  0.00  0.00    +0.000 C 
ENDBRANCH   1  16
BRANCH   6  18
ATOM     18  N   UNL     1      26.325  22.954  30.494  0.00  0.00    +0.000 N 
ATOM     19  O   UNL     1      25.916  23.971  31.067  0.00  0.00    +0.000 OA
ATOM     20  O   UNL     1      25.961  21.707  30.943  0.00  0.00    +0.000 OA
ENDBRANCH   6  18
TORSDOF 2
ENDMDL
MODEL 2
REMARK VINA RESULT:      -6.3     31.550     32.444
REMARK  Name = 
REMARK  2 active torsions:
REMARK  status: ('A' for Active; 'I' for Inactive)
REMARK    1  A    between atoms: N_2  and  C_4
REMARK    2  A    between atoms: C_9  and  N_10
REMARK                            x       y       z     vdW  Elec       q    Type
REMARK                         _______ _______ _______ _____ _____    ______ ____
ROOT
ATOM      1  C   UNL     1      23.250  -9.275  24.597  0.00  0.00    +0.000 A 
ATOM      2  C   UNL     1      22.211  -9.709  25.397  0.00  0.00    +0.000 A 
ATOM      3  C   UNL     1      21.267  -8.773  25.770  0.00  0.00    +0.000 A 
ATOM      4  C   UNL     1      21.255  -7.486  25.432  0.00  0.00    +0.000 A 
ATOM      5  C   UNL     1      22.321  -7.082  24.624  0.00  0.00    +0.000 A 
ATOM      6  C   UNL     1      23.307  -7.952  24.207  0.00  0.00    +0.000 A 
ATOM      7  C   UNL     1      20.120  -6.768  25.989  0.00  0.00    +0.000 A 
ATOM      8  C   UNL     1      19.730  -5.436  25.889  0.00  0.00    +0.000 A 
ATOM      9  C   UNL     1      18.578  -4.985  26.526  0.00  0.00    +0.000 A 
ATOM     10  C   UNL     1      17.842  -5.896  27.254  0.00  0.00    +0.000 A 
ATOM     11  C   UNL     1      18.223  -7.212  27.355  0.00  0.00    +0.000 A 
ATOM     12  C   UNL     1      19.373  -7.585  26.699  0.00  0.00    +0.000 A 
ATOM     13  C   UNL     1      19.980  -9.071  26.696  0.00  0.00    +0.000 C 
ATOM     14  O   UNL     1      19.109  -9.554  25.485  0.00  0.00    +0.000 OA
ENDROOT
BRANCH   1  16
ATOM     15  C   UNL     1      25.530 -10.320  24.828  0.00  0.00    +0.000 C 
ATOM     16  N   UNL     1      24.259 -10.199  24.180  0.00  0.00    +0.000 N 
ATOM     17  C   UNL     1      23.985 -11.062  23.039  0.00  0.00    +0.000 C 
ENDBRANCH   1  16
BRANCH   6  18
ATOM     18  N   UNL     1      24.358  -7.468  23.384  0.00  0.00    +0.000 N 
ATOM     19  O   UNL     1      24.361  -7.770  22.185  0.00  0.00    +0.000 OA
ATOM     20  O   UNL     1      25.354  -6.679  23.908  0.00  0.00    +0.000 OA
ENDBRANCH   6  18
TORSDOF 2
ENDMDL
MODEL 3
REMARK VINA RESULT:      -6.1     27.690     29.332
REMARK  Name = 
REMARK  2 active torsions:
REMARK  status: ('A' for Active; 'I' for Inactive)
REMARK    1  A    between atoms: N_2  and  C_4
REMARK    2  A    between atoms: C_9  and  N_10
REMARK                            x       y       z     vdW  Elec       q    Type
REMARK                         _______ _______ _______ _____ _____    ______ ____
ROOT
ATOM      1  C   UNL     1      34.257  -3.984  34.989  0.00  0.00    +0.000 A 
ATOM      2  C   UNL     1      34.857  -5.170  34.614  0.00  0.00    +0.000 A 
ATOM      3  C   UNL     1      34.727  -5.556  33.295  0.00  0.00    +0.000 A 
ATOM      4  C   UNL     1      34.077  -4.894  32.341  0.00  0.00    +0.000 A 
ATOM      5  C   UNL     1      33.482  -3.700  32.755  0.00  0.00    +0.000 A 
ATOM      6  C   UNL     1      33.564  -3.242  34.054  0.00  0.00    +0.000 A 
ATOM      7  C   UNL     1      34.126  -5.570  31.054  0.00  0.00    +0.000 A 
ATOM      8  C   UNL     1      33.592  -5.235  29.814  0.00  0.00    +0.000 A 
ATOM      9  C   UNL     1      33.784  -6.065  28.712  0.00  0.00    +0.000 A 
ATOM     10  C   UNL     1      34.516  -7.219  28.891  0.00  0.00    +0.000 A 
ATOM     11  C   UNL     1      35.046  -7.553  30.114  0.00  0.00    +0.000 A 
ATOM     12  C   UNL     1      34.814  -6.686  31.156  0.00  0.00    +0.000 A 
ATOM     13  C   UNL     1      35.348  -6.899  32.655  0.00  0.00    +0.000 C 
ATOM     14  O   UNL     1      36.740  -6.231  32.383  0.00  0.00    +0.000 OA
ENDROOT
BRANCH   1  16
ATOM     15  C   UNL     1      33.464  -3.953  37.379  0.00  0.00    +0.000 C 
ATOM     16  N   UNL     1      34.359  -3.533  36.343  0.00  0.00    +0.000 N 
ATOM     17  C   UNL     1      35.421  -2.600  36.689  0.00  0.00    +0.000 C 
ENDBRANCH   1  16
BRANCH   6  18
ATOM     18  N   UNL     1      32.934  -2.018  34.399  0.00  0.00    +0.000 N 
ATOM     19  O   UNL     1      33.505  -0.956  34.120  0.00  0.00    +0.000 OA
ATOM     20  O   UNL     1      31.714  -2.008  35.032  0.00  0.00    +0.000 OA
ENDBRANCH   6  18
TORSDOF 2
ENDMDL
MODEL 4
REMARK VINA RESULT:      -6.0     31.137     31.994
REMARK  Name = 
REMARK  2 active torsions:
REMARK  status: ('A' for Active; 'I' for Inactive)
REMARK    1  A    between atoms: N_2  and  C_4
REMARK    2  A    between atoms: C_9  and  N_10
REMARK                            x       y       z     vdW  Elec       q    Type
REMARK                         _______ _______ _______ _____ _____    ______ ____
ROOT
ATOM      1  C   UNL     1      19.025  -7.888  25.995  0.00  0.00    +0.000 A 
ATOM      2  C   UNL     1      19.795  -8.916  25.487  0.00  0.00    +0.000 A 
ATOM      3  C   UNL     1      21.055  -8.592  25.025  0.00  0.00    +0.000 A 
ATOM      4  C   UNL     1      21.607  -7.382  25.020  0.00  0.00    +0.000 A 
ATOM      5  C   UNL     1      20.799  -6.367  25.540  0.00  0.00    +0.000 A 
ATOM      6  C   UNL     1      19.529  -6.603  26.022  0.00  0.00    +0.000 A 
ATOM      7  C   UNL     1      22.950  -7.378  24.464  0.00  0.00    +0.000 A 
ATOM      8  C   UNL     1      23.868  -6.349  24.273  0.00  0.00    +0.000 A 
ATOM      9  C   UNL     1      25.115  -6.607  23.710  0.00  0.00    +0.000 A 
ATOM     10  C   UNL     1      25.406  -7.905  23.350  0.00  0.00    +0.000 A 
ATOM     11  C   UNL     1      24.503  -8.924  23.537  0.00  0.00    +0.000 A 
ATOM     12  C   UNL     1      23.292  -8.593  24.099  0.00  0.00    +0.000 A 
ATOM     13  C   UNL     1      22.110  -9.638  24.396  0.00  0.00    +0.000 C 
ATOM     14  O   UNL     1      22.669 -10.055  25.800  0.00  0.00    +0.000 OA
ENDROOT
BRANCH   1  16
ATOM     15  C   UNL     1      16.518  -7.877  25.749  0.00  0.00    +0.000 C 
ATOM     16  N   UNL     1      17.710  -8.163  26.489  0.00  0.00    +0.000 N 
ATOM     17  C   UNL     1      17.573  -8.762  27.809  0.00  0.00    +0.000 C 
ENDBRANCH   1  16
BRANCH   6  18
ATOM     18  N   UNL     1      18.769  -5.521  26.537  0.00  0.00    +0.000 N 
ATOM     19  O   UNL     1      18.680  -4.485  25.866  0.00  0.00    +0.000 OA
ATOM     20  O   UNL     1      18.142  -5.617  27.756  0.00  0.00    +0.000 OA
ENDBRANCH   6  18
TORSDOF 2
ENDMDL
MODEL 5
REMARK VINA RESULT:      -5.8     25.494     27.679
REMARK  Name = 
REMARK  2 active torsions:
REMARK  status: ('A' for Active; 'I' for Inactive)
REMARK    1  A    between atoms: N_2  and  C_4
REMARK    2  A    between atoms: C_9  and  N_10
REMARK                            x       y       z     vdW  Elec       q    Type
REMARK                         _______ _______ _______ _____ _____    ______ ____
ROOT
ATOM      1  C   UNL     1      33.432  -4.512  34.736  0.00  0.00    +0.000 A 
ATOM      2  C   UNL     1      33.355  -3.475  35.643  0.00  0.00    +0.000 A 
ATOM      3  C   UNL     1      33.474  -2.191  35.149  0.00  0.00    +0.000 A 
ATOM      4  C   UNL     1      33.656  -1.851  33.875  0.00  0.00    +0.000 A 
ATOM      5  C   UNL     1      33.730  -2.925  32.985  0.00  0.00    +0.000 A 
ATOM      6  C   UNL     1      33.621  -4.238  33.396  0.00  0.00    +0.000 A 
ATOM      7  C   UNL     1      33.741  -0.412  33.684  0.00  0.00    +0.000 A 
ATOM      8  C   UNL     1      33.924   0.358  32.540  0.00  0.00    +0.000 A 
ATOM      9  C   UNL     1      33.970   1.747  32.621  0.00  0.00    +0.000 A 
ATOM     10  C   UNL     1      33.830   2.328  33.863  0.00  0.00    +0.000 A 
ATOM     11  C   UNL     1      33.649   1.571  34.995  0.00  0.00    +0.000 A 
ATOM     12  C   UNL     1      33.614   0.205  34.838  0.00  0.00    +0.000 A 
ATOM     13  C   UNL     1      33.412  -0.845  36.035  0.00  0.00    +0.000 C 
ATOM     14  O   UNL     1      31.846  -0.781  35.988  0.00  0.00    +0.000 OA
ENDROOT
BRANCH   1  16
ATOM     15  C   UNL     1      34.439  -6.658  35.589  0.00  0.00    +0.000 C 
ATOM     16  N   UNL     1      33.315  -5.864  35.190  0.00  0.00    +0.000 N 
ATOM     17  C   UNL     1      31.991  -6.467  35.252  0.00  0.00    +0.000 C 
ENDBRANCH   1  16
BRANCH   6  18
ATOM     18  N   UNL     1      33.705  -5.276  32.432  0.00  0.00    +0.000 N 
ATOM     19  O   UNL     1      34.822  -5.673  32.082  0.00  0.00    +0.000 OA
ATOM     20  O   UNL     1      32.568  -5.833  31.896  0.00  0.00    +0.000 OA
ENDBRANCH   6  18
TORSDOF 2
ENDMDL
MODEL 6
REMARK VINA RESULT:      -5.8      2.531      5.532
REMARK  Name = 
REMARK  2 active torsions:
REMARK  status: ('A' for Active; 'I' for Inactive)
REMARK    1  A    between atoms: N_2  and  C_4
REMARK    2  A    between atoms: C_9  and  N_10
REMARK                            x       y       z     vdW  Elec       q    Type
REMARK                         _______ _______ _______ _____ _____    ______ ____
ROOT
ATOM      1  C   UNL     1      27.816  23.987  28.792  0.00  0.00    +0.000 A 
ATOM      2  C   UNL     1      29.052  24.031  28.176  0.00  0.00    +0.000 A 
ATOM      3  C   UNL     1      30.100  23.402  28.816  0.00  0.00    +0.000 A 
ATOM      4  C   UNL     1      30.041  22.752  29.975  0.00  0.00    +0.000 A 
ATOM      5  C   UNL     1      28.777  22.728  30.571  0.00  0.00    +0.000 A 
ATOM      6  C   UNL     1      27.676  23.331  29.999  0.00  0.00    +0.000 A 
ATOM      7  C   UNL     1      31.325  22.201  30.378  0.00  0.00    +0.000 A 
ATOM      8  C   UNL     1      31.704  21.464  31.497  0.00  0.00    +0.000 A 
ATOM      9  C   UNL     1      33.021  21.044  31.655  0.00  0.00    +0.000 A 
ATOM     10  C   UNL     1      33.930  21.379  30.674  0.00  0.00    +0.000 A 
ATOM     11  C   UNL     1      33.559  22.105  29.568  0.00  0.00    +0.000 A 
ATOM     12  C   UNL     1      32.241  22.486  29.480  0.00  0.00    +0.000 A 
ATOM     13  C   UNL     1      31.616  23.336  28.269  0.00  0.00    +0.000 C 
ATOM     14  O   UNL     1      31.333  22.080  27.375  0.00  0.00    +0.000 OA
ENDROOT
BRANCH   1  16
ATOM     15  C   UNL     1      25.767  23.929  27.329  0.00  0.00    +0.000 C 
ATOM     16  N   UNL     1      26.692  24.621  28.175  0.00  0.00    +0.000 N 
ATOM     17  C   UNL     1      26.473  26.040  28.415  0.00  0.00    +0.000 C 
ENDBRANCH   1  16
BRANCH   6  18
ATOM     18  N   UNL     1      26.423  23.263  30.663  0.00  0.00    +0.000 N 
ATOM     19  O   UNL     1      25.777  22.210  30.606  0.00  0.00    +0.000 OA
ATOM     20  O   UNL     1      25.935  24.345  31.356  0.00  0.00    +0.000 OA
ENDBRANCH   6  18
TORSDOF 2
ENDMDL
MODEL 7
REMARK VINA RESULT:      -5.6      3.098      4.436
REMARK  Name = 
REMARK  2 active torsions:
REMARK  status: ('A' for Active; 'I' for Inactive)
REMARK    1  A    between atoms: N_2  and  C_4
REMARK    2  A    between atoms: C_9  and  N_10
REMARK                            x       y       z     vdW  Elec       q    Type
REMARK                         _______ _______ _______ _____ _____    ______ ____
ROOT
ATOM      1  C   UNL     1      30.952  22.612  30.784  0.00  0.00    +0.000 A 
ATOM      2  C   UNL     1      29.715  22.905  30.244  0.00  0.00    +0.000 A 
ATOM      3  C   UNL     1      29.612  22.908  28.867  0.00  0.00    +0.000 A 
ATOM      4  C   UNL     1      30.590  22.653  28.002  0.00  0.00    +0.000 A 
ATOM      5  C   UNL     1      31.827  22.361  28.584  0.00  0.00    +0.000 A 
ATOM      6  C   UNL     1      32.017  22.337  29.950  0.00  0.00    +0.000 A 
ATOM      7  C   UNL     1      30.154  22.738  26.618  0.00  0.00    +0.000 A 
ATOM      8  C   UNL     1      30.838  22.550  25.421  0.00  0.00    +0.000 A 
ATOM      9  C   UNL     1      30.182  22.689  24.200  0.00  0.00    +0.000 A 
ATOM     10  C   UNL     1      28.844  23.018  24.219  0.00  0.00    +0.000 A 
ATOM     11  C   UNL     1      28.164  23.203  25.399  0.00  0.00    +0.000 A 
ATOM     12  C   UNL     1      28.878  23.049  26.565  0.00  0.00    +0.000 A 
ATOM     13  C   UNL     1      28.265  23.223  28.038  0.00  0.00    +0.000 C 
ATOM     14  O   UNL     1      27.755  21.744  28.132  0.00  0.00    +0.000 OA
ENDROOT
BRANCH   1  16
ATOM     15  C   UNL     1      31.657  23.695  32.946  0.00  0.00    +0.000 C 
ATOM     16  N   UNL     1      31.119  22.594  32.205  0.00  0.00    +0.000 N 
ATOM     17  C   UNL     1      30.726  21.399  32.939  0.00  0.00    +0.000 C 
ENDBRANCH   1  16
BRANCH   6  18
ATOM     18  N   UNL     1      33.302  22.031  30.467  0.00  0.00    +0.000 N 
ATOM     19  O   UNL     1      33.534  20.873  30.835  0.00  0.00    +0.000 OA
ATOM     20  O   UNL     1      34.273  22.999  30.559  0.00  0.00    +0.000 OA
ENDBRANCH   6  18
TORSDOF 2
ENDMDL
MODEL 8
REMARK VINA RESULT:      -5.6      1.884      2.313
REMARK  Name = 
REMARK  2 active torsions:
REMARK  status: ('A' for Active; 'I' for Inactive)
REMARK    1  A    between atoms: N_2  and  C_4
REMARK    2  A    between atoms: C_9  and  N_10
REMARK                            x       y       z     vdW  Elec       q    Type
REMARK                         _______ _______ _______ _____ _____    ______ ____
ROOT
ATOM      1  C   UNL     1      30.916  22.645  28.996  0.00  0.00    +0.000 A 
ATOM      2  C   UNL     1      31.359  22.557  27.691  0.00  0.00    +0.000 A 
ATOM      3  C   UNL     1      30.426  22.745  26.692  0.00  0.00    +0.000 A 
ATOM      4  C   UNL     1      29.132  23.005  26.860  0.00  0.00    +0.000 A 
ATOM      5  C   UNL     1      28.718  23.086  28.192  0.00  0.00    +0.000 A 
ATOM      6  C   UNL     1      29.585  22.911  29.251  0.00  0.00    +0.000 A 
ATOM      7  C   UNL     1      28.418  23.149  25.602  0.00  0.00    +0.000 A 
ATOM      8  C   UNL     1      27.081  23.418  25.323  0.00  0.00    +0.000 A 
ATOM      9  C   UNL     1      26.636  23.509  24.007  0.00  0.00    +0.000 A 
ATOM     10  C   UNL     1      27.557  23.325  22.998  0.00  0.00    +0.000 A 
ATOM     11  C   UNL     1      28.878  23.060  23.269  0.00  0.00    +0.000 A 
ATOM     12  C   UNL     1      29.244  22.985  24.592  0.00  0.00    +0.000 A 
ATOM     13  C   UNL     1      30.734  22.685  25.110  0.00  0.00    +0.000 C 
ATOM     14  O   UNL     1      31.185  24.186  25.051  0.00  0.00    +0.000 OA
ENDROOT
BRANCH   1  16
ATOM     15  C   UNL     1      32.009  21.211  30.755  0.00  0.00    +0.000 C 
ATOM     16  N   UNL     1      31.838  22.459  30.074  0.00  0.00    +0.000 N 
ATOM     17  C   UNL     1      32.645  23.592  30.504  0.00  0.00    +0.000 C 
ENDBRANCH   1  16
BRANCH   6  18
ATOM     18  N   UNL     1      29.091  23.010  30.578  0.00  0.00    +0.000 N 
ATOM     19  O   UNL     1      28.569  22.014  31.093  0.00  0.00    +0.000 OA
ATOM     20  O   UNL     1      29.188  24.188  31.279  0.00  0.00    +0.000 OA
ENDBRANCH   6  18
TORSDOF 2
ENDMDL
MODEL 9
REMARK VINA RESULT:      -5.5     21.127     22.814
REMARK  Name = 
REMARK  2 active torsions:
REMARK  status: ('A' for Active; 'I' for Inactive)
REMARK    1  A    between atoms: N_2  and  C_4
REMARK    2  A    between atoms: C_9  and  N_10
REMARK                            x       y       z     vdW  Elec       q    Type
REMARK                         _______ _______ _______ _____ _____    ______ ____
ROOT
ATOM      1  C   UNL     1      23.333   3.149  15.553  0.00  0.00    +0.000 A 
ATOM      2  C   UNL     1      24.273   3.879  14.851  0.00  0.00    +0.000 A 
ATOM      3  C   UNL     1      25.184   4.610  15.587  0.00  0.00    +0.000 A 
ATOM      4  C   UNL     1      25.250   4.682  16.914  0.00  0.00    +0.000 A 
ATOM      5  C   UNL     1      24.284   3.932  17.591  0.00  0.00    +0.000 A 
ATOM      6  C   UNL     1      23.337   3.174  16.933  0.00  0.00    +0.000 A 
ATOM      7  C   UNL     1      26.327   5.541  17.379  0.00  0.00    +0.000 A 
ATOM      8  C   UNL     1      26.743   5.889  18.660  0.00  0.00    +0.000 A 
ATOM      9  C   UNL     1      27.825   6.745  18.845  0.00  0.00    +0.000 A 
ATOM     10  C   UNL     1      28.465   7.232  17.725  0.00  0.00    +0.000 A 
ATOM     11  C   UNL     1      28.057   6.890  16.459  0.00  0.00    +0.000 A 
ATOM     12  C   UNL     1      26.981   6.040  16.354  0.00  0.00    +0.000 A 
ATOM     13  C   UNL     1      26.357   5.526  14.966  0.00  0.00    +0.000 C 
ATOM     14  O   UNL     1      27.348   4.319  14.829  0.00  0.00    +0.000 OA
ENDROOT
BRANCH   1  16
ATOM     15  C   UNL     1      21.077   2.876  14.467  0.00  0.00    +0.000 C 
ATOM     16  N   UNL     1      22.364   2.372  14.844  0.00  0.00    +0.000 N 
ATOM     17  C   UNL     1      22.696   1.000  14.485  0.00  0.00    +0.000 C 
ENDBRANCH   1  16
BRANCH   6  18
ATOM     18  N   UNL     1      22.389   2.437  17.690  0.00  0.00    +0.000 N 
ATOM     19  O   UNL     1      22.678   1.289  18.047  0.00  0.00    +0.000 OA
ATOM     20  O   UNL     1      21.173   2.986  18.021  0.00  0.00    +0.000 OA
ENDBRANCH   6  18
TORSDOF 2
ENDMDL
MODEL 10
REMARK VINA RESULT:      -5.5      2.951      6.429
REMARK  Name = 
REMARK  2 active torsions:
REMARK  status: ('A' for Active; 'I' for Inactive)
REMARK    1  A    between atoms: N_2  and  C_4
REMARK    2  A    between atoms: C_9  and  N_10
REMARK                            x       y       z     vdW  Elec       q    Type
REMARK                         _______ _______ _______ _____ _____    ______ ____
ROOT
ATOM      1  C   UNL     1      27.734  23.950  25.420  0.00  0.00    +0.000 A 
ATOM      2  C   UNL     1      27.548  23.982  26.788  0.00  0.00    +0.000 A 
ATOM      3  C   UNL     1      28.556  23.463  27.576  0.00  0.00    +0.000 A 
ATOM      4  C   UNL     1      29.698  22.932  27.146  0.00  0.00    +0.000 A 
ATOM      5  C   UNL     1      29.852  22.916  25.757  0.00  0.00    +0.000 A 
ATOM      6  C   UNL     1      28.894  23.413  24.899  0.00  0.00    +0.000 A 
ATOM      7  C   UNL     1      30.550  22.476  28.232  0.00  0.00    +0.000 A 
ATOM      8  C   UNL     1      31.805  21.873  28.231  0.00  0.00    +0.000 A 
ATOM      9  C   UNL     1      32.424  21.525  29.428  0.00  0.00    +0.000 A 
ATOM     10  C   UNL     1      31.759  21.795  30.604  0.00  0.00    +0.000 A 
ATOM     11  C   UNL     1      30.521  22.391  30.610  0.00  0.00    +0.000 A 
ATOM     12  C   UNL     1      29.970  22.706  29.389  0.00  0.00    +0.000 A 
ATOM     13  C   UNL     1      28.539  23.404  29.187  0.00  0.00    +0.000 C 
ATOM     14  O   UNL     1      29.094  24.863  29.335  0.00  0.00    +0.000 OA
ENDROOT
BRANCH   1  16
ATOM     15  C   UNL     1      26.791  25.777  23.966  0.00  0.00    +0.000 C 
ATOM     16  N   UNL     1      26.722  24.474  24.554  0.00  0.00    +0.000 N 
ATOM     17  C   UNL     1      25.564  23.644  24.253  0.00  0.00    +0.000 C 
ENDBRANCH   1  16
BRANCH   6  18
ATOM     18  N   UNL     1      29.122  23.363  23.499  0.00  0.00    +0.000 N 
ATOM     19  O   UNL     1      28.393  22.645  22.804  0.00  0.00    +0.000 OA
ATOM     20  O   UNL     1      30.132  24.097  22.924  0.00  0.00    +0.000 OA
ENDBRANCH   6  18
TORSDOF 2
ENDMDL
