MODEL 1
REMARK VINA RESULT:      -8.4      0.000      0.000
REMARK  Name = 
REMARK  7 active torsions:
REMARK  status: ('A' for Active; 'I' for Inactive)
REMARK    1  A    between atoms: C_2  and  C_3
REMARK    2  A    between atoms: C_2  and  C_14
REMARK    3  A    between atoms: C_2  and  C_20
REMARK    4  A    between atoms: C_3  and  C_4
REMARK    5  A    between atoms: C_5  and  C_6
REMARK    6  A    between atoms: C_6  and  N_7
REMARK    7  A    between atoms: C_23  and  C_24
REMARK                            x       y       z     vdW  Elec       q    Type
REMARK                         _______ _______ _______ _____ _____    ______ ____
ROOT
ATOM      1  O   UNL     1      36.304   3.551  13.419  0.00  0.00    +0.000 OA
ATOM      2  C   UNL     1      36.626   2.737  14.531  0.00  0.00    +0.000 C 
ENDROOT
BRANCH   2   3
ATOM      3  C   UNL     1      37.357   1.548  14.038  0.00  0.00    +0.000 A 
ATOM      4  C   UNL     1      38.488   1.069  14.658  0.00  0.00    +0.000 A 
ATOM      5  C   UNL     1      39.169  -0.049  14.189  0.00  0.00    +0.000 A 
ATOM      6  C   UNL     1      38.719  -0.713  13.074  0.00  0.00    +0.000 A 
ATOM      7  C   UNL     1      37.590  -0.248  12.442  0.00  0.00    +0.000 A 
ATOM      8  C   UNL     1      36.921   0.871  12.923  0.00  0.00    +0.000 A 
ENDBRANCH   2   3
BRANCH   2   9
ATOM      9  C   UNL     1      37.466   3.539  15.477  0.00  0.00    +0.000 A 
ATOM     10  C   UNL     1      38.496   4.328  15.009  0.00  0.00    +0.000 A 
ATOM     11  C   UNL     1      39.271   5.067  15.878  0.00  0.00    +0.000 A 
ATOM     12  C   UNL     1      39.062   5.057  17.251  0.00  0.00    +0.000 A 
ATOM     13  C   UNL     1      38.031   4.266  17.713  0.00  0.00    +0.000 A 
ATOM     14  C   UNL     1      37.259   3.530  16.840  0.00  0.00    +0.000 A 
BRANCH  12  15
ATOM     15  C   UNL     1      39.882   5.837  18.162  0.00  0.00    +0.000 A 
ATOM     16  C   UNL     1      39.368   6.295  19.355  0.00  0.00    +0.000 A 
ATOM     17  C   UNL     1      40.086   7.036  20.261  0.00  0.00    +0.000 A 
ATOM     18  C   UNL     1      41.392   7.349  19.982  0.00  0.00    +0.000 A 
ATOM     19  C   UNL     1      41.947   6.915  18.806  0.00  0.00    +0.000 A 
ATOM     20  C   UNL     1      41.203   6.175  17.917  0.00  0.00    +0.000 A 
ENDBRANCH  12  15
ENDBRANCH   2   9
BRANCH   2  21
ATOM     21  C   UNL     1      35.316   2.384  15.173  0.00  0.00    +0.000 C 
BRANCH  21  22
ATOM     22  C   UNL     1      35.326   1.117  15.879  0.00  0.00    +0.000 C 
ATOM     23  C   UNL     1      35.328   0.085  16.477  0.00  0.00    +0.000 C 
BRANCH  23  24
ATOM     24  C   UNL     1      35.322  -1.171  17.234  0.00  0.00    +0.000 C 
BRANCH  24  25
ATOM     25  N   UNL     1      36.456  -1.945  16.833  0.00  0.00    +0.000 NA
ATOM     26  C   UNL     1      37.702  -1.406  17.320  0.00  0.00    +0.000 C 
ATOM     27  C   UNL     1      38.312  -2.404  18.278  0.00  0.00    +0.000 C 
ATOM     28  C   UNL     1      38.507  -3.703  17.522  0.00  0.00    +0.000 C 
ATOM     29  C   UNL     1      38.658  -3.381  16.067  0.00  0.00    +0.000 C 
ATOM     30  C   UNL     1      37.361  -3.539  15.296  0.00  0.00    +0.000 C 
ATOM     31  C   UNL     1      36.483  -2.307  15.451  0.00  0.00    +0.000 C 
ENDBRANCH  24  25
ENDBRANCH  23  24
ENDBRANCH  21  22
ENDBRANCH   2  21
TORSDOF 7
ENDMDL
MODEL 2
REMARK VINA RESULT:      -8.4      2.164      3.805
REMARK  Name = 
REMARK  7 active torsions:
REMARK  status: ('A' for Active; 'I' for Inactive)
REMARK    1  A    between atoms: C_2  and  C_3
REMARK    2  A    between atoms: C_2  and  C_14
REMARK    3  A    between atoms: C_2  and  C_20
REMARK    4  A    between atoms: C_3  and  C_4
REMARK    5  A    between atoms: C_5  and  C_6
REMARK    6  A    between atoms: C_6  and  N_7
REMARK    7  A    between atoms: C_23  and  C_24
REMARK                            x       y       z     vdW  Elec       q    Type
REMARK                         _______ _______ _______ _____ _____    ______ ____
ROOT
ATOM      1  O   UNL     1      35.184   3.292  15.176  0.00  0.00    +0.000 OA
ATOM      2  C   UNL     1      36.162   3.973  14.412  0.00  0.00    +0.000 C 
ENDROOT
BRANCH   2   3
ATOM      3  C   UNL     1      35.497   5.085  13.696  0.00  0.00    +0.000 A 
ATOM      4  C   UNL     1      35.844   5.448  12.414  0.00  0.00    +0.000 A 
ATOM      5  C   UNL     1      35.215   6.493  11.748  0.00  0.00    +0.000 A 
ATOM      6  C   UNL     1      34.212   7.201  12.366  0.00  0.00    +0.000 A 
ATOM      7  C   UNL     1      33.852   6.851  13.646  0.00  0.00    +0.000 A 
ATOM      8  C   UNL     1      34.491   5.804  14.299  0.00  0.00    +0.000 A 
ENDBRANCH   2   3
BRANCH   2   9
ATOM      9  C   UNL     1      37.221   4.480  15.341  0.00  0.00    +0.000 A 
ATOM     10  C   UNL     1      37.284   4.036  16.646  0.00  0.00    +0.000 A 
ATOM     11  C   UNL     1      38.259   4.502  17.504  0.00  0.00    +0.000 A 
ATOM     12  C   UNL     1      39.214   5.429  17.109  0.00  0.00    +0.000 A 
ATOM     13  C   UNL     1      39.145   5.869  15.803  0.00  0.00    +0.000 A 
ATOM     14  C   UNL     1      38.170   5.400  14.950  0.00  0.00    +0.000 A 
BRANCH  12  15
ATOM     15  C   UNL     1      40.239   5.917  18.017  0.00  0.00    +0.000 A 
ATOM     16  C   UNL     1      41.483   6.274  17.548  0.00  0.00    +0.000 A 
ATOM     17  C   UNL     1      42.495   6.743  18.349  0.00  0.00    +0.000 A 
ATOM     18  C   UNL     1      42.275   6.869  19.697  0.00  0.00    +0.000 A 
ATOM     19  C   UNL     1      41.052   6.525  20.211  0.00  0.00    +0.000 A 
ATOM     20  C   UNL     1      40.057   6.059  19.383  0.00  0.00    +0.000 A 
ENDBRANCH  12  15
ENDBRANCH   2   9
BRANCH   2  21
ATOM     21  C   UNL     1      36.738   2.948  13.479  0.00  0.00    +0.000 C 
BRANCH  21  22
ATOM     22  C   UNL     1      36.877   1.628  14.064  0.00  0.00    +0.000 C 
ATOM     23  C   UNL     1      36.975   0.535  14.531  0.00  0.00    +0.000 C 
BRANCH  23  24
ATOM     24  C   UNL     1      37.079  -0.817  15.088  0.00  0.00    +0.000 C 
BRANCH  24  25
ATOM     25  N   UNL     1      36.710  -0.765  16.469  0.00  0.00    +0.000 NA
ATOM     26  C   UNL     1      36.535  -2.073  17.051  0.00  0.00    +0.000 C 
ATOM     27  C   UNL     1      37.585  -2.264  18.121  0.00  0.00    +0.000 C 
ATOM     28  C   UNL     1      37.407  -1.156  19.140  0.00  0.00    +0.000 C 
ATOM     29  C   UNL     1      35.976  -0.714  19.107  0.00  0.00    +0.000 C 
ATOM     30  C   UNL     1      35.766   0.521  18.251  0.00  0.00    +0.000 C 
ATOM     31  C   UNL     1      35.659   0.153  16.780  0.00  0.00    +0.000 C 
ENDBRANCH  24  25
ENDBRANCH  23  24
ENDBRANCH  21  22
ENDBRANCH   2  21
TORSDOF 7
ENDMDL
MODEL 3
REMARK VINA RESULT:      -8.0      3.280      6.216
REMARK  Name = 
REMARK  7 active torsions:
REMARK  status: ('A' for Active; 'I' for Inactive)
REMARK    1  A    between atoms: C_2  and  C_3
REMARK    2  A    between atoms: C_2  and  C_14
REMARK    3  A    between atoms: C_2  and  C_20
REMARK    4  A    between atoms: C_3  and  C_4
REMARK    5  A    between atoms: C_5  and  C_6
REMARK    6  A    between atoms: C_6  and  N_7
REMARK    7  A    between atoms: C_23  and  C_24
REMARK                            x       y       z     vdW  Elec       q    Type
REMARK                         _______ _______ _______ _____ _____    ______ ____
ROOT
ATOM      1  O   UNL     1      36.971   2.916  13.392  0.00  0.00    +0.000 OA
ATOM      2  C   UNL     1      36.568   2.714  14.734  0.00  0.00    +0.000 C 
ENDROOT
BRANCH   2   3
ATOM      3  C   UNL     1      36.693   1.272  15.042  0.00  0.00    +0.000 A 
ATOM      4  C   UNL     1      35.650   0.536  15.557  0.00  0.00    +0.000 A 
ATOM      5  C   UNL     1      35.775  -0.819  15.843  0.00  0.00    +0.000 A 
ATOM      6  C   UNL     1      36.965  -1.466  15.613  0.00  0.00    +0.000 A 
ATOM      7  C   UNL     1      38.017  -0.746  15.098  0.00  0.00    +0.000 A 
ATOM      8  C   UNL     1      37.877   0.608  14.818  0.00  0.00    +0.000 A 
ENDBRANCH   2   3
BRANCH   2   9
ATOM      9  C   UNL     1      37.448   3.538  15.622  0.00  0.00    +0.000 A 
ATOM     10  C   UNL     1      38.454   4.319  15.089  0.00  0.00    +0.000 A 
ATOM     11  C   UNL     1      39.266   5.079  15.905  0.00  0.00    +0.000 A 
ATOM     12  C   UNL     1      39.120   5.099  17.285  0.00  0.00    +0.000 A 
ATOM     13  C   UNL     1      38.113   4.317  17.812  0.00  0.00    +0.000 A 
ATOM     14  C   UNL     1      37.304   3.560  16.993  0.00  0.00    +0.000 A 
BRANCH  12  15
ATOM     15  C   UNL     1      39.979   5.902  18.140  0.00  0.00    +0.000 A 
ATOM     16  C   UNL     1      39.541   6.332  19.373  0.00  0.00    +0.000 A 
ATOM     17  C   UNL     1      40.299   7.090  20.230  0.00  0.00    +0.000 A 
ATOM     18  C   UNL     1      41.568   7.452  19.856  0.00  0.00    +0.000 A 
ATOM     19  C   UNL     1      42.048   7.048  18.638  0.00  0.00    +0.000 A 
ATOM     20  C   UNL     1      41.265   6.288  17.800  0.00  0.00    +0.000 A 
ENDBRANCH  12  15
ENDBRANCH   2   9
BRANCH   2  21
ATOM     21  C   UNL     1      35.150   3.201  14.814  0.00  0.00    +0.000 C 
BRANCH  21  22
ATOM     22  C   UNL     1      34.972   4.575  14.385  0.00  0.00    +0.000 C 
ATOM     23  C   UNL     1      34.842   5.702  14.019  0.00  0.00    +0.000 C 
BRANCH  23  24
ATOM     24  C   UNL     1      34.702   7.085  13.552  0.00  0.00    +0.000 C 
BRANCH  24  25
ATOM     25  N   UNL     1      35.359   7.946  14.486  0.00  0.00    +0.000 NA
ATOM     26  C   UNL     1      35.068   9.340  14.263  0.00  0.00    +0.000 C 
ATOM     27  C   UNL     1      34.313   9.869  15.463  0.00  0.00    +0.000 C 
ATOM     28  C   UNL     1      35.187   9.654  16.683  0.00  0.00    +0.000 C 
ATOM     29  C   UNL     1      36.617   9.633  16.238  0.00  0.00    +0.000 C 
ATOM     30  C   UNL     1      37.149   8.225  16.048  0.00  0.00    +0.000 C 
ATOM     31  C   UNL     1      36.746   7.669  14.692  0.00  0.00    +0.000 C 
ENDBRANCH  24  25
ENDBRANCH  23  24
ENDBRANCH  21  22
ENDBRANCH   2  21
TORSDOF 7
ENDMDL
MODEL 4
REMARK VINA RESULT:      -7.8      3.721      9.756
REMARK  Name = 
REMARK  7 active torsions:
REMARK  status: ('A' for Active; 'I' for Inactive)
REMARK    1  A    between atoms: C_2  and  C_3
REMARK    2  A    between atoms: C_2  and  C_14
REMARK    3  A    between atoms: C_2  and  C_20
REMARK    4  A    between atoms: C_3  and  C_4
REMARK    5  A    between atoms: C_5  and  C_6
REMARK    6  A    between atoms: C_6  and  N_7
REMARK    7  A    between atoms: C_23  and  C_24
REMARK                            x       y       z     vdW  Elec       q    Type
REMARK                         _______ _______ _______ _____ _____    ______ ____
ROOT
ATOM      1  O   UNL     1      36.416  -2.509  17.893  0.00  0.00    +0.000 OA
ATOM      2  C   UNL     1      35.855  -2.273  16.616  0.00  0.00    +0.000 C 
ENDROOT
BRANCH   2   3
ATOM      3  C   UNL     1      36.920  -1.749  15.732  0.00  0.00    +0.000 A 
ATOM      4  C   UNL     1      36.728  -1.551  14.383  0.00  0.00    +0.000 A 
ATOM      5  C   UNL     1      37.734  -1.059  13.559  0.00  0.00    +0.000 A 
ATOM      6  C   UNL     1      38.966  -0.752  14.084  0.00  0.00    +0.000 A 
ATOM      7  C   UNL     1      39.175  -0.942  15.430  0.00  0.00    +0.000 A 
ATOM      8  C   UNL     1      38.160  -1.436  16.239  0.00  0.00    +0.000 A 
ENDBRANCH   2   3
BRANCH   2   9
ATOM      9  C   UNL     1      35.301  -3.563  16.096  0.00  0.00    +0.000 A 
ATOM     10  C   UNL     1      36.005  -4.741  16.240  0.00  0.00    +0.000 A 
ATOM     11  C   UNL     1      35.497  -5.930  15.761  0.00  0.00    +0.000 A 
ATOM     12  C   UNL     1      34.269  -6.007  15.117  0.00  0.00    +0.000 A 
ATOM     13  C   UNL     1      33.570  -4.827  14.976  0.00  0.00    +0.000 A 
ATOM     14  C   UNL     1      34.082  -3.641  15.457  0.00  0.00    +0.000 A 
BRANCH  12  15
ATOM     15  C   UNL     1      33.738  -7.263  14.614  0.00  0.00    +0.000 A 
ATOM     16  C   UNL     1      33.921  -7.628  13.299  0.00  0.00    +0.000 A 
ATOM     17  C   UNL     1      33.448  -8.799  12.759  0.00  0.00    +0.000 A 
ATOM     18  C   UNL     1      32.751  -9.669  13.559  0.00  0.00    +0.000 A 
ATOM     19  C   UNL     1      32.543  -9.348  14.875  0.00  0.00    +0.000 A 
ATOM     20  C   UNL     1      33.029  -8.168  15.388  0.00  0.00    +0.000 A 
ENDBRANCH  12  15
ENDBRANCH   2   9
BRANCH   2  21
ATOM     21  C   UNL     1      34.747  -1.283  16.833  0.00  0.00    +0.000 C 
BRANCH  21  22
ATOM     22  C   UNL     1      35.172   0.103  16.772  0.00  0.00    +0.000 C 
ATOM     23  C   UNL     1      35.506   1.247  16.736  0.00  0.00    +0.000 C 
BRANCH  23  24
ATOM     24  C   UNL     1      35.900   2.658  16.711  0.00  0.00    +0.000 C 
BRANCH  24  25
ATOM     25  N   UNL     1      36.679   2.888  15.534  0.00  0.00    +0.000 NA
ATOM     26  C   UNL     1      37.429   4.119  15.590  0.00  0.00    +0.000 C 
ATOM     27  C   UNL     1      38.903   3.781  15.582  0.00  0.00    +0.000 C 
ATOM     28  C   UNL     1      39.185   2.996  14.316  0.00  0.00    +0.000 C 
ATOM     29  C   UNL     1      38.166   3.383  13.288  0.00  0.00    +0.000 C 
ATOM     30  C   UNL     1      37.010   2.403  13.215  0.00  0.00    +0.000 C 
ATOM     31  C   UNL     1      35.985   2.689  14.300  0.00  0.00    +0.000 C 
ENDBRANCH  24  25
ENDBRANCH  23  24
ENDBRANCH  21  22
ENDBRANCH   2  21
TORSDOF 7
ENDMDL
MODEL 5
REMARK VINA RESULT:      -7.7     23.687     26.578
REMARK  Name = 
REMARK  7 active torsions:
REMARK  status: ('A' for Active; 'I' for Inactive)
REMARK    1  A    between atoms: C_2  and  C_3
REMARK    2  A    between atoms: C_2  and  C_14
REMARK    3  A    between atoms: C_2  and  C_20
REMARK    4  A    between atoms: C_3  and  C_4
REMARK    5  A    between atoms: C_5  and  C_6
REMARK    6  A    between atoms: C_6  and  N_7
REMARK    7  A    between atoms: C_23  and  C_24
REMARK                            x       y       z     vdW  Elec       q    Type
REMARK                         _______ _______ _______ _____ _____    ______ ____
ROOT
ATOM      1  O   UNL     1      13.844   0.586  29.116  0.00  0.00    +0.000 OA
ATOM      2  C   UNL     1      13.561   0.295  27.760  0.00  0.00    +0.000 C 
ENDROOT
BRANCH   2   3
ATOM      3  C   UNL     1      12.629   1.326  27.250  0.00  0.00    +0.000 A 
ATOM      4  C   UNL     1      12.848   2.673  27.436  0.00  0.00    +0.000 A 
ATOM      5  C   UNL     1      11.969   3.636  26.955  0.00  0.00    +0.000 A 
ATOM      6  C   UNL     1      10.840   3.258  26.269  0.00  0.00    +0.000 A 
ATOM      7  C   UNL     1      10.606   1.917  26.073  0.00  0.00    +0.000 A 
ATOM      8  C   UNL     1      11.494   0.967  26.562  0.00  0.00    +0.000 A 
ENDBRANCH   2   3
BRANCH   2   9
ATOM      9  C   UNL     1      14.848   0.298  26.996  0.00  0.00    +0.000 A 
ATOM     10  C   UNL     1      15.080  -0.630  26.002  0.00  0.00    +0.000 A 
ATOM     11  C   UNL     1      16.266  -0.629  25.297  0.00  0.00    +0.000 A 
ATOM     12  C   UNL     1      17.275   0.291  25.545  0.00  0.00    +0.000 A 
ATOM     13  C   UNL     1      17.038   1.216  26.539  0.00  0.00    +0.000 A 
ATOM     14  C   UNL     1      15.852   1.212  27.240  0.00  0.00    +0.000 A 
BRANCH  12  15
ATOM     15  C   UNL     1      18.523   0.288  24.799  0.00  0.00    +0.000 A 
ATOM     16  C   UNL     1      19.099  -0.896  24.397  0.00  0.00    +0.000 A 
ATOM     17  C   UNL     1      20.274  -0.972  23.690  0.00  0.00    +0.000 A 
ATOM     18  C   UNL     1      20.928   0.186  23.356  0.00  0.00    +0.000 A 
ATOM     19  C   UNL     1      20.393   1.390  23.735  0.00  0.00    +0.000 A 
ATOM     20  C   UNL     1      19.214   1.435  24.443  0.00  0.00    +0.000 A 
ENDBRANCH  12  15
ENDBRANCH   2   9
BRANCH   2  21
ATOM     21  C   UNL     1      12.958  -1.080  27.754  0.00  0.00    +0.000 C 
BRANCH  21  22
ATOM     22  C   UNL     1      12.715  -1.625  29.076  0.00  0.00    +0.000 C 
ATOM     23  C   UNL     1      12.513  -2.092  30.154  0.00  0.00    +0.000 C 
BRANCH  23  24
ATOM     24  C   UNL     1      12.263  -2.690  31.469  0.00  0.00    +0.000 C 
BRANCH  24  25
ATOM     25  N   UNL     1      13.393  -2.427  32.307  0.00  0.00    +0.000 NA
ATOM     26  C   UNL     1      13.419  -3.253  33.488  0.00  0.00    +0.000 C 
ATOM     27  C   UNL     1      14.635  -4.149  33.418  0.00  0.00    +0.000 C 
ATOM     28  C   UNL     1      15.855  -3.255  33.318  0.00  0.00    +0.000 C 
ATOM     29  C   UNL     1      15.526  -1.939  33.953  0.00  0.00    +0.000 C 
ATOM     30  C   UNL     1      15.112  -0.889  32.939  0.00  0.00    +0.000 C 
ATOM     31  C   UNL     1      13.648  -1.044  32.561  0.00  0.00    +0.000 C 
ENDBRANCH  24  25
ENDBRANCH  23  24
ENDBRANCH  21  22
ENDBRANCH   2  21
TORSDOF 7
ENDMDL
MODEL 6
REMARK VINA RESULT:      -7.7      2.195      4.748
REMARK  Name = 
REMARK  7 active torsions:
REMARK  status: ('A' for Active; 'I' for Inactive)
REMARK    1  A    between atoms: C_2  and  C_3
REMARK    2  A    between atoms: C_2  and  C_14
REMARK    3  A    between atoms: C_2  and  C_20
REMARK    4  A    between atoms: C_3  and  C_4
REMARK    5  A    between atoms: C_5  and  C_6
REMARK    6  A    between atoms: C_6  and  N_7
REMARK    7  A    between atoms: C_23  and  C_24
REMARK                            x       y       z     vdW  Elec       q    Type
REMARK                         _______ _______ _______ _____ _____    ______ ____
ROOT
ATOM      1  O   UNL     1      37.641   4.282  16.889  0.00  0.00    +0.000 OA
ATOM      2  C   UNL     1      38.552   5.181  16.284  0.00  0.00    +0.000 C 
ENDROOT
BRANCH   2   3
ATOM      3  C   UNL     1      37.780   6.317  15.730  0.00  0.00    +0.000 A 
ATOM      4  C   UNL     1      37.869   7.590  16.247  0.00  0.00    +0.000 A 
ATOM      5  C   UNL     1      37.141   8.651  15.720  0.00  0.00    +0.000 A 
ATOM      6  C   UNL     1      36.302   8.449  14.652  0.00  0.00    +0.000 A 
ATOM      7  C   UNL     1      36.202   7.184  14.123  0.00  0.00    +0.000 A 
ATOM      8  C   UNL     1      36.935   6.133  14.661  0.00  0.00    +0.000 A 
ENDBRANCH   2   3
BRANCH   2   9
ATOM      9  C   UNL     1      39.525   5.641  17.325  0.00  0.00    +0.000 A 
ATOM     10  C   UNL     1      39.170   5.673  18.657  0.00  0.00    +0.000 A 
ATOM     11  C   UNL     1      40.065   6.097  19.617  0.00  0.00    +0.000 A 
ATOM     12  C   UNL     1      41.353   6.508  19.301  0.00  0.00    +0.000 A 
ATOM     13  C   UNL     1      41.703   6.473  17.967  0.00  0.00    +0.000 A 
ATOM     14  C   UNL     1      40.805   6.049  17.012  0.00  0.00    +0.000 A 
BRANCH  12  15
ATOM     15  C   UNL     1      42.292   6.953  20.317  0.00  0.00    +0.000 A 
ATOM     16  C   UNL     1      42.920   6.047  21.141  0.00  0.00    +0.000 A 
ATOM     17  C   UNL     1      43.817   6.398  22.119  0.00  0.00    +0.000 A 
ATOM     18  C   UNL     1      44.119   7.723  22.303  0.00  0.00    +0.000 A 
ATOM     19  C   UNL     1      43.519   8.663  21.506  0.00  0.00    +0.000 A 
ATOM     20  C   UNL     1      42.624   8.281  20.534  0.00  0.00    +0.000 A 
ENDBRANCH  12  15
ENDBRANCH   2   9
BRANCH   2  21
ATOM     21  C   UNL     1      39.261   4.392  15.222  0.00  0.00    +0.000 C 
BRANCH  21  22
ATOM     22  C   UNL     1      38.734   3.055  15.028  0.00  0.00    +0.000 C 
ATOM     23  C   UNL     1      38.314   1.953  14.852  0.00  0.00    +0.000 C 
BRANCH  23  24
ATOM     24  C   UNL     1      37.816   0.595  14.616  0.00  0.00    +0.000 C 
BRANCH  24  25
ATOM     25  N   UNL     1      36.866   0.279  15.639  0.00  0.00    +0.000 NA
ATOM     26  C   UNL     1      36.760  -1.137  15.886  0.00  0.00    +0.000 C 
ATOM     27  C   UNL     1      37.232  -1.413  17.296  0.00  0.00    +0.000 C 
ATOM     28  C   UNL     1      36.363  -0.602  18.236  0.00  0.00    +0.000 C 
ATOM     29  C   UNL     1      35.040  -0.374  17.572  0.00  0.00    +0.000 C 
ATOM     30  C   UNL     1      34.953   0.980  16.892  0.00  0.00    +0.000 C 
ATOM     31  C   UNL     1      35.606   0.942  15.519  0.00  0.00    +0.000 C 
ENDBRANCH  24  25
ENDBRANCH  23  24
ENDBRANCH  21  22
ENDBRANCH   2  21
TORSDOF 7
ENDMDL
MODEL 7
REMARK VINA RESULT:      -7.5      3.719      6.253
REMARK  Name = 
REMARK  7 active torsions:
REMARK  status: ('A' for Active; 'I' for Inactive)
REMARK    1  A    between atoms: C_2  and  C_3
REMARK    2  A    between atoms: C_2  and  C_14
REMARK    3  A    between atoms: C_2  and  C_20
REMARK    4  A    between atoms: C_3  and  C_4
REMARK    5  A    between atoms: C_5  and  C_6
REMARK    6  A    between atoms: C_6  and  N_7
REMARK    7  A    between atoms: C_23  and  C_24
REMARK                            x       y       z     vdW  Elec       q    Type
REMARK                         _______ _______ _______ _____ _____    ______ ____
ROOT
ATOM      1  O   UNL     1      39.754   5.498  16.405  0.00  0.00    +0.000 OA
ATOM      2  C   UNL     1      39.458   5.870  17.739  0.00  0.00    +0.000 C 
ENDROOT
BRANCH   2   3
ATOM      3  C   UNL     1      40.732   6.190  18.422  0.00  0.00    +0.000 A 
ATOM      4  C   UNL     1      40.858   6.167  19.793  0.00  0.00    +0.000 A 
ATOM      5  C   UNL     1      42.057   6.468  20.428  0.00  0.00    +0.000 A 
ATOM      6  C   UNL     1      43.166   6.802  19.687  0.00  0.00    +0.000 A 
ATOM      7  C   UNL     1      43.057   6.829  18.316  0.00  0.00    +0.000 A 
ATOM      8  C   UNL     1      41.851   6.526  17.697  0.00  0.00    +0.000 A 
ENDBRANCH   2   3
BRANCH   2   9
ATOM      9  C   UNL     1      38.544   7.056  17.708  0.00  0.00    +0.000 A 
ATOM     10  C   UNL     1      38.211   7.658  16.513  0.00  0.00    +0.000 A 
ATOM     11  C   UNL     1      37.369   8.751  16.483  0.00  0.00    +0.000 A 
ATOM     12  C   UNL     1      36.820   9.296  17.635  0.00  0.00    +0.000 A 
ATOM     13  C   UNL     1      37.156   8.690  18.827  0.00  0.00    +0.000 A 
ATOM     14  C   UNL     1      37.997   7.598  18.852  0.00  0.00    +0.000 A 
BRANCH  12  15
ATOM     15  C   UNL     1      35.934  10.448  17.598  0.00  0.00    +0.000 A 
ATOM     16  C   UNL     1      34.570  10.283  17.498  0.00  0.00    +0.000 A 
ATOM     17  C   UNL     1      33.677  11.325  17.459  0.00  0.00    +0.000 A 
ATOM     18  C   UNL     1      34.149  12.612  17.519  0.00  0.00    +0.000 A 
ATOM     19  C   UNL     1      35.499  12.825  17.618  0.00  0.00    +0.000 A 
ATOM     20  C   UNL     1      36.370  11.761  17.656  0.00  0.00    +0.000 A 
ENDBRANCH  12  15
ENDBRANCH   2   9
BRANCH   2  21
ATOM     21  C   UNL     1      38.757   4.690  18.347  0.00  0.00    +0.000 C 
BRANCH  21  22
ATOM     22  C   UNL     1      37.782   4.067  17.472  0.00  0.00    +0.000 C 
ATOM     23  C   UNL     1      36.994   3.538  16.751  0.00  0.00    +0.000 C 
BRANCH  23  24
ATOM     24  C   UNL     1      36.040   2.866  15.863  0.00  0.00    +0.000 C 
BRANCH  24  25
ATOM     25  N   UNL     1      36.284   1.458  15.921  0.00  0.00    +0.000 NA
ATOM     26  C   UNL     1      36.123   0.917  17.248  0.00  0.00    +0.000 C 
ATOM     27  C   UNL     1      34.962  -0.052  17.232  0.00  0.00    +0.000 C 
ATOM     28  C   UNL     1      35.277  -1.126  16.210  0.00  0.00    +0.000 C 
ATOM     29  C   UNL     1      36.766  -1.233  16.085  0.00  0.00    +0.000 C 
ATOM     30  C   UNL     1      37.311  -0.449  14.906  0.00  0.00    +0.000 C 
ATOM     31  C   UNL     1      37.472   1.021  15.257  0.00  0.00    +0.000 C 
ENDBRANCH  24  25
ENDBRANCH  23  24
ENDBRANCH  21  22
ENDBRANCH   2  21
TORSDOF 7
ENDMDL
MODEL 8
REMARK VINA RESULT:      -7.4     24.242     27.242
REMARK  Name = 
REMARK  7 active torsions:
REMARK  status: ('A' for Active; 'I' for Inactive)
REMARK    1  A    between atoms: C_2  and  C_3
REMARK    2  A    between atoms: C_2  and  C_14
REMARK    3  A    between atoms: C_2  and  C_20
REMARK    4  A    between atoms: C_3  and  C_4
REMARK    5  A    between atoms: C_5  and  C_6
REMARK    6  A    between atoms: C_6  and  N_7
REMARK    7  A    between atoms: C_23  and  C_24
REMARK                            x       y       z     vdW  Elec       q    Type
REMARK                         _______ _______ _______ _____ _____    ______ ____
ROOT
ATOM      1  O   UNL     1      14.201   0.097  29.709  0.00  0.00    +0.000 OA
ATOM      2  C   UNL     1      13.758   0.079  28.365  0.00  0.00    +0.000 C 
ENDROOT
BRANCH   2   3
ATOM      3  C   UNL     1      12.882   1.253  28.151  0.00  0.00    +0.000 A 
ATOM      4  C   UNL     1      13.080   2.142  27.119  0.00  0.00    +0.000 A 
ATOM      5  C   UNL     1      12.252   3.242  26.925  0.00  0.00    +0.000 A 
ATOM      6  C   UNL     1      11.198   3.472  27.776  0.00  0.00    +0.000 A 
ATOM      7  C   UNL     1      10.986   2.593  28.812  0.00  0.00    +0.000 A 
ATOM      8  C   UNL     1      11.822   1.499  28.993  0.00  0.00    +0.000 A 
ENDBRANCH   2   3
BRANCH   2   9
ATOM      9  C   UNL     1      14.958   0.125  27.470  0.00  0.00    +0.000 A 
ATOM     10  C   UNL     1      16.078   0.845  27.831  0.00  0.00    +0.000 A 
ATOM     11  C   UNL     1      17.184   0.889  27.008  0.00  0.00    +0.000 A 
ATOM     12  C   UNL     1      17.230   0.223  25.791  0.00  0.00    +0.000 A 
ATOM     13  C   UNL     1      16.108  -0.494  25.435  0.00  0.00    +0.000 A 
ATOM     14  C   UNL     1      15.005  -0.536  26.261  0.00  0.00    +0.000 A 
BRANCH  12  15
ATOM     15  C   UNL     1      18.399   0.273  24.927  0.00  0.00    +0.000 A 
ATOM     16  C   UNL     1      18.933  -0.880  24.398  0.00  0.00    +0.000 A 
ATOM     17  C   UNL     1      20.033  -0.905  23.576  0.00  0.00    +0.000 A 
ATOM     18  C   UNL     1      20.650   0.276  23.252  0.00  0.00    +0.000 A 
ATOM     19  C   UNL     1      20.154   1.451  23.755  0.00  0.00    +0.000 A 
ATOM     20  C   UNL     1      19.051   1.444  24.576  0.00  0.00    +0.000 A 
ENDBRANCH  12  15
ENDBRANCH   2   9
BRANCH   2  21
ATOM     21  C   UNL     1      13.031  -1.223  28.190  0.00  0.00    +0.000 C 
BRANCH  21  22
ATOM     22  C   UNL     1      12.145  -1.256  27.042  0.00  0.00    +0.000 C 
ATOM     23  C   UNL     1      11.400  -1.282  26.111  0.00  0.00    +0.000 C 
BRANCH  23  24
ATOM     24  C   UNL     1      10.465  -1.313  24.983  0.00  0.00    +0.000 C 
BRANCH  24  25
ATOM     25  N   UNL     1       9.326  -0.514  25.319  0.00  0.00    +0.000 NA
ATOM     26  C   UNL     1       9.686   0.777  25.852  0.00  0.00    +0.000 C 
ATOM     27  C   UNL     1       9.201   1.842  24.895  0.00  0.00    +0.000 C 
ATOM     28  C   UNL     1       7.701   1.679  24.752  0.00  0.00    +0.000 C 
ATOM     29  C   UNL     1       7.177   1.040  26.001  0.00  0.00    +0.000 C 
ATOM     30  C   UNL     1       6.997  -0.459  25.858  0.00  0.00    +0.000 C 
ATOM     31  C   UNL     1       8.314  -1.189  26.069  0.00  0.00    +0.000 C 
ENDBRANCH  24  25
ENDBRANCH  23  24
ENDBRANCH  21  22
ENDBRANCH   2  21
TORSDOF 7
ENDMDL
MODEL 9
REMARK VINA RESULT:      -7.4      3.765      7.694
REMARK  Name = 
REMARK  7 active torsions:
REMARK  status: ('A' for Active; 'I' for Inactive)
REMARK    1  A    between atoms: C_2  and  C_3
REMARK    2  A    between atoms: C_2  and  C_14
REMARK    3  A    between atoms: C_2  and  C_20
REMARK    4  A    between atoms: C_3  and  C_4
REMARK    5  A    between atoms: C_5  and  C_6
REMARK    6  A    between atoms: C_6  and  N_7
REMARK    7  A    between atoms: C_23  and  C_24
REMARK                            x       y       z     vdW  Elec       q    Type
REMARK                         _______ _______ _______ _____ _____    ______ ____
ROOT
ATOM      1  O   UNL     1      36.381  -4.798  16.059  0.00  0.00    +0.000 OA
ATOM      2  C   UNL     1      36.774  -3.450  16.238  0.00  0.00    +0.000 C 
ENDROOT
BRANCH   2   3
ATOM      3  C   UNL     1      37.372  -3.318  17.586  0.00  0.00    +0.000 A 
ATOM      4  C   UNL     1      37.006  -2.319  18.459  0.00  0.00    +0.000 A 
ATOM      5  C   UNL     1      37.572  -2.202  19.724  0.00  0.00    +0.000 A 
ATOM      6  C   UNL     1      38.527  -3.098  20.138  0.00  0.00    +0.000 A 
ATOM      7  C   UNL     1      38.904  -4.103  19.278  0.00  0.00    +0.000 A 
ATOM      8  C   UNL     1      38.330  -4.206  18.017  0.00  0.00    +0.000 A 
ENDBRANCH   2   3
BRANCH   2   9
ATOM      9  C   UNL     1      37.760  -3.098  15.168  0.00  0.00    +0.000 A 
ATOM     10  C   UNL     1      37.499  -3.389  13.845  0.00  0.00    +0.000 A 
ATOM     11  C   UNL     1      38.406  -3.066  12.858  0.00  0.00    +0.000 A 
ATOM     12  C   UNL     1      39.614  -2.440  13.136  0.00  0.00    +0.000 A 
ATOM     13  C   UNL     1      39.870  -2.152  14.460  0.00  0.00    +0.000 A 
ATOM     14  C   UNL     1      38.960  -2.476  15.442  0.00  0.00    +0.000 A 
BRANCH  12  15
ATOM     15  C   UNL     1      40.566  -2.102  12.091  0.00  0.00    +0.000 A 
ATOM     16  C   UNL     1      40.232  -2.238  10.763  0.00  0.00    +0.000 A 
ATOM     17  C   UNL     1      41.081  -1.937   9.727  0.00  0.00    +0.000 A 
ATOM     18  C   UNL     1      42.341  -1.473  10.010  0.00  0.00    +0.000 A 
ATOM     19  C   UNL     1      42.720  -1.322  11.319  0.00  0.00    +0.000 A 
ATOM     20  C   UNL     1      41.847  -1.632  12.335  0.00  0.00    +0.000 A 
ENDBRANCH  12  15
ENDBRANCH   2   9
BRANCH   2  21
ATOM     21  C   UNL     1      35.524  -2.635  16.079  0.00  0.00    +0.000 C 
BRANCH  21  22
ATOM     22  C   UNL     1      35.764  -1.240  15.759  0.00  0.00    +0.000 C 
ATOM     23  C   UNL     1      35.978  -0.095  15.509  0.00  0.00    +0.000 C 
BRANCH  23  24
ATOM     24  C   UNL     1      36.261   1.314  15.218  0.00  0.00    +0.000 C 
BRANCH  24  25
ATOM     25  N   UNL     1      37.237   1.372  14.174  0.00  0.00    +0.000 NA
ATOM     26  C   UNL     1      37.995   2.598  14.183  0.00  0.00    +0.000 C 
ATOM     27  C   UNL     1      39.440   2.265  14.481  0.00  0.00    +0.000 C 
ATOM     28  C   UNL     1      39.918   1.305  13.409  0.00  0.00    +0.000 C 
ATOM     29  C   UNL     1      39.101   1.536  12.174  0.00  0.00    +0.000 C 
ATOM     30  C   UNL     1      37.953   0.554  12.042  0.00  0.00    +0.000 C 
ATOM     31  C   UNL     1      36.762   0.994  12.880  0.00  0.00    +0.000 C 
ENDBRANCH  24  25
ENDBRANCH  23  24
ENDBRANCH  21  22
ENDBRANCH   2  21
TORSDOF 7
ENDMDL
MODEL 10
REMARK VINA RESULT:      -7.4      3.794      7.409
REMARK  Name = 
REMARK  7 active torsions:
REMARK  status: ('A' for Active; 'I' for Inactive)
REMARK    1  A    between atoms: C_2  and  C_3
REMARK    2  A    between atoms: C_2  and  C_14
REMARK    3  A    between atoms: C_2  and  C_20
REMARK    4  A    between atoms: C_3  and  C_4
REMARK    5  A    between atoms: C_5  and  C_6
REMARK    6  A    between atoms: C_6  and  N_7
REMARK    7  A    between atoms: C_23  and  C_24
REMARK                            x       y       z     vdW  Elec       q    Type
REMARK                         _______ _______ _______ _____ _____    ______ ____
ROOT
ATOM      1  O   UNL     1      39.439   1.870  12.750  0.00  0.00    +0.000 OA
ATOM      2  C   UNL     1      38.117   1.383  12.608  0.00  0.00    +0.000 C 
ENDROOT
BRANCH   2   3
ATOM      3  C   UNL     1      37.334   1.824  13.784  0.00  0.00    +0.000 A 
ATOM      4  C   UNL     1      37.911   2.470  14.854  0.00  0.00    +0.000 A 
ATOM      5  C   UNL     1      37.169   2.881  15.955  0.00  0.00    +0.000 A 
ATOM      6  C   UNL     1      35.815   2.648  16.000  0.00  0.00    +0.000 A 
ATOM      7  C   UNL     1      35.222   2.004  14.939  0.00  0.00    +0.000 A 
ATOM      8  C   UNL     1      35.978   1.599  13.846  0.00  0.00    +0.000 A 
ENDBRANCH   2   3
BRANCH   2   9
ATOM      9  C   UNL     1      37.546   1.930  11.336  0.00  0.00    +0.000 A 
ATOM     10  C   UNL     1      37.519   3.290  11.103  0.00  0.00    +0.000 A 
ATOM     11  C   UNL     1      36.992   3.795   9.933  0.00  0.00    +0.000 A 
ATOM     12  C   UNL     1      36.468   2.977   8.941  0.00  0.00    +0.000 A 
ATOM     13  C   UNL     1      36.497   1.620   9.180  0.00  0.00    +0.000 A 
ATOM     14  C   UNL     1      37.025   1.119  10.350  0.00  0.00    +0.000 A 
BRANCH  12  15
ATOM     15  C   UNL     1      35.914   3.516   7.710  0.00  0.00    +0.000 A 
ATOM     16  C   UNL     1      35.986   2.803   6.534  0.00  0.00    +0.000 A 
ATOM     17  C   UNL     1      35.484   3.250   5.338  0.00  0.00    +0.000 A 
ATOM     18  C   UNL     1      34.871   4.477   5.288  0.00  0.00    +0.000 A 
ATOM     19  C   UNL     1      34.776   5.224   6.433  0.00  0.00    +0.000 A 
ATOM     20  C   UNL     1      35.288   4.749   7.618  0.00  0.00    +0.000 A 
ENDBRANCH  12  15
ENDBRANCH   2   9
BRANCH   2  21
ATOM     21  C   UNL     1      38.238  -0.111  12.522  0.00  0.00    +0.000 C 
BRANCH  21  22
ATOM     22  C   UNL     1      38.255  -0.777  13.810  0.00  0.00    +0.000 C 
ATOM     23  C   UNL     1      38.289  -1.323  14.869  0.00  0.00    +0.000 C 
BRANCH  23  24
ATOM     24  C   UNL     1      38.358  -1.992  16.172  0.00  0.00    +0.000 C 
BRANCH  24  25
ATOM     25  N   UNL     1      37.208  -1.613  16.934  0.00  0.00    +0.000 NA
ATOM     26  C   UNL     1      37.254  -2.094  18.293  0.00  0.00    +0.000 C 
ATOM     27  C   UNL     1      37.322  -0.901  19.220  0.00  0.00    +0.000 C 
ATOM     28  C   UNL     1      36.098  -0.047  18.957  0.00  0.00    +0.000 C 
ATOM     29  C   UNL     1      35.014  -0.933  18.425  0.00  0.00    +0.000 C 
ATOM     30  C   UNL     1      34.925  -0.901  16.910  0.00  0.00    +0.000 C 
ATOM     31  C   UNL     1      35.954  -1.830  16.285  0.00  0.00    +0.000 C 
ENDBRANCH  24  25
ENDBRANCH  23  24
ENDBRANCH  21  22
ENDBRANCH   2  21
TORSDOF 7
ENDMDL
