MODEL 1
REMARK VINA RESULT:      -7.6      0.000      0.000
REMARK  Name = 
REMARK  8 active torsions:
REMARK  status: ('A' for Active; 'I' for Inactive)
REMARK    1  A    between atoms: C_2  and  N_3
REMARK    2  A    between atoms: N_3  and  C_4
REMARK    3  A    between atoms: N_3  and  C_6
REMARK    4  A    between atoms: C_6  and  C_7
REMARK    5  A    between atoms: C_7  and  C_9
REMARK    6  A    between atoms: C_9  and  N_10
REMARK    7  A    between atoms: C_11  and  C_12
REMARK    8  A    between atoms: C_18  and  C_19
REMARK                            x       y       z     vdW  Elec       q    Type
REMARK                         _______ _______ _______ _____ _____    ______ ____
ROOT
ATOM      1  N   UNL     1      36.838   0.301  15.415  0.00  0.00    +0.000 N 
ATOM      2  C   UNL     1      37.745   0.018  14.461  0.00  0.00    +0.000 A 
ATOM      3  C   UNL     1      38.607  -0.964  14.891  0.00  0.00    +0.000 A 
ATOM      4  C   UNL     1      38.222  -1.315  16.177  0.00  0.00    +0.000 A 
ATOM      5  C   UNL     1      38.716  -2.232  17.088  0.00  0.00    +0.000 A 
ATOM      6  C   UNL     1      38.128  -2.379  18.327  0.00  0.00    +0.000 A 
ATOM      7  C   UNL     1      38.663  -3.377  19.325  0.00  0.00    +0.000 C 
ATOM      8  C   UNL     1      37.047  -1.587  18.613  0.00  0.00    +0.000 A 
ATOM      9  C   UNL     1      36.554  -0.672  17.704  0.00  0.00    +0.000 A 
ATOM     10  C   UNL     1      35.393   0.184  18.004  0.00  0.00    +0.000 C 
ATOM     11  C   UNL     1      37.135  -0.510  16.449  0.00  0.00    +0.000 A 
ENDROOT
BRANCH   2  12
ATOM     12  C   UNL     1      37.869   0.617  13.130  0.00  0.00    +0.000 A 
ATOM     13  C   UNL     1      38.932   1.408  12.754  0.00  0.00    +0.000 A 
ATOM     14  C   UNL     1      39.034   1.966  11.493  0.00  0.00    +0.000 A 
ATOM     15  C   UNL     1      38.056   1.743  10.552  0.00  0.00    +0.000 A 
ATOM     16  C   UNL     1      36.971   0.952  10.896  0.00  0.00    +0.000 A 
ATOM     17  C   UNL     1      36.895   0.413  12.151  0.00  0.00    +0.000 A 
ENDBRANCH   2  12
BRANCH   3  18
ATOM     18  C   UNL     1      39.740  -1.596  14.220  0.00  0.00    +0.000 A 
ATOM     19  C   UNL     1      41.046  -1.349  14.551  0.00  0.00    +0.000 A 
ATOM     20  C   UNL     1      42.054  -1.994  13.865  0.00  0.00    +0.000 A 
ATOM     21  C   UNL     1      41.817  -2.891  12.847  0.00  0.00    +0.000 A 
ATOM     22  C   UNL     1      40.507  -3.143  12.512  0.00  0.00    +0.000 A 
ATOM     23  C   UNL     1      39.502  -2.497  13.199  0.00  0.00    +0.000 A 
ENDBRANCH   3  18
BRANCH   1  24
ATOM     24  C   UNL     1      35.765   1.280  15.337  0.00  0.00    +0.000 C 
BRANCH  24  25
ATOM     25  C   UNL     1      36.571   2.707  14.939  0.00  0.00    +0.000 C 
ATOM     26  O   UNL     1      35.245   3.498  14.900  0.00  0.00    +0.000 OA
BRANCH  25  27
ATOM     27  C   UNL     1      36.785   3.068  16.571  0.00  0.00    +0.000 C 
BRANCH  27  28
ATOM     28  N   UNL     1      38.111   3.656  16.585  0.00  0.00    +0.000 NA
BRANCH  28  30
ATOM     29  C   UNL     1      38.881   4.987  18.488  0.00  0.00    +0.000 C 
ATOM     30  C   UNL     1      38.145   4.964  17.176  0.00  0.00    +0.000 C 
ENDBRANCH  28  30
BRANCH  28  31
ATOM     31  C   UNL     1      38.506   3.748  15.208  0.00  0.00    +0.000 C 
ATOM     32  C   UNL     1      39.717   4.658  15.049  0.00  0.00    +0.000 C 
ENDBRANCH  28  31
ENDBRANCH  27  28
ENDBRANCH  25  27
ENDBRANCH  24  25
ENDBRANCH   1  24
TORSDOF 8
ENDMDL
MODEL 2
REMARK VINA RESULT:      -7.4      2.615      6.029
REMARK  Name = 
REMARK  8 active torsions:
REMARK  status: ('A' for Active; 'I' for Inactive)
REMARK    1  A    between atoms: C_2  and  N_3
REMARK    2  A    between atoms: N_3  and  C_4
REMARK    3  A    between atoms: N_3  and  C_6
REMARK    4  A    between atoms: C_6  and  C_7
REMARK    5  A    between atoms: C_7  and  C_9
REMARK    6  A    between atoms: C_9  and  N_10
REMARK    7  A    between atoms: C_11  and  C_12
REMARK    8  A    between atoms: C_18  and  C_19
REMARK                            x       y       z     vdW  Elec       q    Type
REMARK                         _______ _______ _______ _____ _____    ______ ____
ROOT
ATOM      1  N   UNL     1      38.029  -0.957  15.930  0.00  0.00    +0.000 N 
ATOM      2  C   UNL     1      38.626  -0.760  14.739  0.00  0.00    +0.000 A 
ATOM      3  C   UNL     1      38.027   0.279  14.066  0.00  0.00    +0.000 A 
ATOM      4  C   UNL     1      37.005   0.759  14.872  0.00  0.00    +0.000 A 
ATOM      5  C   UNL     1      36.082   1.777  14.715  0.00  0.00    +0.000 A 
ATOM      6  C   UNL     1      35.154   2.045  15.699  0.00  0.00    +0.000 A 
ATOM      7  C   UNL     1      34.145   3.154  15.531  0.00  0.00    +0.000 C 
ATOM      8  C   UNL     1      35.185   1.267  16.826  0.00  0.00    +0.000 A 
ATOM      9  C   UNL     1      36.106   0.250  16.984  0.00  0.00    +0.000 A 
ATOM     10  C   UNL     1      36.145  -0.593  18.193  0.00  0.00    +0.000 C 
ATOM     11  C   UNL     1      37.050  -0.034  16.001  0.00  0.00    +0.000 A 
ENDROOT
BRANCH   2  12
ATOM     12  C   UNL     1      39.755  -1.495  14.165  0.00  0.00    +0.000 A 
ATOM     13  C   UNL     1      41.046  -1.381  14.631  0.00  0.00    +0.000 A 
ATOM     14  C   UNL     1      42.101  -2.082  14.078  0.00  0.00    +0.000 A 
ATOM     15  C   UNL     1      41.891  -2.937  13.021  0.00  0.00    +0.000 A 
ATOM     16  C   UNL     1      40.604  -3.077  12.526  0.00  0.00    +0.000 A 
ATOM     17  C   UNL     1      39.579  -2.370  13.093  0.00  0.00    +0.000 A 
ENDBRANCH   2  12
BRANCH   3  18
ATOM     18  C   UNL     1      38.319   0.859  12.757  0.00  0.00    +0.000 A 
ATOM     19  C   UNL     1      37.656   0.506  11.611  0.00  0.00    +0.000 A 
ATOM     20  C   UNL     1      37.996   1.108  10.417  0.00  0.00    +0.000 A 
ATOM     21  C   UNL     1      38.983   2.063  10.310  0.00  0.00    +0.000 A 
ATOM     22  C   UNL     1      39.651   2.421  11.458  0.00  0.00    +0.000 A 
ATOM     23  C   UNL     1      39.308   1.818  12.649  0.00  0.00    +0.000 A 
ENDBRANCH   3  18
BRANCH   1  24
ATOM     24  C   UNL     1      38.375  -1.960  16.925  0.00  0.00    +0.000 C 
BRANCH  24  25
ATOM     25  C   UNL     1      38.319  -3.403  16.054  0.00  0.00    +0.000 C 
ATOM     26  O   UNL     1      39.056  -4.163  17.180  0.00  0.00    +0.000 OA
BRANCH  25  27
ATOM     27  C   UNL     1      36.821  -3.778  16.730  0.00  0.00    +0.000 C 
BRANCH  27  28
ATOM     28  N   UNL     1      36.154  -4.463  15.639  0.00  0.00    +0.000 NA
BRANCH  28  30
ATOM     29  C   UNL     1      34.400  -2.828  16.121  0.00  0.00    +0.000 C 
ATOM     30  C   UNL     1      35.044  -3.728  15.102  0.00  0.00    +0.000 C 
ENDBRANCH  28  30
BRANCH  28  31
ATOM     31  C   UNL     1      35.680  -5.700  16.192  0.00  0.00    +0.000 C 
ATOM     32  C   UNL     1      34.598  -6.312  15.311  0.00  0.00    +0.000 C 
ENDBRANCH  28  31
ENDBRANCH  27  28
ENDBRANCH  25  27
ENDBRANCH  24  25
ENDBRANCH   1  24
TORSDOF 8
ENDMDL
MODEL 3
REMARK VINA RESULT:      -7.3      2.055      5.131
REMARK  Name = 
REMARK  8 active torsions:
REMARK  status: ('A' for Active; 'I' for Inactive)
REMARK    1  A    between atoms: C_2  and  N_3
REMARK    2  A    between atoms: N_3  and  C_4
REMARK    3  A    between atoms: N_3  and  C_6
REMARK    4  A    between atoms: C_6  and  C_7
REMARK    5  A    between atoms: C_7  and  C_9
REMARK    6  A    between atoms: C_9  and  N_10
REMARK    7  A    between atoms: C_11  and  C_12
REMARK    8  A    between atoms: C_18  and  C_19
REMARK                            x       y       z     vdW  Elec       q    Type
REMARK                         _______ _______ _______ _____ _____    ______ ____
ROOT
ATOM      1  N   UNL     1      37.589   0.906  14.623  0.00  0.00    +0.000 N 
ATOM      2  C   UNL     1      38.336  -0.209  14.527  0.00  0.00    +0.000 A 
ATOM      3  C   UNL     1      39.586   0.089  14.036  0.00  0.00    +0.000 A 
ATOM      4  C   UNL     1      39.626   1.458  13.813  0.00  0.00    +0.000 A 
ATOM      5  C   UNL     1      40.609   2.304  13.333  0.00  0.00    +0.000 A 
ATOM      6  C   UNL     1      40.375   3.658  13.210  0.00  0.00    +0.000 A 
ATOM      7  C   UNL     1      41.444   4.584  12.686  0.00  0.00    +0.000 C 
ATOM      8  C   UNL     1      39.140   4.122  13.578  0.00  0.00    +0.000 A 
ATOM      9  C   UNL     1      38.158   3.277  14.057  0.00  0.00    +0.000 A 
ATOM     10  C   UNL     1      36.826   3.769  14.454  0.00  0.00    +0.000 C 
ATOM     11  C   UNL     1      38.377   1.909  14.188  0.00  0.00    +0.000 A 
ENDROOT
BRANCH   2  12
ATOM     12  C   UNL     1      37.957  -1.580  14.874  0.00  0.00    +0.000 A 
ATOM     13  C   UNL     1      38.399  -2.223  16.009  0.00  0.00    +0.000 A 
ATOM     14  C   UNL     1      38.031  -3.518  16.322  0.00  0.00    +0.000 A 
ATOM     15  C   UNL     1      37.192  -4.223  15.492  0.00  0.00    +0.000 A 
ATOM     16  C   UNL     1      36.727  -3.608  14.340  0.00  0.00    +0.000 A 
ATOM     17  C   UNL     1      37.108  -2.326  14.055  0.00  0.00    +0.000 A 
ENDBRANCH   2  12
BRANCH   3  18
ATOM     18  C   UNL     1      40.732  -0.775  13.761  0.00  0.00    +0.000 A 
ATOM     19  C   UNL     1      41.772  -0.950  14.635  0.00  0.00    +0.000 A 
ATOM     20  C   UNL     1      42.813  -1.788  14.293  0.00  0.00    +0.000 A 
ATOM     21  C   UNL     1      42.867  -2.472  13.099  0.00  0.00    +0.000 A 
ATOM     22  C   UNL     1      41.825  -2.300  12.217  0.00  0.00    +0.000 A 
ATOM     23  C   UNL     1      40.787  -1.462  12.562  0.00  0.00    +0.000 A 
ENDBRANCH   3  18
BRANCH   1  24
ATOM     24  C   UNL     1      36.216   1.000  15.096  0.00  0.00    +0.000 C 
BRANCH  24  25
ATOM     25  C   UNL     1      36.386   1.007  16.774  0.00  0.00    +0.000 C 
ATOM     26  O   UNL     1      35.571   2.314  16.896  0.00  0.00    +0.000 OA
BRANCH  25  27
ATOM     27  C   UNL     1      34.992   0.075  16.941  0.00  0.00    +0.000 C 
BRANCH  27  28
ATOM     28  N   UNL     1      35.259  -0.661  18.162  0.00  0.00    +0.000 NA
BRANCH  28  30
ATOM     29  C   UNL     1      37.140  -1.564  19.438  0.00  0.00    +0.000 C 
ATOM     30  C   UNL     1      36.550  -0.380  18.723  0.00  0.00    +0.000 C 
ENDBRANCH  28  30
BRANCH  28  31
ATOM     31  C   UNL     1      35.193  -2.049  17.798  0.00  0.00    +0.000 C 
ATOM     32  C   UNL     1      34.206  -2.266  16.658  0.00  0.00    +0.000 C 
ENDBRANCH  28  31
ENDBRANCH  27  28
ENDBRANCH  25  27
ENDBRANCH  24  25
ENDBRANCH   1  24
TORSDOF 8
ENDMDL
MODEL 4
REMARK VINA RESULT:      -7.2      2.662      5.835
REMARK  Name = 
REMARK  8 active torsions:
REMARK  status: ('A' for Active; 'I' for Inactive)
REMARK    1  A    between atoms: C_2  and  N_3
REMARK    2  A    between atoms: N_3  and  C_4
REMARK    3  A    between atoms: N_3  and  C_6
REMARK    4  A    between atoms: C_6  and  C_7
REMARK    5  A    between atoms: C_7  and  C_9
REMARK    6  A    between atoms: C_9  and  N_10
REMARK    7  A    between atoms: C_11  and  C_12
REMARK    8  A    between atoms: C_18  and  C_19
REMARK                            x       y       z     vdW  Elec       q    Type
REMARK                         _______ _______ _______ _____ _____    ______ ____
ROOT
ATOM      1  N   UNL     1      38.134  -1.580  14.588  0.00  0.00    +0.000 N 
ATOM      2  C   UNL     1      38.186  -0.266  14.303  0.00  0.00    +0.000 A 
ATOM      3  C   UNL     1      37.129   0.396  14.884  0.00  0.00    +0.000 A 
ATOM      4  C   UNL     1      36.377  -0.550  15.567  0.00  0.00    +0.000 A 
ATOM      5  C   UNL     1      35.222  -0.464  16.323  0.00  0.00    +0.000 A 
ATOM      6  C   UNL     1      34.674  -1.590  16.903  0.00  0.00    +0.000 A 
ATOM      7  C   UNL     1      33.414  -1.501  17.727  0.00  0.00    +0.000 C 
ATOM      8  C   UNL     1      35.317  -2.782  16.699  0.00  0.00    +0.000 A 
ATOM      9  C   UNL     1      36.471  -2.868  15.945  0.00  0.00    +0.000 A 
ATOM     10  C   UNL     1      37.167  -4.147  15.719  0.00  0.00    +0.000 C 
ATOM     11  C   UNL     1      37.036  -1.742  15.352  0.00  0.00    +0.000 A 
ENDROOT
BRANCH   2  12
ATOM     12  C   UNL     1      39.186   0.444  13.503  0.00  0.00    +0.000 A 
ATOM     13  C   UNL     1      39.171   0.471  12.125  0.00  0.00    +0.000 A 
ATOM     14  C   UNL     1      40.123   1.145  11.384  0.00  0.00    +0.000 A 
ATOM     15  C   UNL     1      41.138   1.828  12.012  0.00  0.00    +0.000 A 
ATOM     16  C   UNL     1      41.185   1.823  13.397  0.00  0.00    +0.000 A 
ATOM     17  C   UNL     1      40.230   1.147  14.105  0.00  0.00    +0.000 A 
ENDBRANCH   2  12
BRANCH   3  18
ATOM     18  C   UNL     1      36.762   1.810  14.862  0.00  0.00    +0.000 A 
ATOM     19  C   UNL     1      35.857   2.340  13.982  0.00  0.00    +0.000 A 
ATOM     20  C   UNL     1      35.568   3.688  14.034  0.00  0.00    +0.000 A 
ATOM     21  C   UNL     1      36.150   4.547  14.939  0.00  0.00    +0.000 A 
ATOM     22  C   UNL     1      37.060   4.020  15.826  0.00  0.00    +0.000 A 
ATOM     23  C   UNL     1      37.346   2.672  15.771  0.00  0.00    +0.000 A 
ENDBRANCH   3  18
BRANCH   1  24
ATOM     24  C   UNL     1      39.071  -2.606  14.155  0.00  0.00    +0.000 C 
BRANCH  24  25
ATOM     25  C   UNL     1      40.459  -2.264  15.051  0.00  0.00    +0.000 C 
ATOM     26  O   UNL     1      40.409  -3.646  15.739  0.00  0.00    +0.000 OA
BRANCH  25  27
ATOM     27  C   UNL     1      41.432  -2.870  13.816  0.00  0.00    +0.000 C 
BRANCH  27  28
ATOM     28  N   UNL     1      42.200  -1.702  13.429  0.00  0.00    +0.000 NA
BRANCH  28  30
ATOM     29  C   UNL     1      41.498  -2.391  11.189  0.00  0.00    +0.000 C 
ATOM     30  C   UNL     1      42.516  -1.670  12.029  0.00  0.00    +0.000 C 
ENDBRANCH  28  30
BRANCH  28  31
ATOM     31  C   UNL     1      43.417  -1.771  14.188  0.00  0.00    +0.000 C 
ATOM     32  C   UNL     1      43.847  -0.387  14.654  0.00  0.00    +0.000 C 
ENDBRANCH  28  31
ENDBRANCH  27  28
ENDBRANCH  25  27
ENDBRANCH  24  25
ENDBRANCH   1  24
TORSDOF 8
ENDMDL
MODEL 5
REMARK VINA RESULT:      -7.0      2.384      5.715
REMARK  Name = 
REMARK  8 active torsions:
REMARK  status: ('A' for Active; 'I' for Inactive)
REMARK    1  A    between atoms: C_2  and  N_3
REMARK    2  A    between atoms: N_3  and  C_4
REMARK    3  A    between atoms: N_3  and  C_6
REMARK    4  A    between atoms: C_6  and  C_7
REMARK    5  A    between atoms: C_7  and  C_9
REMARK    6  A    between atoms: C_9  and  N_10
REMARK    7  A    between atoms: C_11  and  C_12
REMARK    8  A    between atoms: C_18  and  C_19
REMARK                            x       y       z     vdW  Elec       q    Type
REMARK                         _______ _______ _______ _____ _____    ______ ____
ROOT
ATOM      1  N   UNL     1      38.809  -0.451  15.173  0.00  0.00    +0.000 N 
ATOM      2  C   UNL     1      38.457   0.806  14.848  0.00  0.00    +0.000 A 
ATOM      3  C   UNL     1      39.468   1.424  14.149  0.00  0.00    +0.000 A 
ATOM      4  C   UNL     1      40.505   0.510  14.029  0.00  0.00    +0.000 A 
ATOM      5  C   UNL     1      41.752   0.576  13.435  0.00  0.00    +0.000 A 
ATOM      6  C   UNL     1      42.605  -0.508  13.466  0.00  0.00    +0.000 A 
ATOM      7  C   UNL     1      43.967  -0.440  12.821  0.00  0.00    +0.000 C 
ATOM      8  C   UNL     1      42.167  -1.639  14.103  0.00  0.00    +0.000 A 
ATOM      9  C   UNL     1      40.922  -1.706  14.695  0.00  0.00    +0.000 A 
ATOM     10  C   UNL     1      40.444  -2.919  15.383  0.00  0.00    +0.000 C 
ATOM     11  C   UNL     1      40.049  -0.621  14.674  0.00  0.00    +0.000 A 
ENDROOT
BRANCH   2  12
ATOM     12  C   UNL     1      37.202   1.498  15.150  0.00  0.00    +0.000 A 
ATOM     13  C   UNL     1      36.946   2.105  16.360  0.00  0.00    +0.000 A 
ATOM     14  C   UNL     1      35.756   2.753  16.629  0.00  0.00    +0.000 A 
ATOM     15  C   UNL     1      34.766   2.816  15.676  0.00  0.00    +0.000 A 
ATOM     16  C   UNL     1      34.988   2.216  14.447  0.00  0.00    +0.000 A 
ATOM     17  C   UNL     1      36.176   1.580  14.207  0.00  0.00    +0.000 A 
ENDBRANCH   2  12
BRANCH   3  18
ATOM     18  C   UNL     1      39.554   2.771  13.589  0.00  0.00    +0.000 A 
ATOM     19  C   UNL     1      39.933   3.868  14.316  0.00  0.00    +0.000 A 
ATOM     20  C   UNL     1      39.989   5.102  13.704  0.00  0.00    +0.000 A 
ATOM     21  C   UNL     1      39.678   5.299  12.377  0.00  0.00    +0.000 A 
ATOM     22  C   UNL     1      39.296   4.201  11.642  0.00  0.00    +0.000 A 
ATOM     23  C   UNL     1      39.242   2.969  12.256  0.00  0.00    +0.000 A 
ENDBRANCH   3  18
BRANCH   1  24
ATOM     24  C   UNL     1      38.011  -1.419  15.911  0.00  0.00    +0.000 C 
BRANCH  24  25
ATOM     25  C   UNL     1      36.717  -1.725  14.873  0.00  0.00    +0.000 C 
ATOM     26  O   UNL     1      37.240  -3.146  14.568  0.00  0.00    +0.000 OA
BRANCH  25  27
ATOM     27  C   UNL     1      35.792  -2.298  16.160  0.00  0.00    +0.000 C 
BRANCH  27  28
ATOM     28  N   UNL     1      35.775  -1.160  17.058  0.00  0.00    +0.000 NA
BRANCH  28  30
ATOM     29  C   UNL     1      36.179  -0.293  19.309  0.00  0.00    +0.000 C 
ATOM     30  C   UNL     1      36.160  -1.491  18.400  0.00  0.00    +0.000 C 
ENDBRANCH  28  30
BRANCH  28  31
ATOM     31  C   UNL     1      34.420  -0.686  17.056  0.00  0.00    +0.000 C 
ATOM     32  C   UNL     1      33.444  -1.830  17.301  0.00  0.00    +0.000 C 
ENDBRANCH  28  31
ENDBRANCH  27  28
ENDBRANCH  25  27
ENDBRANCH  24  25
ENDBRANCH   1  24
TORSDOF 8
ENDMDL
MODEL 6
REMARK VINA RESULT:      -7.0      2.154      5.734
REMARK  Name = 
REMARK  8 active torsions:
REMARK  status: ('A' for Active; 'I' for Inactive)
REMARK    1  A    between atoms: C_2  and  N_3
REMARK    2  A    between atoms: N_3  and  C_4
REMARK    3  A    between atoms: N_3  and  C_6
REMARK    4  A    between atoms: C_6  and  C_7
REMARK    5  A    between atoms: C_7  and  C_9
REMARK    6  A    between atoms: C_9  and  N_10
REMARK    7  A    between atoms: C_11  and  C_12
REMARK    8  A    between atoms: C_18  and  C_19
REMARK                            x       y       z     vdW  Elec       q    Type
REMARK                         _______ _______ _______ _____ _____    ______ ____
ROOT
ATOM      1  N   UNL     1      36.401   1.301  14.762  0.00  0.00    +0.000 N 
ATOM      2  C   UNL     1      37.503   0.836  14.145  0.00  0.00    +0.000 A 
ATOM      3  C   UNL     1      38.029   1.794  13.309  0.00  0.00    +0.000 A 
ATOM      4  C   UNL     1      37.217   2.915  13.407  0.00  0.00    +0.000 A 
ATOM      5  C   UNL     1      37.258   4.160  12.805  0.00  0.00    +0.000 A 
ATOM      6  C   UNL     1      36.300   5.111  13.089  0.00  0.00    +0.000 A 
ATOM      7  C   UNL     1      36.340   6.470  12.434  0.00  0.00    +0.000 C 
ATOM      8  C   UNL     1      35.319   4.774  13.982  0.00  0.00    +0.000 A 
ATOM      9  C   UNL     1      35.278   3.531  14.584  0.00  0.00    +0.000 A 
ATOM     10  C   UNL     1      34.224   3.159  15.545  0.00  0.00    +0.000 C 
ATOM     11  C   UNL     1      36.236   2.559  14.308  0.00  0.00    +0.000 A 
ENDROOT
BRANCH   2  12
ATOM     12  C   UNL     1      38.125  -0.483  14.284  0.00  0.00    +0.000 A 
ATOM     13  C   UNL     1      37.665  -1.607  13.635  0.00  0.00    +0.000 A 
ATOM     14  C   UNL     1      38.264  -2.845  13.778  0.00  0.00    +0.000 A 
ATOM     15  C   UNL     1      39.364  -2.997  14.590  0.00  0.00    +0.000 A 
ATOM     16  C   UNL     1      39.854  -1.887  15.259  0.00  0.00    +0.000 A 
ATOM     17  C   UNL     1      39.241  -0.674  15.100  0.00  0.00    +0.000 A 
ENDBRANCH   2  12
BRANCH   3  18
ATOM     18  C   UNL     1      39.203   1.760  12.441  0.00  0.00    +0.000 A 
ATOM     19  C   UNL     1      39.170   1.321  11.144  0.00  0.00    +0.000 A 
ATOM     20  C   UNL     1      40.329   1.326  10.396  0.00  0.00    +0.000 A 
ATOM     21  C   UNL     1      41.541   1.756  10.889  0.00  0.00    +0.000 A 
ATOM     22  C   UNL     1      41.580   2.198  12.191  0.00  0.00    +0.000 A 
ATOM     23  C   UNL     1      40.420   2.192  12.936  0.00  0.00    +0.000 A 
ENDBRANCH   3  18
BRANCH   1  24
ATOM     24  C   UNL     1      35.567   0.587  15.716  0.00  0.00    +0.000 C 
BRANCH  24  25
ATOM     25  C   UNL     1      36.642   0.205  16.959  0.00  0.00    +0.000 C 
ATOM     26  O   UNL     1      36.246   1.472  17.750  0.00  0.00    +0.000 OA
BRANCH  25  27
ATOM     27  C   UNL     1      35.453  -0.701  17.739  0.00  0.00    +0.000 C 
BRANCH  27  28
ATOM     28  N   UNL     1      36.193  -1.871  18.170  0.00  0.00    +0.000 NA
BRANCH  28  30
ATOM     29  C   UNL     1      38.447  -2.692  18.645  0.00  0.00    +0.000 C 
ATOM     30  C   UNL     1      37.469  -1.555  18.746  0.00  0.00    +0.000 C 
ENDBRANCH  28  30
BRANCH  28  31
ATOM     31  C   UNL     1      36.390  -2.661  16.988  0.00  0.00    +0.000 C 
ATOM     32  C   UNL     1      35.057  -3.020  16.344  0.00  0.00    +0.000 C 
ENDBRANCH  28  31
ENDBRANCH  27  28
ENDBRANCH  25  27
ENDBRANCH  24  25
ENDBRANCH   1  24
TORSDOF 8
ENDMDL
MODEL 7
REMARK VINA RESULT:      -6.9      2.267      5.943
REMARK  Name = 
REMARK  8 active torsions:
REMARK  status: ('A' for Active; 'I' for Inactive)
REMARK    1  A    between atoms: C_2  and  N_3
REMARK    2  A    between atoms: N_3  and  C_4
REMARK    3  A    between atoms: N_3  and  C_6
REMARK    4  A    between atoms: C_6  and  C_7
REMARK    5  A    between atoms: C_7  and  C_9
REMARK    6  A    between atoms: C_9  and  N_10
REMARK    7  A    between atoms: C_11  and  C_12
REMARK    8  A    between atoms: C_18  and  C_19
REMARK                            x       y       z     vdW  Elec       q    Type
REMARK                         _______ _______ _______ _____ _____    ______ ____
ROOT
ATOM      1  N   UNL     1      38.980  -0.767  14.276  0.00  0.00    +0.000 N 
ATOM      2  C   UNL     1      38.308   0.253  13.712  0.00  0.00    +0.000 A 
ATOM      3  C   UNL     1      38.504   0.265  12.350  0.00  0.00    +0.000 A 
ATOM      4  C   UNL     1      39.339  -0.800  12.045  0.00  0.00    +0.000 A 
ATOM      5  C   UNL     1      39.865  -1.270  10.855  0.00  0.00    +0.000 A 
ATOM      6  C   UNL     1      40.689  -2.377  10.839  0.00  0.00    +0.000 A 
ATOM      7  C   UNL     1      41.267  -2.892   9.544  0.00  0.00    +0.000 C 
ATOM      8  C   UNL     1      40.959  -2.983  12.037  0.00  0.00    +0.000 A 
ATOM      9  C   UNL     1      40.433  -2.514  13.225  0.00  0.00    +0.000 A 
ATOM     10  C   UNL     1      40.720  -3.159  14.519  0.00  0.00    +0.000 C 
ATOM     11  C   UNL     1      39.600  -1.398  13.260  0.00  0.00    +0.000 A 
ENDROOT
BRANCH   2  12
ATOM     12  C   UNL     1      37.466   1.252  14.373  0.00  0.00    +0.000 A 
ATOM     13  C   UNL     1      37.970   2.374  14.995  0.00  0.00    +0.000 A 
ATOM     14  C   UNL     1      37.161   3.307  15.615  0.00  0.00    +0.000 A 
ATOM     15  C   UNL     1      35.795   3.144  15.630  0.00  0.00    +0.000 A 
ATOM     16  C   UNL     1      35.253   2.027  15.014  0.00  0.00    +0.000 A 
ATOM     17  C   UNL     1      36.077   1.119  14.409  0.00  0.00    +0.000 A 
ENDBRANCH   2  12
BRANCH   3  18
ATOM     18  C   UNL     1      37.989   1.166  11.322  0.00  0.00    +0.000 A 
ATOM     19  C   UNL     1      36.902   0.876  10.540  0.00  0.00    +0.000 A 
ATOM     20  C   UNL     1      36.483   1.789   9.594  0.00  0.00    +0.000 A 
ATOM     21  C   UNL     1      37.108   2.999   9.387  0.00  0.00    +0.000 A 
ATOM     22  C   UNL     1      38.200   3.295  10.170  0.00  0.00    +0.000 A 
ATOM     23  C   UNL     1      38.615   2.381  11.115  0.00  0.00    +0.000 A 
ENDBRANCH   3  18
BRANCH   1  24
ATOM     24  C   UNL     1      39.023  -1.110  15.690  0.00  0.00    +0.000 C 
BRANCH  24  25
ATOM     25  C   UNL     1      37.580  -1.949  15.928  0.00  0.00    +0.000 C 
ATOM     26  O   UNL     1      38.286  -3.000  16.813  0.00  0.00    +0.000 OA
BRANCH  25  27
ATOM     27  C   UNL     1      37.223  -0.998  17.273  0.00  0.00    +0.000 C 
BRANCH  27  28
ATOM     28  N   UNL     1      36.000  -1.604  17.762  0.00  0.00    +0.000 NA
BRANCH  28  30
ATOM     29  C   UNL     1      33.604  -1.756  17.292  0.00  0.00    +0.000 C 
ATOM     30  C   UNL     1      35.004  -1.773  16.742  0.00  0.00    +0.000 C 
ENDBRANCH  28  30
BRANCH  28  31
ATOM     31  C   UNL     1      35.501  -0.709  18.768  0.00  0.00    +0.000 C 
ATOM     32  C   UNL     1      36.099   0.682  18.604  0.00  0.00    +0.000 C 
ENDBRANCH  28  31
ENDBRANCH  27  28
ENDBRANCH  25  27
ENDBRANCH  24  25
ENDBRANCH   1  24
TORSDOF 8
ENDMDL
MODEL 8
REMARK VINA RESULT:      -6.9      2.277      3.261
REMARK  Name = 
REMARK  8 active torsions:
REMARK  status: ('A' for Active; 'I' for Inactive)
REMARK    1  A    between atoms: C_2  and  N_3
REMARK    2  A    between atoms: N_3  and  C_4
REMARK    3  A    between atoms: N_3  and  C_6
REMARK    4  A    between atoms: C_6  and  C_7
REMARK    5  A    between atoms: C_7  and  C_9
REMARK    6  A    between atoms: C_9  and  N_10
REMARK    7  A    between atoms: C_11  and  C_12
REMARK    8  A    between atoms: C_18  and  C_19
REMARK                            x       y       z     vdW  Elec       q    Type
REMARK                         _______ _______ _______ _____ _____    ______ ____
ROOT
ATOM      1  N   UNL     1      37.005   1.499  15.427  0.00  0.00    +0.000 N 
ATOM      2  C   UNL     1      38.111   1.466  14.661  0.00  0.00    +0.000 A 
ATOM      3  C   UNL     1      38.527   0.169  14.468  0.00  0.00    +0.000 A 
ATOM      4  C   UNL     1      37.638  -0.653  15.146  0.00  0.00    +0.000 A 
ATOM      5  C   UNL     1      37.560  -2.025  15.303  0.00  0.00    +0.000 A 
ATOM      6  C   UNL     1      36.547  -2.592  16.049  0.00  0.00    +0.000 A 
ATOM      7  C   UNL     1      36.458  -4.088  16.224  0.00  0.00    +0.000 C 
ATOM      8  C   UNL     1      35.634  -1.746  16.622  0.00  0.00    +0.000 A 
ATOM      9  C   UNL     1      35.712  -0.377  16.465  0.00  0.00    +0.000 A 
ATOM     10  C   UNL     1      34.734   0.540  17.079  0.00  0.00    +0.000 C 
ATOM     11  C   UNL     1      36.727   0.212  15.716  0.00  0.00    +0.000 A 
ENDROOT
BRANCH   2  12
ATOM     12  C   UNL     1      38.833   2.596  14.073  0.00  0.00    +0.000 A 
ATOM     13  C   UNL     1      39.484   3.550  14.823  0.00  0.00    +0.000 A 
ATOM     14  C   UNL     1      40.161   4.611  14.252  0.00  0.00    +0.000 A 
ATOM     15  C   UNL     1      40.209   4.752  12.885  0.00  0.00    +0.000 A 
ATOM     16  C   UNL     1      39.565   3.810  12.098  0.00  0.00    +0.000 A 
ATOM     17  C   UNL     1      38.902   2.771  12.689  0.00  0.00    +0.000 A 
ENDBRANCH   2  12
BRANCH   3  18
ATOM     18  C   UNL     1      39.661  -0.367  13.719  0.00  0.00    +0.000 A 
ATOM     19  C   UNL     1      39.567  -0.817  12.429  0.00  0.00    +0.000 A 
ATOM     20  C   UNL     1      40.692  -1.305  11.796  0.00  0.00    +0.000 A 
ATOM     21  C   UNL     1      41.928  -1.365  12.400  0.00  0.00    +0.000 A 
ATOM     22  C   UNL     1      42.028  -0.914  13.696  0.00  0.00    +0.000 A 
ATOM     23  C   UNL     1      40.902  -0.427  14.325  0.00  0.00    +0.000 A 
ENDBRANCH   3  18
BRANCH   1  24
ATOM     24  C   UNL     1      36.271   2.680  15.851  0.00  0.00    +0.000 C 
BRANCH  24  25
ATOM     25  C   UNL     1      35.503   3.186  14.437  0.00  0.00    +0.000 C 
ATOM     26  O   UNL     1      34.170   3.406  15.186  0.00  0.00    +0.000 OA
BRANCH  25  27
ATOM     27  C   UNL     1      35.973   4.779  14.726  0.00  0.00    +0.000 C 
BRANCH  27  28
ATOM     28  N   UNL     1      35.503   5.459  13.534  0.00  0.00    +0.000 NA
BRANCH  28  30
ATOM     29  C   UNL     1      36.267   5.344  11.213  0.00  0.00    +0.000 C 
ATOM     30  C   UNL     1      36.557   5.793  12.619  0.00  0.00    +0.000 C 
ENDBRANCH  28  30
BRANCH  28  31
ATOM     31  C   UNL     1      34.878   6.665  13.998  0.00  0.00    +0.000 C 
ATOM     32  C   UNL     1      33.551   6.899  13.289  0.00  0.00    +0.000 C 
ENDBRANCH  28  31
ENDBRANCH  27  28
ENDBRANCH  25  27
ENDBRANCH  24  25
ENDBRANCH   1  24
TORSDOF 8
ENDMDL
MODEL 9
REMARK VINA RESULT:      -6.8      2.088      4.741
REMARK  Name = 
REMARK  8 active torsions:
REMARK  status: ('A' for Active; 'I' for Inactive)
REMARK    1  A    between atoms: C_2  and  N_3
REMARK    2  A    between atoms: N_3  and  C_4
REMARK    3  A    between atoms: N_3  and  C_6
REMARK    4  A    between atoms: C_6  and  C_7
REMARK    5  A    between atoms: C_7  and  C_9
REMARK    6  A    between atoms: C_9  and  N_10
REMARK    7  A    between atoms: C_11  and  C_12
REMARK    8  A    between atoms: C_18  and  C_19
REMARK                            x       y       z     vdW  Elec       q    Type
REMARK                         _______ _______ _______ _____ _____    ______ ____
ROOT
ATOM      1  N   UNL     1      39.309   1.853  14.065  0.00  0.00    +0.000 N 
ATOM      2  C   UNL     1      38.352   1.138  14.684  0.00  0.00    +0.000 A 
ATOM      3  C   UNL     1      38.772  -0.156  14.887  0.00  0.00    +0.000 A 
ATOM      4  C   UNL     1      40.055  -0.259  14.370  0.00  0.00    +0.000 A 
ATOM      5  C   UNL     1      40.957  -1.305  14.293  0.00  0.00    +0.000 A 
ATOM      6  C   UNL     1      42.195  -1.127  13.712  0.00  0.00    +0.000 A 
ATOM      7  C   UNL     1      43.181  -2.265  13.625  0.00  0.00    +0.000 C 
ATOM      8  C   UNL     1      42.489   0.117  13.219  0.00  0.00    +0.000 A 
ATOM      9  C   UNL     1      41.589   1.162  13.295  0.00  0.00    +0.000 A 
ATOM     10  C   UNL     1      41.897   2.503  12.766  0.00  0.00    +0.000 C 
ATOM     11  C   UNL     1      40.335   1.000  13.878  0.00  0.00    +0.000 A 
ENDROOT
BRANCH   2  12
ATOM     12  C   UNL     1      37.029   1.591  15.118  0.00  0.00    +0.000 A 
ATOM     13  C   UNL     1      36.620   1.581  16.434  0.00  0.00    +0.000 A 
ATOM     14  C   UNL     1      35.367   2.012  16.827  0.00  0.00    +0.000 A 
ATOM     15  C   UNL     1      34.467   2.476  15.897  0.00  0.00    +0.000 A 
ATOM     16  C   UNL     1      34.843   2.500  14.563  0.00  0.00    +0.000 A 
ATOM     17  C   UNL     1      36.090   2.067  14.202  0.00  0.00    +0.000 A 
ENDBRANCH   2  12
BRANCH   3  18
ATOM     18  C   UNL     1      38.094  -1.290  15.511  0.00  0.00    +0.000 A 
ATOM     19  C   UNL     1      37.129  -2.031  14.883  0.00  0.00    +0.000 A 
ATOM     20  C   UNL     1      36.544  -3.088  15.549  0.00  0.00    +0.000 A 
ATOM     21  C   UNL     1      36.882  -3.447  16.835  0.00  0.00    +0.000 A 
ATOM     22  C   UNL     1      37.851  -2.706  17.470  0.00  0.00    +0.000 A 
ATOM     23  C   UNL     1      38.434  -1.651  16.802  0.00  0.00    +0.000 A 
ENDBRANCH   3  18
BRANCH   1  24
ATOM     24  C   UNL     1      39.242   3.254  13.679  0.00  0.00    +0.000 C 
BRANCH  24  25
ATOM     25  C   UNL     1      39.569   4.068  15.120  0.00  0.00    +0.000 C 
ATOM     26  O   UNL     1      40.529   5.043  14.404  0.00  0.00    +0.000 OA
BRANCH  25  27
ATOM     27  C   UNL     1      38.262   5.101  14.859  0.00  0.00    +0.000 C 
BRANCH  27  28
ATOM     28  N   UNL     1      37.974   5.577  16.199  0.00  0.00    +0.000 NA
BRANCH  28  30
ATOM     29  C   UNL     1      37.642   7.996  16.328  0.00  0.00    +0.000 C 
ATOM     30  C   UNL     1      38.589   6.839  16.495  0.00  0.00    +0.000 C 
ENDBRANCH  28  30
BRANCH  28  31
ATOM     31  C   UNL     1      38.497   4.575  17.085  0.00  0.00    +0.000 C 
ATOM     32  C   UNL     1      38.928   5.192  18.409  0.00  0.00    +0.000 C 
ENDBRANCH  28  31
ENDBRANCH  27  28
ENDBRANCH  25  27
ENDBRANCH  24  25
ENDBRANCH   1  24
TORSDOF 8
ENDMDL
MODEL 10
REMARK VINA RESULT:      -6.6      2.366      5.679
REMARK  Name = 
REMARK  8 active torsions:
REMARK  status: ('A' for Active; 'I' for Inactive)
REMARK    1  A    between atoms: C_2  and  N_3
REMARK    2  A    between atoms: N_3  and  C_4
REMARK    3  A    between atoms: N_3  and  C_6
REMARK    4  A    between atoms: C_6  and  C_7
REMARK    5  A    between atoms: C_7  and  C_9
REMARK    6  A    between atoms: C_9  and  N_10
REMARK    7  A    between atoms: C_11  and  C_12
REMARK    8  A    between atoms: C_18  and  C_19
REMARK                            x       y       z     vdW  Elec       q    Type
REMARK                         _______ _______ _______ _____ _____    ______ ____
ROOT
ATOM      1  N   UNL     1      38.362  -1.230  14.455  0.00  0.00    +0.000 N 
ATOM      2  C   UNL     1      38.247   0.026  13.984  0.00  0.00    +0.000 A 
ATOM      3  C   UNL     1      37.523   0.804  14.857  0.00  0.00    +0.000 A 
ATOM      4  C   UNL     1      37.167  -0.001  15.929  0.00  0.00    +0.000 A 
ATOM      5  C   UNL     1      36.448   0.238  17.086  0.00  0.00    +0.000 A 
ATOM      6  C   UNL     1      36.238  -0.769  18.006  0.00  0.00    +0.000 A 
ATOM      7  C   UNL     1      35.453  -0.513  19.268  0.00  0.00    +0.000 C 
ATOM      8  C   UNL     1      36.766  -2.002  17.725  0.00  0.00    +0.000 A 
ATOM      9  C   UNL     1      37.484  -2.240  16.570  0.00  0.00    +0.000 A 
ATOM     10  C   UNL     1      38.054  -3.564  16.261  0.00  0.00    +0.000 C 
ATOM     11  C   UNL     1      37.706  -1.236  15.632  0.00  0.00    +0.000 A 
ENDROOT
BRANCH   2  12
ATOM     12  C   UNL     1      38.783   0.572  12.735  0.00  0.00    +0.000 A 
ATOM     13  C   UNL     1      39.925   1.339  12.674  0.00  0.00    +0.000 A 
ATOM     14  C   UNL     1      40.418   1.847  11.487  0.00  0.00    +0.000 A 
ATOM     15  C   UNL     1      39.770   1.596  10.300  0.00  0.00    +0.000 A 
ATOM     16  C   UNL     1      38.616   0.828  10.323  0.00  0.00    +0.000 A 
ATOM     17  C   UNL     1      38.151   0.338  11.512  0.00  0.00    +0.000 A 
ENDBRANCH   2  12
BRANCH   3  18
ATOM     18  C   UNL     1      37.140   2.212  14.784  0.00  0.00    +0.000 A 
ATOM     19  C   UNL     1      35.968   2.647  14.224  0.00  0.00    +0.000 A 
ATOM     20  C   UNL     1      35.686   3.997  14.201  0.00  0.00    +0.000 A 
ATOM     21  C   UNL     1      36.533   4.952  14.720  0.00  0.00    +0.000 A 
ATOM     22  C   UNL     1      37.711   4.520  15.284  0.00  0.00    +0.000 A 
ATOM     23  C   UNL     1      37.989   3.171  15.306  0.00  0.00    +0.000 A 
ENDBRANCH   3  18
BRANCH   1  24
ATOM     24  C   UNL     1      39.052  -2.342  13.820  0.00  0.00    +0.000 C 
BRANCH  24  25
ATOM     25  C   UNL     1      40.678  -1.916  13.956  0.00  0.00    +0.000 C 
ATOM     26  O   UNL     1      40.879  -2.885  15.142  0.00  0.00    +0.000 OA
BRANCH  25  27
ATOM     27  C   UNL     1      41.107  -3.116  12.852  0.00  0.00    +0.000 C 
BRANCH  27  28
ATOM     28  N   UNL     1      42.047  -2.421  11.993  0.00  0.00    +0.000 NA
BRANCH  28  30
ATOM     29  C   UNL     1      43.348  -0.361  11.780  0.00  0.00    +0.000 C 
ATOM     30  C   UNL     1      42.837  -1.445  12.689  0.00  0.00    +0.000 C 
ENDBRANCH  28  30
BRANCH  28  31
ATOM     31  C   UNL     1      41.247  -1.762  10.999  0.00  0.00    +0.000 C 
ATOM     32  C   UNL     1      40.406  -2.768  10.223  0.00  0.00    +0.000 C 
ENDBRANCH  28  31
ENDBRANCH  27  28
ENDBRANCH  25  27
ENDBRANCH  24  25
ENDBRANCH   1  24
TORSDOF 8
ENDMDL
