MODEL 1
REMARK VINA RESULT:      -8.0      0.000      0.000
REMARK  Name = 
REMARK  7 active torsions:
REMARK  status: ('A' for Active; 'I' for Inactive)
REMARK    1  A    between atoms: C_2  and  C_3
REMARK    2  A    between atoms: C_3  and  C_5
REMARK    3  A    between atoms: C_5  and  O_6
REMARK    4  A    between atoms: O_6  and  C_7
REMARK    5  A    between atoms: C_7  and  C_9
REMARK    6  A    between atoms: N_12  and  C_13
REMARK    7  A    between atoms: C_13  and  C_15
REMARK                            x       y       z     vdW  Elec       q    Type
REMARK                         _______ _______ _______ _____ _____    ______ ____
ROOT
ATOM      1  C   UNL     1      36.839   1.669  15.839  0.00  0.00    +0.000 A 
ATOM      2  C   UNL     1      35.844   0.798  16.272  0.00  0.00    +0.000 A 
ATOM      3  N   UNL     1      34.570   1.170  16.832  0.00  0.00    +0.000 NA
ATOM      4  N   UNL     1      36.338  -0.415  16.055  0.00  0.00    +0.000 N 
ATOM      5  C   UNL     1      37.564  -0.378  15.519  0.00  0.00    +0.000 A 
ATOM      6  N   UNL     1      38.475  -1.303  15.121  0.00  0.00    +0.000 NA
ATOM      7  C   UNL     1      39.671  -0.985  14.600  0.00  0.00    +0.000 A 
ATOM      8  C   UNL     1      40.580  -1.956  14.202  0.00  0.00    +0.000 A 
ATOM      9  C   UNL     1      41.806  -1.642  13.666  0.00  0.00    +0.000 A 
ATOM     10  C   UNL     1      42.147  -0.305  13.520  0.00  0.00    +0.000 A 
ATOM     11  C   UNL     1      41.235   0.670  13.919  0.00  0.00    +0.000 A 
ATOM     12  C   UNL     1      40.007   0.343  14.455  0.00  0.00    +0.000 A 
ATOM     13  N   UNL     1      39.110   1.288  14.847  0.00  0.00    +0.000 NA
ATOM     14  C   UNL     1      37.916   0.954  15.369  0.00  0.00    +0.000 A 
ENDROOT
BRANCH   1  15
ATOM     15  C   UNL     1      36.729   3.157  15.889  0.00  0.00    +0.000 C 
ATOM     16  O   UNL     1      36.156   3.760  14.961  0.00  0.00    +0.000 OA
BRANCH  15  17
ATOM     17  O   UNL     1      37.237   3.877  16.926  0.00  0.00    +0.000 OA
BRANCH  17  18
ATOM     18  C   UNL     1      37.942   4.960  17.008  0.00  0.00    +0.000 C 
BRANCH  18  19
ATOM     19  C   UNL     1      39.260   5.056  17.899  0.00  0.00    +0.000 C 
ATOM     20  C   UNL     1      40.175   5.895  16.853  0.00  0.00    +0.000 C 
BRANCH  19  22
ATOM     21  C   UNL     1      39.919   6.524  19.801  0.00  0.00    +0.000 C 
ATOM     22  C   UNL     1      38.831   6.442  18.734  0.00  0.00    +0.000 C 
ENDBRANCH  19  22
ENDBRANCH  18  19
ENDBRANCH  17  18
ENDBRANCH  15  17
ENDBRANCH   1  15
BRANCH   4  23
ATOM     23  C   UNL     1      35.602  -1.752  16.367  0.00  0.00    +0.000 C 
ATOM     24  C   UNL     1      36.102  -2.580  15.030  0.00  0.00    +0.000 C 
BRANCH  23  25
ATOM     25  C   UNL     1      36.690  -2.339  17.380  0.00  0.00    +0.000 A 
ATOM     26  C   UNL     1      37.447  -3.386  17.132  0.00  0.00    +0.000 A 
ATOM     27  C   UNL     1      38.361  -3.843  18.034  0.00  0.00    +0.000 A 
ATOM     28  C   UNL     1      38.495  -3.202  19.221  0.00  0.00    +0.000 A 
ATOM     29  C   UNL     1      37.724  -2.112  19.506  0.00  0.00    +0.000 A 
ATOM     30  C   UNL     1      36.802  -1.665  18.576  0.00  0.00    +0.000 A 
ENDBRANCH  23  25
ENDBRANCH   4  23
TORSDOF 7
ENDMDL
MODEL 2
REMARK VINA RESULT:      -7.8      2.154      6.350
REMARK  Name = 
REMARK  7 active torsions:
REMARK  status: ('A' for Active; 'I' for Inactive)
REMARK    1  A    between atoms: C_2  and  C_3
REMARK    2  A    between atoms: C_3  and  C_5
REMARK    3  A    between atoms: C_5  and  O_6
REMARK    4  A    between atoms: O_6  and  C_7
REMARK    5  A    between atoms: C_7  and  C_9
REMARK    6  A    between atoms: N_12  and  C_13
REMARK    7  A    between atoms: C_13  and  C_15
REMARK                            x       y       z     vdW  Elec       q    Type
REMARK                         _______ _______ _______ _____ _____    ______ ____
ROOT
ATOM      1  C   UNL     1      36.387  -0.417  16.705  0.00  0.00    +0.000 A 
ATOM      2  C   UNL     1      35.753   0.776  16.369  0.00  0.00    +0.000 A 
ATOM      3  N   UNL     1      34.503   1.257  16.900  0.00  0.00    +0.000 NA
ATOM      4  N   UNL     1      36.549   1.341  15.469  0.00  0.00    +0.000 N 
ATOM      5  C   UNL     1      37.634   0.600  15.213  0.00  0.00    +0.000 A 
ATOM      6  N   UNL     1      38.719   0.719  14.404  0.00  0.00    +0.000 NA
ATOM      7  C   UNL     1      39.694  -0.201  14.336  0.00  0.00    +0.000 A 
ATOM      8  C   UNL     1      40.791  -0.049  13.498  0.00  0.00    +0.000 A 
ATOM      9  C   UNL     1      41.795  -0.984  13.421  0.00  0.00    +0.000 A 
ATOM     10  C   UNL     1      41.707  -2.123  14.209  0.00  0.00    +0.000 A 
ATOM     11  C   UNL     1      40.607  -2.277  15.050  0.00  0.00    +0.000 A 
ATOM     12  C   UNL     1      39.605  -1.331  15.119  0.00  0.00    +0.000 A 
ATOM     13  N   UNL     1      38.527  -1.472  15.937  0.00  0.00    +0.000 NA
ATOM     14  C   UNL     1      37.558  -0.542  15.995  0.00  0.00    +0.000 A 
ENDROOT
BRANCH   1  15
ATOM     15  C   UNL     1      35.852  -1.398  17.695  0.00  0.00    +0.000 C 
ATOM     16  O   UNL     1      35.965  -1.161  18.913  0.00  0.00    +0.000 OA
BRANCH  15  17
ATOM     17  O   UNL     1      35.241  -2.548  17.302  0.00  0.00    +0.000 OA
BRANCH  17  18
ATOM     18  C   UNL     1      34.797  -2.989  16.168  0.00  0.00    +0.000 C 
BRANCH  18  19
ATOM     19  C   UNL     1      35.734  -3.733  15.116  0.00  0.00    +0.000 C 
ATOM     20  C   UNL     1      36.624  -4.586  16.172  0.00  0.00    +0.000 C 
BRANCH  19  22
ATOM     21  C   UNL     1      33.339  -4.369  14.847  0.00  0.00    +0.000 C 
ATOM     22  C   UNL     1      34.715  -5.030  14.829  0.00  0.00    +0.000 C 
ENDBRANCH  19  22
ENDBRANCH  18  19
ENDBRANCH  17  18
ENDBRANCH  15  17
ENDBRANCH   1  15
BRANCH   4  23
ATOM     23  C   UNL     1      36.290   2.711  14.776  0.00  0.00    +0.000 C 
ATOM     24  C   UNL     1      34.951   3.132  15.645  0.00  0.00    +0.000 C 
BRANCH  23  25
ATOM     25  C   UNL     1      37.348   3.559  15.622  0.00  0.00    +0.000 A 
ATOM     26  C   UNL     1      37.277   3.751  16.922  0.00  0.00    +0.000 A 
ATOM     27  C   UNL     1      38.210   4.483  17.593  0.00  0.00    +0.000 A 
ATOM     28  C   UNL     1      39.241   5.031  16.904  0.00  0.00    +0.000 A 
ATOM     29  C   UNL     1      39.341   4.848  15.555  0.00  0.00    +0.000 A 
ATOM     30  C   UNL     1      38.383   4.101  14.893  0.00  0.00    +0.000 A 
ENDBRANCH  23  25
ENDBRANCH   4  23
TORSDOF 7
ENDMDL
MODEL 3
REMARK VINA RESULT:      -7.6      1.915      2.801
REMARK  Name = 
REMARK  7 active torsions:
REMARK  status: ('A' for Active; 'I' for Inactive)
REMARK    1  A    between atoms: C_2  and  C_3
REMARK    2  A    between atoms: C_3  and  C_5
REMARK    3  A    between atoms: C_5  and  O_6
REMARK    4  A    between atoms: O_6  and  C_7
REMARK    5  A    between atoms: C_7  and  C_9
REMARK    6  A    between atoms: N_12  and  C_13
REMARK    7  A    between atoms: C_13  and  C_15
REMARK                            x       y       z     vdW  Elec       q    Type
REMARK                         _______ _______ _______ _____ _____    ______ ____
ROOT
ATOM      1  C   UNL     1      36.742   1.737  15.695  0.00  0.00    +0.000 A 
ATOM      2  C   UNL     1      35.723   0.939  16.207  0.00  0.00    +0.000 A 
ATOM      3  N   UNL     1      34.448   1.395  16.698  0.00  0.00    +0.000 NA
ATOM      4  N   UNL     1      36.196  -0.300  16.138  0.00  0.00    +0.000 N 
ATOM      5  C   UNL     1      37.431  -0.346  15.624  0.00  0.00    +0.000 A 
ATOM      6  N   UNL     1      38.329  -1.327  15.350  0.00  0.00    +0.000 NA
ATOM      7  C   UNL     1      39.539  -1.092  14.818  0.00  0.00    +0.000 A 
ATOM      8  C   UNL     1      40.435  -2.118  14.549  0.00  0.00    +0.000 A 
ATOM      9  C   UNL     1      41.676  -1.890  14.003  0.00  0.00    +0.000 A 
ATOM     10  C   UNL     1      42.045  -0.585  13.712  0.00  0.00    +0.000 A 
ATOM     11  C   UNL     1      41.147   0.446  13.981  0.00  0.00    +0.000 A 
ATOM     12  C   UNL     1      39.904   0.204  14.528  0.00  0.00    +0.000 A 
ATOM     13  N   UNL     1      39.020   1.203  14.794  0.00  0.00    +0.000 NA
ATOM     14  C   UNL     1      37.811   0.953  15.329  0.00  0.00    +0.000 A 
ENDROOT
BRANCH   1  15
ATOM     15  C   UNL     1      36.660   3.222  15.573  0.00  0.00    +0.000 C 
ATOM     16  O   UNL     1      37.095   3.937  16.497  0.00  0.00    +0.000 OA
BRANCH  15  17
ATOM     17  O   UNL     1      36.123   3.821  14.476  0.00  0.00    +0.000 OA
BRANCH  17  18
ATOM     18  C   UNL     1      35.160   4.668  14.295  0.00  0.00    +0.000 C 
BRANCH  18  19
ATOM     19  C   UNL     1      35.425   6.217  14.034  0.00  0.00    +0.000 C 
ATOM     20  C   UNL     1      35.594   6.146  12.420  0.00  0.00    +0.000 C 
BRANCH  19  22
ATOM     21  C   UNL     1      33.800   8.000  14.660  0.00  0.00    +0.000 C 
ATOM     22  C   UNL     1      33.818   6.671  13.909  0.00  0.00    +0.000 C 
ENDBRANCH  19  22
ENDBRANCH  18  19
ENDBRANCH  17  18
ENDBRANCH  15  17
ENDBRANCH   1  15
BRANCH   4  23
ATOM     23  C   UNL     1      35.429  -1.579  16.587  0.00  0.00    +0.000 C 
ATOM     24  C   UNL     1      35.838  -2.527  15.300  0.00  0.00    +0.000 C 
BRANCH  23  25
ATOM     25  C   UNL     1      36.541  -2.126  17.596  0.00  0.00    +0.000 A 
ATOM     26  C   UNL     1      36.876  -1.538  18.724  0.00  0.00    +0.000 A 
ATOM     27  C   UNL     1      37.832  -2.052  19.547  0.00  0.00    +0.000 A 
ATOM     28  C   UNL     1      38.459  -3.201  19.196  0.00  0.00    +0.000 A 
ATOM     29  C   UNL     1      38.133  -3.834  18.032  0.00  0.00    +0.000 A 
ATOM     30  C   UNL     1      37.159  -3.296  17.210  0.00  0.00    +0.000 A 
ENDBRANCH  23  25
ENDBRANCH   4  23
TORSDOF 7
ENDMDL
MODEL 4
REMARK VINA RESULT:      -7.5      1.974      6.195
REMARK  Name = 
REMARK  7 active torsions:
REMARK  status: ('A' for Active; 'I' for Inactive)
REMARK    1  A    between atoms: C_2  and  C_3
REMARK    2  A    between atoms: C_3  and  C_5
REMARK    3  A    between atoms: C_5  and  O_6
REMARK    4  A    between atoms: O_6  and  C_7
REMARK    5  A    between atoms: C_7  and  C_9
REMARK    6  A    between atoms: N_12  and  C_13
REMARK    7  A    between atoms: C_13  and  C_15
REMARK                            x       y       z     vdW  Elec       q    Type
REMARK                         _______ _______ _______ _____ _____    ______ ____
ROOT
ATOM      1  C   UNL     1      36.455   2.511  15.663  0.00  0.00    +0.000 A 
ATOM      2  C   UNL     1      36.779   2.109  14.371  0.00  0.00    +0.000 A 
ATOM      3  N   UNL     1      36.020   1.207  13.542  0.00  0.00    +0.000 NA
ATOM      4  N   UNL     1      37.919   2.732  14.099  0.00  0.00    +0.000 N 
ATOM      5  C   UNL     1      38.338   3.496  15.115  0.00  0.00    +0.000 A 
ATOM      6  N   UNL     1      39.403   4.308  15.342  0.00  0.00    +0.000 NA
ATOM      7  C   UNL     1      39.589   4.978  16.489  0.00  0.00    +0.000 A 
ATOM      8  C   UNL     1      40.689   5.802  16.689  0.00  0.00    +0.000 A 
ATOM      9  C   UNL     1      40.890   6.494  17.859  0.00  0.00    +0.000 A 
ATOM     10  C   UNL     1      39.957   6.363  18.878  0.00  0.00    +0.000 A 
ATOM     11  C   UNL     1      38.853   5.538  18.679  0.00  0.00    +0.000 A 
ATOM     12  C   UNL     1      38.662   4.848  17.500  0.00  0.00    +0.000 A 
ATOM     13  N   UNL     1      37.587   4.040  17.296  0.00  0.00    +0.000 NA
ATOM     14  C   UNL     1      37.414   3.373  16.141  0.00  0.00    +0.000 A 
ENDROOT
BRANCH   1  15
ATOM     15  C   UNL     1      35.237   2.058  16.399  0.00  0.00    +0.000 C 
ATOM     16  O   UNL     1      34.181   2.711  16.295  0.00  0.00    +0.000 OA
BRANCH  15  17
ATOM     17  O   UNL     1      35.249   0.947  17.184  0.00  0.00    +0.000 OA
BRANCH  17  18
ATOM     18  C   UNL     1      36.181   0.282  17.788  0.00  0.00    +0.000 C 
BRANCH  18  19
ATOM     19  C   UNL     1      36.452  -1.262  17.503  0.00  0.00    +0.000 C 
ATOM     20  C   UNL     1      35.212  -1.522  16.488  0.00  0.00    +0.000 C 
BRANCH  19  22
ATOM     21  C   UNL     1      36.824  -1.765  15.091  0.00  0.00    +0.000 C 
ATOM     22  C   UNL     1      37.525  -1.042  16.237  0.00  0.00    +0.000 C 
ENDBRANCH  19  22
ENDBRANCH  18  19
ENDBRANCH  17  18
ENDBRANCH  15  17
ENDBRANCH   1  15
BRANCH   4  23
ATOM     23  C   UNL     1      38.705   2.620  12.758  0.00  0.00    +0.000 C 
ATOM     24  C   UNL     1      39.997   3.548  13.198  0.00  0.00    +0.000 C 
BRANCH  23  25
ATOM     25  C   UNL     1      39.377   1.199  13.047  0.00  0.00    +0.000 A 
ATOM     26  C   UNL     1      40.190   0.952  14.051  0.00  0.00    +0.000 A 
ATOM     27  C   UNL     1      40.733  -0.282  14.249  0.00  0.00    +0.000 A 
ATOM     28  C   UNL     1      40.429  -1.285  13.389  0.00  0.00    +0.000 A 
ATOM     29  C   UNL     1      39.588  -1.057  12.338  0.00  0.00    +0.000 A 
ATOM     30  C   UNL     1      39.047   0.203  12.154  0.00  0.00    +0.000 A 
ENDBRANCH  23  25
ENDBRANCH   4  23
TORSDOF 7
ENDMDL
MODEL 5
REMARK VINA RESULT:      -7.5      2.509      6.013
REMARK  Name = 
REMARK  7 active torsions:
REMARK  status: ('A' for Active; 'I' for Inactive)
REMARK    1  A    between atoms: C_2  and  C_3
REMARK    2  A    between atoms: C_3  and  C_5
REMARK    3  A    between atoms: C_5  and  O_6
REMARK    4  A    between atoms: O_6  and  C_7
REMARK    5  A    between atoms: C_7  and  C_9
REMARK    6  A    between atoms: N_12  and  C_13
REMARK    7  A    between atoms: C_13  and  C_15
REMARK                            x       y       z     vdW  Elec       q    Type
REMARK                         _______ _______ _______ _____ _____    ______ ____
ROOT
ATOM      1  C   UNL     1      37.907  -1.215  13.948  0.00  0.00    +0.000 A 
ATOM      2  C   UNL     1      37.143  -0.092  13.645  0.00  0.00    +0.000 A 
ATOM      3  N   UNL     1      36.954   0.484  12.338  0.00  0.00    +0.000 NA
ATOM      4  N   UNL     1      36.651   0.307  14.812  0.00  0.00    +0.000 N 
ATOM      5  C   UNL     1      37.042  -0.475  15.825  0.00  0.00    +0.000 A 
ATOM      6  N   UNL     1      36.830  -0.501  17.166  0.00  0.00    +0.000 NA
ATOM      7  C   UNL     1      37.362  -1.427  17.980  0.00  0.00    +0.000 A 
ATOM      8  C   UNL     1      37.124  -1.426  19.348  0.00  0.00    +0.000 A 
ATOM      9  C   UNL     1      37.662  -2.369  20.191  0.00  0.00    +0.000 A 
ATOM     10  C   UNL     1      38.474  -3.357  19.652  0.00  0.00    +0.000 A 
ATOM     11  C   UNL     1      38.713  -3.359  18.280  0.00  0.00    +0.000 A 
ATOM     12  C   UNL     1      38.167  -2.408  17.444  0.00  0.00    +0.000 A 
ATOM     13  N   UNL     1      38.394  -2.401  16.103  0.00  0.00    +0.000 NA
ATOM     14  C   UNL     1      37.855  -1.467  15.299  0.00  0.00    +0.000 A 
ENDROOT
BRANCH   1  15
ATOM     15  C   UNL     1      38.660  -2.012  12.936  0.00  0.00    +0.000 C 
ATOM     16  O   UNL     1      38.376  -3.214  12.767  0.00  0.00    +0.000 OA
BRANCH  15  17
ATOM     17  O   UNL     1      39.654  -1.460  12.187  0.00  0.00    +0.000 OA
BRANCH  17  18
ATOM     18  C   UNL     1      40.787  -0.901  12.468  0.00  0.00    +0.000 C 
BRANCH  18  19
ATOM     19  C   UNL     1      41.088  -0.249  13.890  0.00  0.00    +0.000 C 
ATOM     20  C   UNL     1      42.508  -0.982  14.176  0.00  0.00    +0.000 C 
BRANCH  19  22
ATOM     21  C   UNL     1      40.698   1.857  12.615  0.00  0.00    +0.000 C 
ATOM     22  C   UNL     1      41.843   1.131  13.316  0.00  0.00    +0.000 C 
ENDBRANCH  19  22
ENDBRANCH  18  19
ENDBRANCH  17  18
ENDBRANCH  15  17
ENDBRANCH   1  15
BRANCH   4  23
ATOM     23  C   UNL     1      35.714   1.535  15.017  0.00  0.00    +0.000 C 
ATOM     24  C   UNL     1      35.160   1.124  16.517  0.00  0.00    +0.000 C 
BRANCH  23  25
ATOM     25  C   UNL     1      36.843   2.560  15.499  0.00  0.00    +0.000 A 
ATOM     26  C   UNL     1      37.878   2.920  14.772  0.00  0.00    +0.000 A 
ATOM     27  C   UNL     1      38.810   3.800  15.234  0.00  0.00    +0.000 A 
ATOM     28  C   UNL     1      38.670   4.319  16.478  0.00  0.00    +0.000 A 
ATOM     29  C   UNL     1      37.606   3.963  17.256  0.00  0.00    +0.000 A 
ATOM     30  C   UNL     1      36.671   3.068  16.767  0.00  0.00    +0.000 A 
ENDBRANCH  23  25
ENDBRANCH   4  23
TORSDOF 7
ENDMDL
MODEL 6
REMARK VINA RESULT:      -7.5      3.088      6.335
REMARK  Name = 
REMARK  7 active torsions:
REMARK  status: ('A' for Active; 'I' for Inactive)
REMARK    1  A    between atoms: C_2  and  C_3
REMARK    2  A    between atoms: C_3  and  C_5
REMARK    3  A    between atoms: C_5  and  O_6
REMARK    4  A    between atoms: O_6  and  C_7
REMARK    5  A    between atoms: C_7  and  C_9
REMARK    6  A    between atoms: N_12  and  C_13
REMARK    7  A    between atoms: C_13  and  C_15
REMARK                            x       y       z     vdW  Elec       q    Type
REMARK                         _______ _______ _______ _____ _____    ______ ____
ROOT
ATOM      1  C   UNL     1      39.605  -0.500  14.575  0.00  0.00    +0.000 A 
ATOM      2  C   UNL     1      39.556  -1.636  15.378  0.00  0.00    +0.000 A 
ATOM      3  N   UNL     1      40.543  -2.684  15.433  0.00  0.00    +0.000 NA
ATOM      4  N   UNL     1      38.419  -1.525  16.053  0.00  0.00    +0.000 N 
ATOM      5  C   UNL     1      37.747  -0.410  15.741  0.00  0.00    +0.000 A 
ATOM      6  N   UNL     1      36.576   0.156  16.130  0.00  0.00    +0.000 NA
ATOM      7  C   UNL     1      36.119   1.320  15.641  0.00  0.00    +0.000 A 
ATOM      8  C   UNL     1      34.917   1.872  16.061  0.00  0.00    +0.000 A 
ATOM      9  C   UNL     1      34.440   3.064  15.569  0.00  0.00    +0.000 A 
ATOM     10  C   UNL     1      35.191   3.738  14.616  0.00  0.00    +0.000 A 
ATOM     11  C   UNL     1      36.398   3.185  14.194  0.00  0.00    +0.000 A 
ATOM     12  C   UNL     1      36.866   1.989  14.696  0.00  0.00    +0.000 A 
ATOM     13  N   UNL     1      38.043   1.441  14.291  0.00  0.00    +0.000 NA
ATOM     14  C   UNL     1      38.487   0.273  14.789  0.00  0.00    +0.000 A 
ENDROOT
BRANCH   1  15
ATOM     15  C   UNL     1      40.718  -0.190  13.631  0.00  0.00    +0.000 C 
ATOM     16  O   UNL     1      41.773   0.307  14.070  0.00  0.00    +0.000 OA
BRANCH  15  17
ATOM     17  O   UNL     1      40.614  -0.438  12.297  0.00  0.00    +0.000 OA
BRANCH  17  18
ATOM     18  C   UNL     1      40.017  -1.348  11.595  0.00  0.00    +0.000 C 
BRANCH  18  19
ATOM     19  C   UNL     1      40.572  -2.836  11.478  0.00  0.00    +0.000 C 
ATOM     20  C   UNL     1      40.444  -2.996   9.867  0.00  0.00    +0.000 C 
BRANCH  19  22
ATOM     21  C   UNL     1      42.789  -3.179  12.565  0.00  0.00    +0.000 C 
ATOM     22  C   UNL     1      42.194  -2.433  11.373  0.00  0.00    +0.000 C 
ENDBRANCH  19  22
ENDBRANCH  18  19
ENDBRANCH  17  18
ENDBRANCH  15  17
ENDBRANCH   1  15
BRANCH   4  23
ATOM     23  C   UNL     1      37.895  -2.550  17.103  0.00  0.00    +0.000 C 
ATOM     24  C   UNL     1      37.054  -1.479  18.035  0.00  0.00    +0.000 C 
BRANCH  23  25
ATOM     25  C   UNL     1      36.654  -3.083  16.249  0.00  0.00    +0.000 A 
ATOM     26  C   UNL     1      36.760  -3.726  15.106  0.00  0.00    +0.000 A 
ATOM     27  C   UNL     1      35.665  -4.160  14.421  0.00  0.00    +0.000 A 
ATOM     28  C   UNL     1      34.430  -3.923  14.927  0.00  0.00    +0.000 A 
ATOM     29  C   UNL     1      34.289  -3.257  16.111  0.00  0.00    +0.000 A 
ATOM     30  C   UNL     1      35.414  -2.826  16.791  0.00  0.00    +0.000 A 
ENDBRANCH  23  25
ENDBRANCH   4  23
TORSDOF 7
ENDMDL
MODEL 7
REMARK VINA RESULT:      -7.3      1.899      4.791
REMARK  Name = 
REMARK  7 active torsions:
REMARK  status: ('A' for Active; 'I' for Inactive)
REMARK    1  A    between atoms: C_2  and  C_3
REMARK    2  A    between atoms: C_3  and  C_5
REMARK    3  A    between atoms: C_5  and  O_6
REMARK    4  A    between atoms: O_6  and  C_7
REMARK    5  A    between atoms: C_7  and  C_9
REMARK    6  A    between atoms: N_12  and  C_13
REMARK    7  A    between atoms: C_13  and  C_15
REMARK                            x       y       z     vdW  Elec       q    Type
REMARK                         _______ _______ _______ _____ _____    ______ ____
ROOT
ATOM      1  C   UNL     1      38.216   2.848  15.118  0.00  0.00    +0.000 A 
ATOM      2  C   UNL     1      38.981   2.592  13.983  0.00  0.00    +0.000 A 
ATOM      3  N   UNL     1      39.881   3.511  13.336  0.00  0.00    +0.000 NA
ATOM      4  N   UNL     1      38.685   1.341  13.652  0.00  0.00    +0.000 N 
ATOM      5  C   UNL     1      37.798   0.788  14.487  0.00  0.00    +0.000 A 
ATOM      6  N   UNL     1      37.186  -0.420  14.589  0.00  0.00    +0.000 NA
ATOM      7  C   UNL     1      36.305  -0.723  15.555  0.00  0.00    +0.000 A 
ATOM      8  C   UNL     1      35.698  -1.969  15.632  0.00  0.00    +0.000 A 
ATOM      9  C   UNL     1      34.795  -2.291  16.617  0.00  0.00    +0.000 A 
ATOM     10  C   UNL     1      34.480  -1.332  17.570  0.00  0.00    +0.000 A 
ATOM     11  C   UNL     1      35.090  -0.082  17.495  0.00  0.00    +0.000 A 
ATOM     12  C   UNL     1      35.994   0.229  16.501  0.00  0.00    +0.000 A 
ATOM     13  N   UNL     1      36.594   1.447  16.419  0.00  0.00    +0.000 NA
ATOM     14  C   UNL     1      37.475   1.737  15.444  0.00  0.00    +0.000 A 
ENDROOT
BRANCH   1  15
ATOM     15  C   UNL     1      38.221   4.147  15.854  0.00  0.00    +0.000 C 
ATOM     16  O   UNL     1      37.527   5.092  15.430  0.00  0.00    +0.000 OA
BRANCH  15  17
ATOM     17  O   UNL     1      38.963   4.328  16.979  0.00  0.00    +0.000 OA
BRANCH  17  18
ATOM     18  C   UNL     1      38.707   4.794  18.160  0.00  0.00    +0.000 C 
BRANCH  18  19
ATOM     19  C   UNL     1      39.757   5.667  18.980  0.00  0.00    +0.000 C 
ATOM     20  C   UNL     1      40.597   6.248  17.719  0.00  0.00    +0.000 C 
BRANCH  19  22
ATOM     21  C   UNL     1      39.218   7.612  20.443  0.00  0.00    +0.000 C 
ATOM     22  C   UNL     1      38.823   7.053  19.079  0.00  0.00    +0.000 C 
ENDBRANCH  19  22
ENDBRANCH  18  19
ENDBRANCH  17  18
ENDBRANCH  15  17
ENDBRANCH   1  15
BRANCH   4  23
ATOM     23  C   UNL     1      39.289   0.567  12.442  0.00  0.00    +0.000 C 
ATOM     24  C   UNL     1      40.150   1.822  11.803  0.00  0.00    +0.000 C 
BRANCH  23  25
ATOM     25  C   UNL     1      40.496  -0.118  13.234  0.00  0.00    +0.000 A 
ATOM     26  C   UNL     1      40.425  -1.289  13.827  0.00  0.00    +0.000 A 
ATOM     27  C   UNL     1      41.490  -1.826  14.488  0.00  0.00    +0.000 A 
ATOM     28  C   UNL     1      42.655  -1.135  14.537  0.00  0.00    +0.000 A 
ATOM     29  C   UNL     1      42.758   0.083  13.930  0.00  0.00    +0.000 A 
ATOM     30  C   UNL     1      41.665   0.610  13.264  0.00  0.00    +0.000 A 
ENDBRANCH  23  25
ENDBRANCH   4  23
TORSDOF 7
ENDMDL
MODEL 8
REMARK VINA RESULT:      -7.0      4.492      7.358
REMARK  Name = 
REMARK  7 active torsions:
REMARK  status: ('A' for Active; 'I' for Inactive)
REMARK    1  A    between atoms: C_2  and  C_3
REMARK    2  A    between atoms: C_3  and  C_5
REMARK    3  A    between atoms: C_5  and  O_6
REMARK    4  A    between atoms: O_6  and  C_7
REMARK    5  A    between atoms: C_7  and  C_9
REMARK    6  A    between atoms: N_12  and  C_13
REMARK    7  A    between atoms: C_13  and  C_15
REMARK                            x       y       z     vdW  Elec       q    Type
REMARK                         _______ _______ _______ _____ _____    ______ ____
ROOT
ATOM      1  C   UNL     1      36.604   7.631  14.606  0.00  0.00    +0.000 A 
ATOM      2  C   UNL     1      36.628   6.521  13.765  0.00  0.00    +0.000 A 
ATOM      3  N   UNL     1      35.989   6.413  12.478  0.00  0.00    +0.000 NA
ATOM      4  N   UNL     1      37.352   5.619  14.416  0.00  0.00    +0.000 N 
ATOM      5  C   UNL     1      37.788   6.071  15.598  0.00  0.00    +0.000 A 
ATOM      6  N   UNL     1      38.537   5.566  16.612  0.00  0.00    +0.000 NA
ATOM      7  C   UNL     1      38.835   6.255  17.725  0.00  0.00    +0.000 A 
ATOM      8  C   UNL     1      39.604   5.709  18.743  0.00  0.00    +0.000 A 
ATOM      9  C   UNL     1      39.916   6.405  19.887  0.00  0.00    +0.000 A 
ATOM     10  C   UNL     1      39.442   7.702  20.026  0.00  0.00    +0.000 A 
ATOM     11  C   UNL     1      38.670   8.251  19.005  0.00  0.00    +0.000 A 
ATOM     12  C   UNL     1      38.364   7.543  17.862  0.00  0.00    +0.000 A 
ATOM     13  N   UNL     1      37.611   8.070  16.859  0.00  0.00    +0.000 NA
ATOM     14  C   UNL     1      37.320   7.367  15.750  0.00  0.00    +0.000 A 
ENDROOT
BRANCH   1  15
ATOM     15  C   UNL     1      35.898   8.906  14.287  0.00  0.00    +0.000 C 
ATOM     16  O   UNL     1      36.494   9.791  13.643  0.00  0.00    +0.000 OA
BRANCH  15  17
ATOM     17  O   UNL     1      34.615   9.131  14.681  0.00  0.00    +0.000 OA
BRANCH  17  18
ATOM     18  C   UNL     1      34.065   9.929  15.539  0.00  0.00    +0.000 C 
BRANCH  18  19
ATOM     19  C   UNL     1      34.467   9.934  17.081  0.00  0.00    +0.000 C 
ATOM     20  C   UNL     1      33.929  11.422  17.446  0.00  0.00    +0.000 C 
BRANCH  19  22
ATOM     21  C   UNL     1      32.349  10.393  18.311  0.00  0.00    +0.000 C 
ATOM     22  C   UNL     1      33.066   9.218  17.652  0.00  0.00    +0.000 C 
ENDBRANCH  19  22
ENDBRANCH  18  19
ENDBRANCH  17  18
ENDBRANCH  15  17
ENDBRANCH   1  15
BRANCH   4  23
ATOM     23  C   UNL     1      37.687   4.191  13.893  0.00  0.00    +0.000 C 
ATOM     24  C   UNL     1      39.049   3.954  14.795  0.00  0.00    +0.000 C 
BRANCH  23  25
ATOM     25  C   UNL     1      36.679   3.396  14.846  0.00  0.00    +0.000 A 
ATOM     26  C   UNL     1      37.054   2.589  15.814  0.00  0.00    +0.000 A 
ATOM     27  C   UNL     1      36.149   1.937  16.598  0.00  0.00    +0.000 A 
ATOM     28  C   UNL     1      34.825   2.123  16.375  0.00  0.00    +0.000 A 
ATOM     29  C   UNL     1      34.407   2.955  15.377  0.00  0.00    +0.000 A 
ATOM     30  C   UNL     1      35.342   3.607  14.593  0.00  0.00    +0.000 A 
ENDBRANCH  23  25
ENDBRANCH   4  23
TORSDOF 7
ENDMDL
MODEL 9
REMARK VINA RESULT:      -6.9     24.865     27.727
REMARK  Name = 
REMARK  7 active torsions:
REMARK  status: ('A' for Active; 'I' for Inactive)
REMARK    1  A    between atoms: C_2  and  C_3
REMARK    2  A    between atoms: C_3  and  C_5
REMARK    3  A    between atoms: C_5  and  O_6
REMARK    4  A    between atoms: O_6  and  C_7
REMARK    5  A    between atoms: C_7  and  C_9
REMARK    6  A    between atoms: N_12  and  C_13
REMARK    7  A    between atoms: C_13  and  C_15
REMARK                            x       y       z     vdW  Elec       q    Type
REMARK                         _______ _______ _______ _____ _____    ______ ____
ROOT
ATOM      1  C   UNL     1      29.141  16.418  36.074  0.00  0.00    +0.000 A 
ATOM      2  C   UNL     1      28.364  17.091  37.013  0.00  0.00    +0.000 A 
ATOM      3  N   UNL     1      27.478  18.196  36.751  0.00  0.00    +0.000 NA
ATOM      4  N   UNL     1      28.632  16.492  38.166  0.00  0.00    +0.000 N 
ATOM      5  C   UNL     1      29.514  15.494  38.030  0.00  0.00    +0.000 A 
ATOM      6  N   UNL     1      30.102  14.600  38.866  0.00  0.00    +0.000 NA
ATOM      7  C   UNL     1      30.983  13.674  38.457  0.00  0.00    +0.000 A 
ATOM      8  C   UNL     1      31.565  12.773  39.338  0.00  0.00    +0.000 A 
ATOM      9  C   UNL     1      32.467  11.820  38.930  0.00  0.00    +0.000 A 
ATOM     10  C   UNL     1      32.808  11.758  37.585  0.00  0.00    +0.000 A 
ATOM     11  C   UNL     1      32.223  12.661  36.700  0.00  0.00    +0.000 A 
ATOM     12  C   UNL     1      31.319  13.613  37.122  0.00  0.00    +0.000 A 
ATOM     13  N   UNL     1      30.743  14.498  36.265  0.00  0.00    +0.000 NA
ATOM     14  C   UNL     1      29.862  15.422  36.690  0.00  0.00    +0.000 A 
ENDROOT
BRANCH   1  15
ATOM     15  C   UNL     1      29.167  16.748  34.619  0.00  0.00    +0.000 C 
ATOM     16  O   UNL     1      29.946  17.628  34.205  0.00  0.00    +0.000 OA
BRANCH  15  17
ATOM     17  O   UNL     1      28.361  16.111  33.726  0.00  0.00    +0.000 OA
BRANCH  17  18
ATOM     18  C   UNL     1      27.089  15.881  33.669  0.00  0.00    +0.000 C 
BRANCH  18  19
ATOM     19  C   UNL     1      26.441  14.526  34.200  0.00  0.00    +0.000 C 
ATOM     20  C   UNL     1      25.563  15.158  35.411  0.00  0.00    +0.000 C 
BRANCH  19  22
ATOM     21  C   UNL     1      24.955  16.002  32.850  0.00  0.00    +0.000 C 
ATOM     22  C   UNL     1      25.126  14.518  33.165  0.00  0.00    +0.000 C 
ENDBRANCH  19  22
ENDBRANCH  18  19
ENDBRANCH  17  18
ENDBRANCH  15  17
ENDBRANCH   1  15
BRANCH   4  23
ATOM     23  C   UNL     1      28.005  16.871  39.541  0.00  0.00    +0.000 C 
ATOM     24  C   UNL     1      27.586  18.420  39.156  0.00  0.00    +0.000 C 
BRANCH  23  25
ATOM     25  C   UNL     1      26.572  16.211  39.288  0.00  0.00    +0.000 A 
ATOM     26  C   UNL     1      25.477  16.891  39.027  0.00  0.00    +0.000 A 
ATOM     27  C   UNL     1      24.279  16.274  38.818  0.00  0.00    +0.000 A 
ATOM     28  C   UNL     1      24.212  14.922  38.882  0.00  0.00    +0.000 A 
ATOM     29  C   UNL     1      25.333  14.190  39.151  0.00  0.00    +0.000 A 
ATOM     30  C   UNL     1      26.538  14.836  39.359  0.00  0.00    +0.000 A 
ENDBRANCH  23  25
ENDBRANCH   4  23
TORSDOF 7
ENDMDL
MODEL 10
REMARK VINA RESULT:      -6.9      2.381      5.483
REMARK  Name = 
REMARK  7 active torsions:
REMARK  status: ('A' for Active; 'I' for Inactive)
REMARK    1  A    between atoms: C_2  and  C_3
REMARK    2  A    between atoms: C_3  and  C_5
REMARK    3  A    between atoms: C_5  and  O_6
REMARK    4  A    between atoms: O_6  and  C_7
REMARK    5  A    between atoms: C_7  and  C_9
REMARK    6  A    between atoms: N_12  and  C_13
REMARK    7  A    between atoms: C_13  and  C_15
REMARK                            x       y       z     vdW  Elec       q    Type
REMARK                         _______ _______ _______ _____ _____    ______ ____
ROOT
ATOM      1  C   UNL     1      37.772   2.610  15.400  0.00  0.00    +0.000 A 
ATOM      2  C   UNL     1      38.743   2.429  14.419  0.00  0.00    +0.000 A 
ATOM      3  N   UNL     1      39.657   3.429  13.929  0.00  0.00    +0.000 NA
ATOM      4  N   UNL     1      38.624   1.158  14.056  0.00  0.00    +0.000 N 
ATOM      5  C   UNL     1      37.656   0.523  14.729  0.00  0.00    +0.000 A 
ATOM      6  N   UNL     1      37.147  -0.736  14.737  0.00  0.00    +0.000 NA
ATOM      7  C   UNL     1      36.141  -1.121  15.537  0.00  0.00    +0.000 A 
ATOM      8  C   UNL     1      35.643  -2.417  15.521  0.00  0.00    +0.000 A 
ATOM      9  C   UNL     1      34.615  -2.823  16.337  0.00  0.00    +0.000 A 
ATOM     10  C   UNL     1      34.053  -1.900  17.209  0.00  0.00    +0.000 A 
ATOM     11  C   UNL     1      34.552  -0.600  17.227  0.00  0.00    +0.000 A 
ATOM     12  C   UNL     1      35.585  -0.204  16.403  0.00  0.00    +0.000 A 
ATOM     13  N   UNL     1      36.079   1.063  16.413  0.00  0.00    +0.000 NA
ATOM     14  C   UNL     1      37.087   1.435  15.604  0.00  0.00    +0.000 A 
ENDROOT
BRANCH   1  15
ATOM     15  C   UNL     1      37.530   3.901  16.109  0.00  0.00    +0.000 C 
ATOM     16  O   UNL     1      36.971   4.836  15.505  0.00  0.00    +0.000 OA
BRANCH  15  17
ATOM     17  O   UNL     1      37.905   4.086  17.404  0.00  0.00    +0.000 OA
BRANCH  17  18
ATOM     18  C   UNL     1      38.791   4.829  17.987  0.00  0.00    +0.000 C 
BRANCH  18  19
ATOM     19  C   UNL     1      39.773   5.784  17.173  0.00  0.00    +0.000 C 
ATOM     20  C   UNL     1      38.918   7.157  17.317  0.00  0.00    +0.000 C 
BRANCH  19  22
ATOM     21  C   UNL     1      39.757   6.368  19.596  0.00  0.00    +0.000 C 
ATOM     22  C   UNL     1      40.762   6.191  18.461  0.00  0.00    +0.000 C 
ENDBRANCH  19  22
ENDBRANCH  18  19
ENDBRANCH  17  18
ENDBRANCH  15  17
ENDBRANCH   1  15
BRANCH   4  23
ATOM     23  C   UNL     1      39.496   0.447  12.979  0.00  0.00    +0.000 C 
ATOM     24  C   UNL     1      38.815  -1.050  13.115  0.00  0.00    +0.000 C 
BRANCH  23  25
ATOM     25  C   UNL     1      38.661   0.929  11.705  0.00  0.00    +0.000 A 
ATOM     26  C   UNL     1      37.389   0.659  11.505  0.00  0.00    +0.000 A 
ATOM     27  C   UNL     1      36.725   1.097  10.399  0.00  0.00    +0.000 A 
ATOM     28  C   UNL     1      37.392   1.832   9.475  0.00  0.00    +0.000 A 
ATOM     29  C   UNL     1      38.713   2.128   9.655  0.00  0.00    +0.000 A 
ATOM     30  C   UNL     1      39.368   1.673  10.786  0.00  0.00    +0.000 A 
ENDBRANCH  23  25
ENDBRANCH   4  23
TORSDOF 7
ENDMDL
