MODEL 1
REMARK VINA RESULT:      -7.6      0.000      0.000
REMARK  Name = 
REMARK  0 active torsions:
REMARK  status: ('A' for Active; 'I' for Inactive)
REMARK                            x       y       z     vdW  Elec       q    Type
REMARK                         _______ _______ _______ _____ _____    ______ ____
ROOT
ATOM      1  C   UNL     1       9.170  21.948  19.641  0.00  0.00    +0.000 C 
ATOM      2  C   UNL     1       9.972  21.422  20.735  0.00  0.00    +0.000 C 
ATOM      3  C   UNL     1       9.931  22.199  22.036  0.00  0.00    +0.000 C 
ATOM      4  C   UNL     1      10.574  23.525  21.733  0.00  0.00    +0.000 C 
ATOM      5  C   UNL     1      12.009  23.275  21.324  0.00  0.00    +0.000 C 
ATOM      6  C   UNL     1      12.324  22.155  20.739  0.00  0.00    +0.000 C 
ATOM      7  C   UNL     1      13.717  21.884  20.327  0.00  0.00    +0.000 C 
ATOM      8  C   UNL     1      14.704  22.886  20.596  0.00  0.00    +0.000 C 
ATOM      9  C   UNL     1      14.277  24.134  21.262  0.00  0.00    +0.000 A 
ATOM     10  C   UNL     1      15.253  25.113  21.517  0.00  0.00    +0.000 A 
ATOM     11  C   UNL     1      14.951  26.302  22.129  0.00  0.00    +0.000 A 
ATOM     12  O   UNL     1      15.917  27.284  22.388  0.00  0.00    +0.000 OA
ATOM     13  C   UNL     1      13.636  26.490  22.484  0.00  0.00    +0.000 A 
ATOM     14  C   UNL     1      12.642  25.530  22.241  0.00  0.00    +0.000 A 
ATOM     15  C   UNL     1      12.975  24.348  21.626  0.00  0.00    +0.000 A 
ATOM     16  C   UNL     1      11.346  21.060  20.451  0.00  0.00    +0.000 C 
ATOM     17  C   UNL     1      11.473  19.826  20.009  0.00  0.00    +0.000 C 
ATOM     18  C   UNL     1      10.161  19.183  19.943  0.00  0.00    +0.000 C 
ATOM     19  C   UNL     1       9.386  19.966  21.198  0.00  0.00    +0.000 C 
ATOM     20  O   UNL     1      10.521  19.715  22.166  0.00  0.00    +0.000 OA
ENDROOT
TORSDOF 0
ENDMDL
MODEL 2
REMARK VINA RESULT:      -7.5     32.215     33.395
REMARK  Name = 
REMARK  0 active torsions:
REMARK  status: ('A' for Active; 'I' for Inactive)
REMARK                            x       y       z     vdW  Elec       q    Type
REMARK                         _______ _______ _______ _____ _____    ______ ____
ROOT
ATOM      1  C   UNL     1      32.440  -1.112  36.377  0.00  0.00    +0.000 C 
ATOM      2  C   UNL     1      33.725  -0.743  35.802  0.00  0.00    +0.000 C 
ATOM      3  C   UNL     1      34.697  -0.032  36.723  0.00  0.00    +0.000 C 
ATOM      4  C   UNL     1      34.058   1.293  37.037  0.00  0.00    +0.000 C 
ATOM      5  C   UNL     1      33.908   2.067  35.745  0.00  0.00    +0.000 C 
ATOM      6  C   UNL     1      33.749   1.421  34.626  0.00  0.00    +0.000 C 
ATOM      7  C   UNL     1      33.599   2.150  33.349  0.00  0.00    +0.000 C 
ATOM      8  C   UNL     1      33.638   3.580  33.384  0.00  0.00    +0.000 C 
ATOM      9  C   UNL     1      33.820   4.248  34.690  0.00  0.00    +0.000 A 
ATOM     10  C   UNL     1      33.853   5.654  34.712  0.00  0.00    +0.000 A 
ATOM     11  C   UNL     1      34.017   6.360  35.877  0.00  0.00    +0.000 A 
ATOM     12  O   UNL     1      34.051   7.761  35.910  0.00  0.00    +0.000 OA
ATOM     13  C   UNL     1      34.149   5.620  37.027  0.00  0.00    +0.000 A 
ATOM     14  C   UNL     1      34.120   4.217  37.032  0.00  0.00    +0.000 A 
ATOM     15  C   UNL     1      33.954   3.537  35.851  0.00  0.00    +0.000 A 
ATOM     16  C   UNL     1      33.722  -0.071  34.518  0.00  0.00    +0.000 C 
ATOM     17  C   UNL     1      33.714  -0.906  33.500  0.00  0.00    +0.000 C 
ATOM     18  C   UNL     1      33.715  -2.285  33.986  0.00  0.00    +0.000 C 
ATOM     19  C   UNL     1      34.563  -2.094  35.411  0.00  0.00    +0.000 C 
ATOM     20  O   UNL     1      35.677  -1.319  34.743  0.00  0.00    +0.000 OA
ENDROOT
TORSDOF 0
ENDMDL
MODEL 3
REMARK VINA RESULT:      -7.2     21.937     22.939
REMARK  Name = 
REMARK  0 active torsions:
REMARK  status: ('A' for Active; 'I' for Inactive)
REMARK                            x       y       z     vdW  Elec       q    Type
REMARK                         _______ _______ _______ _____ _____    ______ ____
ROOT
ATOM      1  C   UNL     1      16.934   7.039  41.101  0.00  0.00    +0.000 C 
ATOM      2  C   UNL     1      17.606   8.328  41.168  0.00  0.00    +0.000 C 
ATOM      3  C   UNL     1      16.740   9.524  41.513  0.00  0.00    +0.000 C 
ATOM      4  C   UNL     1      15.791   9.680  40.356  0.00  0.00    +0.000 C 
ATOM      5  C   UNL     1      16.602   9.970  39.112  0.00  0.00    +0.000 C 
ATOM      6  C   UNL     1      17.812   9.500  39.011  0.00  0.00    +0.000 C 
ATOM      7  C   UNL     1      18.627   9.765  37.807  0.00  0.00    +0.000 C 
ATOM      8  C   UNL     1      18.047  10.555  36.764  0.00  0.00    +0.000 C 
ATOM      9  C   UNL     1      16.668  11.055  36.944  0.00  0.00    +0.000 A 
ATOM     10  C   UNL     1      16.106  11.826  35.911  0.00  0.00    +0.000 A 
ATOM     11  C   UNL     1      14.834  12.332  35.989  0.00  0.00    +0.000 A 
ATOM     12  O   UNL     1      14.265  13.102  34.964  0.00  0.00    +0.000 OA
ATOM     13  C   UNL     1      14.131  12.046  37.134  0.00  0.00    +0.000 A 
ATOM     14  C   UNL     1      14.668  11.279  38.180  0.00  0.00    +0.000 A 
ATOM     15  C   UNL     1      15.945  10.785  38.074  0.00  0.00    +0.000 A 
ATOM     16  C   UNL     1      18.484   8.688  40.074  0.00  0.00    +0.000 C 
ATOM     17  C   UNL     1      19.714   8.246  40.233  0.00  0.00    +0.000 C 
ATOM     18  C   UNL     1      19.821   7.514  41.495  0.00  0.00    +0.000 C 
ATOM     19  C   UNL     1      18.680   8.327  42.403  0.00  0.00    +0.000 C 
ATOM     20  O   UNL     1      19.236   9.686  42.041  0.00  0.00    +0.000 OA
ENDROOT
TORSDOF 0
ENDMDL
MODEL 4
REMARK VINA RESULT:      -7.2     14.221     17.379
REMARK  Name = 
REMARK  0 active torsions:
REMARK  status: ('A' for Active; 'I' for Inactive)
REMARK                            x       y       z     vdW  Elec       q    Type
REMARK                         _______ _______ _______ _____ _____    ______ ____
ROOT
ATOM      1  C   UNL     1      27.053  21.828  30.421  0.00  0.00    +0.000 C 
ATOM      2  C   UNL     1      27.714  23.040  29.962  0.00  0.00    +0.000 C 
ATOM      3  C   UNL     1      26.818  24.126  29.401  0.00  0.00    +0.000 C 
ATOM      4  C   UNL     1      26.227  23.550  28.143  0.00  0.00    +0.000 C 
ATOM      5  C   UNL     1      27.354  23.257  27.177  0.00  0.00    +0.000 C 
ATOM      6  C   UNL     1      28.533  22.955  27.640  0.00  0.00    +0.000 C 
ATOM      7  C   UNL     1      29.652  22.663  26.721  0.00  0.00    +0.000 C 
ATOM      8  C   UNL     1      29.401  22.728  25.314  0.00  0.00    +0.000 C 
ATOM      9  C   UNL     1      28.038  23.076  24.858  0.00  0.00    +0.000 A 
ATOM     10  C   UNL     1      27.801  23.133  23.473  0.00  0.00    +0.000 A 
ATOM     11  C   UNL     1      26.569  23.447  22.958  0.00  0.00    +0.000 A 
ATOM     12  O   UNL     1      26.323  23.506  21.578  0.00  0.00    +0.000 OA
ATOM     13  C   UNL     1      25.573  23.705  23.868  0.00  0.00    +0.000 A 
ATOM     14  C   UNL     1      25.783  23.655  25.255  0.00  0.00    +0.000 A 
ATOM     15  C   UNL     1      27.027  23.338  25.742  0.00  0.00    +0.000 A 
ATOM     16  C   UNL     1      28.868  22.892  29.097  0.00  0.00    +0.000 C 
ATOM     17  C   UNL     1      29.995  22.749  29.762  0.00  0.00    +0.000 C 
ATOM     18  C   UNL     1      29.734  22.787  31.201  0.00  0.00    +0.000 C 
ATOM     19  C   UNL     1      28.409  23.803  31.232  0.00  0.00    +0.000 C 
ATOM     20  O   UNL     1      29.079  24.841  30.358  0.00  0.00    +0.000 OA
ENDROOT
TORSDOF 0
ENDMDL
MODEL 5
REMARK VINA RESULT:      -7.2     31.936     33.635
REMARK  Name = 
REMARK  0 active torsions:
REMARK  status: ('A' for Active; 'I' for Inactive)
REMARK                            x       y       z     vdW  Elec       q    Type
REMARK                         _______ _______ _______ _____ _____    ______ ____
ROOT
ATOM      1  C   UNL     1      37.103   4.741  36.899  0.00  0.00    +0.000 C 
ATOM      2  C   UNL     1      35.682   5.033  36.798  0.00  0.00    +0.000 C 
ATOM      3  C   UNL     1      34.780   4.362  37.815  0.00  0.00    +0.000 C 
ATOM      4  C   UNL     1      34.861   2.890  37.513  0.00  0.00    +0.000 C 
ATOM      5  C   UNL     1      34.326   2.661  36.116  0.00  0.00    +0.000 C 
ATOM      6  C   UNL     1      34.441   3.601  35.223  0.00  0.00    +0.000 C 
ATOM      7  C   UNL     1      33.930   3.405  33.850  0.00  0.00    +0.000 C 
ATOM      8  C   UNL     1      33.304   2.157  33.539  0.00  0.00    +0.000 C 
ATOM      9  C   UNL     1      33.208   1.133  34.601  0.00  0.00    +0.000 A 
ATOM     10  C   UNL     1      32.594  -0.091  34.282  0.00  0.00    +0.000 A 
ATOM     11  C   UNL     1      32.460  -1.100  35.202  0.00  0.00    +0.000 A 
ATOM     12  O   UNL     1      31.850  -2.324  34.894  0.00  0.00    +0.000 OA
ATOM     13  C   UNL     1      32.959  -0.852  36.459  0.00  0.00    +0.000 A 
ATOM     14  C   UNL     1      33.576   0.361  36.802  0.00  0.00    +0.000 A 
ATOM     15  C   UNL     1      33.696   1.352  35.860  0.00  0.00    +0.000 A 
ATOM     16  C   UNL     1      35.065   4.935  35.490  0.00  0.00    +0.000 C 
ATOM     17  C   UNL     1      35.155   6.049  34.793  0.00  0.00    +0.000 C 
ATOM     18  C   UNL     1      35.862   7.067  35.569  0.00  0.00    +0.000 C 
ATOM     19  C   UNL     1      35.420   6.617  37.115  0.00  0.00    +0.000 C 
ATOM     20  O   UNL     1      33.951   6.539  36.762  0.00  0.00    +0.000 OA
ENDROOT
TORSDOF 0
ENDMDL
MODEL 6
REMARK VINA RESULT:      -7.1     14.930     16.610
REMARK  Name = 
REMARK  0 active torsions:
REMARK  status: ('A' for Active; 'I' for Inactive)
REMARK                            x       y       z     vdW  Elec       q    Type
REMARK                         _______ _______ _______ _____ _____    ______ ____
ROOT
ATOM      1  C   UNL     1      28.365  26.711  23.396  0.00  0.00    +0.000 C 
ATOM      2  C   UNL     1      27.798  25.384  23.210  0.00  0.00    +0.000 C 
ATOM      3  C   UNL     1      26.366  25.191  23.670  0.00  0.00    +0.000 C 
ATOM      4  C   UNL     1      26.399  25.354  25.165  0.00  0.00    +0.000 C 
ATOM      5  C   UNL     1      27.279  24.268  25.743  0.00  0.00    +0.000 C 
ATOM      6  C   UNL     1      28.264  23.795  25.034  0.00  0.00    +0.000 C 
ATOM      7  C   UNL     1      29.141  22.735  25.573  0.00  0.00    +0.000 C 
ATOM      8  C   UNL     1      28.871  22.245  26.890  0.00  0.00    +0.000 C 
ATOM      9  C   UNL     1      27.738  22.827  27.640  0.00  0.00    +0.000 A 
ATOM     10  C   UNL     1      27.484  22.341  28.934  0.00  0.00    +0.000 A 
ATOM     11  C   UNL     1      26.456  22.822  29.704  0.00  0.00    +0.000 A 
ATOM     12  O   UNL     1      26.195  22.344  30.996  0.00  0.00    +0.000 OA
ATOM     13  C   UNL     1      25.680  23.808  29.143  0.00  0.00    +0.000 A 
ATOM     14  C   UNL     1      25.912  24.311  27.853  0.00  0.00    +0.000 A 
ATOM     15  C   UNL     1      26.950  23.810  27.106  0.00  0.00    +0.000 A 
ATOM     16  C   UNL     1      28.585  24.248  23.644  0.00  0.00    +0.000 C 
ATOM     17  C   UNL     1      29.422  23.818  22.723  0.00  0.00    +0.000 C 
ATOM     18  C   UNL     1      29.296  24.634  21.516  0.00  0.00    +0.000 C 
ATOM     19  C   UNL     1      27.683  25.053  21.611  0.00  0.00    +0.000 C 
ATOM     20  O   UNL     1      27.239  23.626  21.846  0.00  0.00    +0.000 OA
ENDROOT
TORSDOF 0
ENDMDL
MODEL 7
REMARK VINA RESULT:      -7.0     22.315     23.421
REMARK  Name = 
REMARK  0 active torsions:
REMARK  status: ('A' for Active; 'I' for Inactive)
REMARK                            x       y       z     vdW  Elec       q    Type
REMARK                         _______ _______ _______ _____ _____    ______ ____
ROOT
ATOM      1  C   UNL     1      19.121   9.124  41.990  0.00  0.00    +0.000 C 
ATOM      2  C   UNL     1      18.255   8.262  41.201  0.00  0.00    +0.000 C 
ATOM      3  C   UNL     1      18.614   8.101  39.737  0.00  0.00    +0.000 C 
ATOM      4  C   UNL     1      18.413   9.460  39.122  0.00  0.00    +0.000 C 
ATOM      5  C   UNL     1      16.953   9.832  39.259  0.00  0.00    +0.000 C 
ATOM      6  C   UNL     1      16.265   9.371  40.264  0.00  0.00    +0.000 C 
ATOM      7  C   UNL     1      14.838   9.720  40.424  0.00  0.00    +0.000 C 
ATOM      8  C   UNL     1      14.239  10.571  39.442  0.00  0.00    +0.000 C 
ATOM      9  C   UNL     1      15.079  11.059  38.328  0.00  0.00    +0.000 A 
ATOM     10  C   UNL     1      14.483  11.899  37.371  0.00  0.00    +0.000 A 
ATOM     11  C   UNL     1      15.183  12.401  36.304  0.00  0.00    +0.000 A 
ATOM     12  O   UNL     1      14.597  13.238  35.345  0.00  0.00    +0.000 OA
ATOM     13  C   UNL     1      16.506  12.039  36.216  0.00  0.00    +0.000 A 
ATOM     14  C   UNL     1      17.126  11.203  37.158  0.00  0.00    +0.000 A 
ATOM     15  C   UNL     1      16.399  10.716  38.216  0.00  0.00    +0.000 A 
ATOM     16  C   UNL     1      16.823   8.460  41.311  0.00  0.00    +0.000 C 
ATOM     17  C   UNL     1      16.284   7.783  42.304  0.00  0.00    +0.000 C 
ATOM     18  C   UNL     1      17.316   7.019  43.005  0.00  0.00    +0.000 C 
ATOM     19  C   UNL     1      18.368   6.721  41.743  0.00  0.00    +0.000 C 
ATOM     20  O   UNL     1      17.268   6.223  40.832  0.00  0.00    +0.000 OA
ENDROOT
TORSDOF 0
ENDMDL
MODEL 8
REMARK VINA RESULT:      -6.8     17.080     20.236
REMARK  Name = 
REMARK  0 active torsions:
REMARK  status: ('A' for Active; 'I' for Inactive)
REMARK                            x       y       z     vdW  Elec       q    Type
REMARK                         _______ _______ _______ _____ _____    ______ ____
ROOT
ATOM      1  C   UNL     1      32.430  24.333  30.812  0.00  0.00    +0.000 C 
ATOM      2  C   UNL     1      32.003  22.964  30.565  0.00  0.00    +0.000 C 
ATOM      3  C   UNL     1      32.682  22.242  29.417  0.00  0.00    +0.000 C 
ATOM      4  C   UNL     1      32.256  22.974  28.173  0.00  0.00    +0.000 C 
ATOM      5  C   UNL     1      30.753  22.857  28.043  0.00  0.00    +0.000 C 
ATOM      6  C   UNL     1      30.023  22.743  29.116  0.00  0.00    +0.000 C 
ATOM      7  C   UNL     1      28.553  22.629  29.020  0.00  0.00    +0.000 C 
ATOM      8  C   UNL     1      27.962  22.641  27.716  0.00  0.00    +0.000 C 
ATOM      9  C   UNL     1      28.850  22.773  26.542  0.00  0.00    +0.000 A 
ATOM     10  C   UNL     1      28.259  22.788  25.267  0.00  0.00    +0.000 A 
ATOM     11  C   UNL     1      29.002  22.907  24.120  0.00  0.00    +0.000 A 
ATOM     12  O   UNL     1      28.422  22.923  22.844  0.00  0.00    +0.000 OA
ATOM     13  C   UNL     1      30.363  23.012  24.281  0.00  0.00    +0.000 A 
ATOM     14  C   UNL     1      30.978  23.000  25.543  0.00  0.00    +0.000 A 
ATOM     15  C   UNL     1      30.208  22.879  26.673  0.00  0.00    +0.000 A 
ATOM     16  C   UNL     1      30.580  22.702  30.504  0.00  0.00    +0.000 C 
ATOM     17  C   UNL     1      30.050  22.459  31.685  0.00  0.00    +0.000 C 
ATOM     18  C   UNL     1      31.083  22.525  32.718  0.00  0.00    +0.000 C 
ATOM     19  C   UNL     1      32.410  22.021  31.839  0.00  0.00    +0.000 C 
ATOM     20  O   UNL     1      31.690  20.809  31.288  0.00  0.00    +0.000 OA
ENDROOT
TORSDOF 0
ENDMDL
MODEL 9
REMARK VINA RESULT:      -6.8     30.835     32.768
REMARK  Name = 
REMARK  0 active torsions:
REMARK  status: ('A' for Active; 'I' for Inactive)
REMARK                            x       y       z     vdW  Elec       q    Type
REMARK                         _______ _______ _______ _____ _____    ______ ____
ROOT
ATOM      1  C   UNL     1      19.305  -8.883  28.301  0.00  0.00    +0.000 C 
ATOM      2  C   UNL     1      19.021  -8.734  26.882  0.00  0.00    +0.000 C 
ATOM      3  C   UNL     1      19.500  -9.852  25.976  0.00  0.00    +0.000 C 
ATOM      4  C   UNL     1      21.003  -9.807  26.043  0.00  0.00    +0.000 C 
ATOM      5  C   UNL     1      21.463  -8.470  25.503  0.00  0.00    +0.000 C 
ATOM      6  C   UNL     1      20.690  -7.429  25.625  0.00  0.00    +0.000 C 
ATOM      7  C   UNL     1      21.114  -6.111  25.109  0.00  0.00    +0.000 C 
ATOM      8  C   UNL     1      22.391  -6.018  24.470  0.00  0.00    +0.000 C 
ATOM      9  C   UNL     1      23.217  -7.240  24.367  0.00  0.00    +0.000 A 
ATOM     10  C   UNL     1      24.472  -7.136  23.741  0.00  0.00    +0.000 A 
ATOM     11  C   UNL     1      25.307  -8.215  23.601  0.00  0.00    +0.000 A 
ATOM     12  O   UNL     1      26.560  -8.122  22.978  0.00  0.00    +0.000 OA
ATOM     13  C   UNL     1      24.852  -9.410  24.104  0.00  0.00    +0.000 A 
ATOM     14  C   UNL     1      23.604  -9.541  24.733  0.00  0.00    +0.000 A 
ATOM     15  C   UNL     1      22.790  -8.442  24.860  0.00  0.00    +0.000 A 
ATOM     16  C   UNL     1      19.336  -7.463  26.261  0.00  0.00    +0.000 C 
ATOM     17  C   UNL     1      18.360  -6.585  26.360  0.00  0.00    +0.000 C 
ATOM     18  C   UNL     1      17.230  -7.175  27.078  0.00  0.00    +0.000 C 
ATOM     19  C   UNL     1      17.404  -8.775  26.635  0.00  0.00    +0.000 C 
ATOM     20  O   UNL     1      17.528  -8.442  25.165  0.00  0.00    +0.000 OA
ENDROOT
TORSDOF 0
ENDMDL
MODEL 10
REMARK VINA RESULT:      -6.6     15.750     19.195
REMARK  Name = 
REMARK  0 active torsions:
REMARK  status: ('A' for Active; 'I' for Inactive)
REMARK                            x       y       z     vdW  Elec       q    Type
REMARK                         _______ _______ _______ _____ _____    ______ ____
ROOT
ATOM      1  C   UNL     1      31.975  21.872  28.607  0.00  0.00    +0.000 C 
ATOM      2  C   UNL     1      31.664  23.253  28.274  0.00  0.00    +0.000 C 
ATOM      3  C   UNL     1      30.284  23.747  28.661  0.00  0.00    +0.000 C 
ATOM      4  C   UNL     1      29.323  22.956  27.815  0.00  0.00    +0.000 C 
ATOM      5  C   UNL     1      29.597  23.271  26.361  0.00  0.00    +0.000 C 
ATOM      6  C   UNL     1      30.802  23.599  25.993  0.00  0.00    +0.000 C 
ATOM      7  C   UNL     1      31.100  23.911  24.579  0.00  0.00    +0.000 C 
ATOM      8  C   UNL     1      30.026  23.846  23.636  0.00  0.00    +0.000 C 
ATOM      9  C   UNL     1      28.683  23.466  24.123  0.00  0.00    +0.000 A 
ATOM     10  C   UNL     1      27.636  23.401  23.187  0.00  0.00    +0.000 A 
ATOM     11  C   UNL     1      26.358  23.057  23.547  0.00  0.00    +0.000 A 
ATOM     12  O   UNL     1      25.307  22.990  22.621  0.00  0.00    +0.000 OA
ATOM     13  C   UNL     1      26.151  22.778  24.877  0.00  0.00    +0.000 A 
ATOM     14  C   UNL     1      27.178  22.835  25.831  0.00  0.00    +0.000 A 
ATOM     15  C   UNL     1      28.448  23.182  25.441  0.00  0.00    +0.000 A 
ATOM     16  C   UNL     1      31.963  23.707  26.931  0.00  0.00    +0.000 C 
ATOM     17  C   UNL     1      33.197  24.146  26.798  0.00  0.00    +0.000 C 
ATOM     18  C   UNL     1      33.904  24.043  28.074  0.00  0.00    +0.000 C 
ATOM     19  C   UNL     1      32.630  24.258  29.133  0.00  0.00    +0.000 C 
ATOM     20  O   UNL     1      32.134  25.495  28.416  0.00  0.00    +0.000 OA
ENDROOT
TORSDOF 0
ENDMDL
