MODEL 1
REMARK VINA RESULT:      -7.3      0.000      0.000
REMARK  Name = 
REMARK  3 active torsions:
REMARK  status: ('A' for Active; 'I' for Inactive)
REMARK    1  A    between atoms: C_8  and  C_9
REMARK    2  A    between atoms: C_10  and  C_11
REMARK    3  A    between atoms: C_14  and  N_15
REMARK                            x       y       z     vdW  Elec       q    Type
REMARK                         _______ _______ _______ _____ _____    ______ ____
ROOT
ATOM      1  C   UNL     1      16.680  10.722  36.435  0.00  0.00    +0.000 A 
ATOM      2  C   UNL     1      16.377  10.784  37.774  0.00  0.00    +0.000 A 
ATOM      3  C   UNL     1      17.120  10.047  38.703  0.00  0.00    +0.000 A 
ATOM      4  C   UNL     1      18.172   9.246  38.286  0.00  0.00    +0.000 A 
ATOM      5  C   UNL     1      18.479   9.182  36.941  0.00  0.00    +0.000 A 
ATOM      6  C   UNL     1      17.727   9.920  36.050  0.00  0.00    +0.000 A 
ENDROOT
BRANCH   4   7
ATOM      7  N   UNL     1      18.923   8.500  39.238  0.00  0.00    +0.000 N 
ATOM      8  C   UNL     1      20.132   8.855  39.670  0.00  0.00    +0.000 A 
ATOM      9  C   UNL     1      20.557   7.901  40.586  0.00  0.00    +0.000 A 
ATOM     10  N   UNL     1      19.575   6.974  40.691  0.00  0.00    +0.000 NA
ATOM     11  C   UNL     1      18.589   7.364  39.857  0.00  0.00    +0.000 A 
ENDBRANCH   4   7
BRANCH   1  13
ATOM     12  C   UNL     1      16.170  11.408  34.149  0.00  0.00    +0.000 C 
ATOM     13  C   UNL     1      15.951  11.458  35.423  0.00  0.00    +0.000 C 
BRANCH  12  21
ATOM     14  C   UNL     1      14.432  11.088  31.237  0.00  0.00    +0.000 C 
ATOM     15  C   UNL     1      15.837  11.884  31.639  0.00  0.00    +0.000 C 
ATOM     16  C   UNL     1      15.410  13.327  31.014  0.00  0.00    +0.000 C 
ATOM     17  C   UNL     1      14.022  13.584  31.253  0.00  0.00    +0.000 C 
ATOM     18  O   UNL     1      13.174  13.636  30.346  0.00  0.00    +0.000 OA
ATOM     19  N   UNL     1      13.689  13.779  32.650  0.00  0.00    +0.000 NA
ATOM     20  N   UNL     1      14.506  12.974  33.467  0.00  0.00    +0.000 NA
ATOM     21  C   UNL     1      15.398  12.180  33.148  0.00  0.00    +0.000 C 
ENDBRANCH  12  21
ENDBRANCH   1  13
TORSDOF 3
ENDMDL
MODEL 2
REMARK VINA RESULT:      -7.2      3.467      8.938
REMARK  Name = 
REMARK  3 active torsions:
REMARK  status: ('A' for Active; 'I' for Inactive)
REMARK    1  A    between atoms: C_8  and  C_9
REMARK    2  A    between atoms: C_10  and  C_11
REMARK    3  A    between atoms: C_14  and  N_15
REMARK                            x       y       z     vdW  Elec       q    Type
REMARK                         _______ _______ _______ _____ _____    ______ ____
ROOT
ATOM      1  C   UNL     1      16.739  10.584  35.625  0.00  0.00    +0.000 A 
ATOM      2  C   UNL     1      17.166  10.268  34.358  0.00  0.00    +0.000 A 
ATOM      3  C   UNL     1      16.579  10.873  33.241  0.00  0.00    +0.000 A 
ATOM      4  C   UNL     1      15.561  11.802  33.399  0.00  0.00    +0.000 A 
ATOM      5  C   UNL     1      15.131  12.122  34.671  0.00  0.00    +0.000 A 
ATOM      6  C   UNL     1      15.730  11.506  35.752  0.00  0.00    +0.000 A 
ENDROOT
BRANCH   4   7
ATOM      7  N   UNL     1      14.970  12.413  32.257  0.00  0.00    +0.000 N 
ATOM      8  C   UNL     1      14.076  13.399  32.325  0.00  0.00    +0.000 A 
ATOM      9  C   UNL     1      13.722  13.745  31.027  0.00  0.00    +0.000 A 
ATOM     10  N   UNL     1      14.422  12.945  30.188  0.00  0.00    +0.000 NA
ATOM     11  C   UNL     1      15.176  12.140  30.966  0.00  0.00    +0.000 A 
ENDBRANCH   4   7
BRANCH   1  13
ATOM     12  C   UNL     1      16.993  10.309  38.038  0.00  0.00    +0.000 C 
ATOM     13  C   UNL     1      17.304   9.994  36.821  0.00  0.00    +0.000 C 
BRANCH  12  21
ATOM     14  C   UNL     1      19.827  10.254  39.927  0.00  0.00    +0.000 C 
ATOM     15  C   UNL     1      19.073   9.114  38.978  0.00  0.00    +0.000 C 
ATOM     16  C   UNL     1      19.041   7.937  40.104  0.00  0.00    +0.000 C 
ATOM     17  C   UNL     1      18.767   8.489  41.397  0.00  0.00    +0.000 C 
ATOM     18  O   UNL     1      19.596   8.499  42.321  0.00  0.00    +0.000 OA
ATOM     19  N   UNL     1      17.432   9.039  41.533  0.00  0.00    +0.000 NA
ATOM     20  N   UNL     1      17.006   9.603  40.315  0.00  0.00    +0.000 NA
ATOM     21  C   UNL     1      17.598   9.678  39.233  0.00  0.00    +0.000 C 
ENDBRANCH  12  21
ENDBRANCH   1  13
TORSDOF 3
ENDMDL
MODEL 3
REMARK VINA RESULT:      -6.6     29.255     31.226
REMARK  Name = 
REMARK  3 active torsions:
REMARK  status: ('A' for Active; 'I' for Inactive)
REMARK    1  A    between atoms: C_8  and  C_9
REMARK    2  A    between atoms: C_10  and  C_11
REMARK    3  A    between atoms: C_14  and  N_15
REMARK                            x       y       z     vdW  Elec       q    Type
REMARK                         _______ _______ _______ _____ _____    ______ ____
ROOT
ATOM      1  C   UNL     1      31.920  21.011  11.553  0.00  0.00    +0.000 A 
ATOM      2  C   UNL     1      31.571  21.921  12.522  0.00  0.00    +0.000 A 
ATOM      3  C   UNL     1      30.276  22.452  12.561  0.00  0.00    +0.000 A 
ATOM      4  C   UNL     1      29.329  22.064  11.625  0.00  0.00    +0.000 A 
ATOM      5  C   UNL     1      29.678  21.149  10.651  0.00  0.00    +0.000 A 
ATOM      6  C   UNL     1      30.963  20.646  10.639  0.00  0.00    +0.000 A 
ENDROOT
BRANCH   4   7
ATOM      7  N   UNL     1      28.015  22.609  11.673  0.00  0.00    +0.000 N 
ATOM      8  C   UNL     1      27.694  23.711  12.349  0.00  0.00    +0.000 A 
ATOM      9  C   UNL     1      26.336  23.943  12.170  0.00  0.00    +0.000 A 
ATOM     10  N   UNL     1      25.857  22.957  11.375  0.00  0.00    +0.000 NA
ATOM     11  C   UNL     1      26.903  22.155  11.086  0.00  0.00    +0.000 A 
ENDBRANCH   4   7
BRANCH   1  13
ATOM     12  C   UNL     1      34.057  20.239  12.445  0.00  0.00    +0.000 C 
ATOM     13  C   UNL     1      33.241  20.425  11.458  0.00  0.00    +0.000 C 
BRANCH  12  21
ATOM     14  C   UNL     1      36.284  18.187  14.006  0.00  0.00    +0.000 C 
ATOM     15  C   UNL     1      36.317  19.802  13.602  0.00  0.00    +0.000 C 
ATOM     16  C   UNL     1      37.759  19.767  12.845  0.00  0.00    +0.000 C 
ATOM     17  C   UNL     1      37.902  18.555  12.096  0.00  0.00    +0.000 C 
ATOM     18  O   UNL     1      38.727  17.671  12.383  0.00  0.00    +0.000 OA
ATOM     19  N   UNL     1      36.996  18.446  10.970  0.00  0.00    +0.000 NA
ATOM     20  N   UNL     1      35.765  19.063  11.268  0.00  0.00    +0.000 NA
ATOM     21  C   UNL     1      35.402  19.635  12.301  0.00  0.00    +0.000 C 
ENDBRANCH  12  21
ENDBRANCH   1  13
TORSDOF 3
ENDMDL
MODEL 4
REMARK VINA RESULT:      -6.6     17.935     20.265
REMARK  Name = 
REMARK  3 active torsions:
REMARK  status: ('A' for Active; 'I' for Inactive)
REMARK    1  A    between atoms: C_8  and  C_9
REMARK    2  A    between atoms: C_10  and  C_11
REMARK    3  A    between atoms: C_14  and  N_15
REMARK                            x       y       z     vdW  Elec       q    Type
REMARK                         _______ _______ _______ _____ _____    ______ ____
ROOT
ATOM      1  C   UNL     1      33.294   0.132  34.447  0.00  0.00    +0.000 A 
ATOM      2  C   UNL     1      33.986  -0.633  33.540  0.00  0.00    +0.000 A 
ATOM      3  C   UNL     1      33.749  -2.008  33.445  0.00  0.00    +0.000 A 
ATOM      4  C   UNL     1      32.810  -2.617  34.264  0.00  0.00    +0.000 A 
ATOM      5  C   UNL     1      32.112  -1.851  35.176  0.00  0.00    +0.000 A 
ATOM      6  C   UNL     1      32.371  -0.497  35.246  0.00  0.00    +0.000 A 
ENDROOT
BRANCH   4   7
ATOM      7  N   UNL     1      32.574  -4.018  34.161  0.00  0.00    +0.000 N 
ATOM      8  C   UNL     1      31.823  -4.707  35.018  0.00  0.00    +0.000 A 
ATOM      9  C   UNL     1      31.816  -6.035  34.610  0.00  0.00    +0.000 A 
ATOM     10  N   UNL     1      32.578  -6.120  33.493  0.00  0.00    +0.000 NA
ATOM     11  C   UNL     1      33.029  -4.873  33.241  0.00  0.00    +0.000 A 
ENDBRANCH   4   7
BRANCH   1  13
ATOM     12  C   UNL     1      33.851   2.162  35.683  0.00  0.00    +0.000 C 
ATOM     13  C   UNL     1      33.493   1.559  34.595  0.00  0.00    +0.000 C 
BRANCH  12  21
ATOM     14  C   UNL     1      32.850   5.127  34.336  0.00  0.00    +0.000 C 
ATOM     15  C   UNL     1      34.315   4.337  34.382  0.00  0.00    +0.000 C 
ATOM     16  C   UNL     1      35.179   5.596  34.950  0.00  0.00    +0.000 C 
ATOM     17  C   UNL     1      34.418   6.329  35.916  0.00  0.00    +0.000 C 
ATOM     18  O   UNL     1      34.016   7.489  35.726  0.00  0.00    +0.000 OA
ATOM     19  N   UNL     1      34.157   5.598  37.141  0.00  0.00    +0.000 NA
ATOM     20  N   UNL     1      33.995   4.226  36.869  0.00  0.00    +0.000 NA
ATOM     21  C   UNL     1      34.043   3.627  35.789  0.00  0.00    +0.000 C 
ENDBRANCH  12  21
ENDBRANCH   1  13
TORSDOF 3
ENDMDL
MODEL 5
REMARK VINA RESULT:      -6.5     18.030     20.546
REMARK  Name = 
REMARK  3 active torsions:
REMARK  status: ('A' for Active; 'I' for Inactive)
REMARK    1  A    between atoms: C_8  and  C_9
REMARK    2  A    between atoms: C_10  and  C_11
REMARK    3  A    between atoms: C_14  and  N_15
REMARK                            x       y       z     vdW  Elec       q    Type
REMARK                         _______ _______ _______ _____ _____    ______ ____
ROOT
ATOM      1  C   UNL     1      24.112  26.063  25.855  0.00  0.00    +0.000 A 
ATOM      2  C   UNL     1      22.801  26.384  25.599  0.00  0.00    +0.000 A 
ATOM      3  C   UNL     1      21.898  26.565  26.653  0.00  0.00    +0.000 A 
ATOM      4  C   UNL     1      22.315  26.426  27.968  0.00  0.00    +0.000 A 
ATOM      5  C   UNL     1      23.632  26.104  28.228  0.00  0.00    +0.000 A 
ATOM      6  C   UNL     1      24.498  25.930  27.166  0.00  0.00    +0.000 A 
ENDROOT
BRANCH   4   7
ATOM      7  N   UNL     1      21.390  26.613  29.033  0.00  0.00    +0.000 N 
ATOM      8  C   UNL     1      21.665  27.302  30.140  0.00  0.00    +0.000 A 
ATOM      9  C   UNL     1      20.537  27.276  30.952  0.00  0.00    +0.000 A 
ATOM     10  N   UNL     1      19.588  26.558  30.305  0.00  0.00    +0.000 NA
ATOM     11  C   UNL     1      20.135  26.165  29.136  0.00  0.00    +0.000 A 
ENDBRANCH   4   7
BRANCH   1  13
ATOM     12  C   UNL     1      25.732  24.758  24.576  0.00  0.00    +0.000 C 
ATOM     13  C   UNL     1      25.096  25.861  24.811  0.00  0.00    +0.000 C 
BRANCH  12  21
ATOM     14  C   UNL     1      28.890  25.645  23.657  0.00  0.00    +0.000 C 
ATOM     15  C   UNL     1      27.387  25.978  23.024  0.00  0.00    +0.000 C 
ATOM     16  C   UNL     1      27.734  25.529  21.496  0.00  0.00    +0.000 C 
ATOM     17  C   UNL     1      28.576  24.371  21.494  0.00  0.00    +0.000 C 
ATOM     18  O   UNL     1      29.754  24.388  21.099  0.00  0.00    +0.000 OA
ATOM     19  N   UNL     1      27.933  23.172  21.995  0.00  0.00    +0.000 NA
ATOM     20  N   UNL     1      27.018  23.495  23.016  0.00  0.00    +0.000 NA
ATOM     21  C   UNL     1      26.732  24.597  23.495  0.00  0.00    +0.000 C 
ENDBRANCH  12  21
ENDBRANCH   1  13
TORSDOF 3
ENDMDL
MODEL 6
REMARK VINA RESULT:      -6.5     22.627     23.886
REMARK  Name = 
REMARK  3 active torsions:
REMARK  status: ('A' for Active; 'I' for Inactive)
REMARK    1  A    between atoms: C_8  and  C_9
REMARK    2  A    between atoms: C_10  and  C_11
REMARK    3  A    between atoms: C_14  and  N_15
REMARK                            x       y       z     vdW  Elec       q    Type
REMARK                         _______ _______ _______ _____ _____    ______ ____
ROOT
ATOM      1  C   UNL     1      23.388  -7.889  24.451  0.00  0.00    +0.000 A 
ATOM      2  C   UNL     1      22.565  -8.796  25.074  0.00  0.00    +0.000 A 
ATOM      3  C   UNL     1      21.322  -8.396  25.578  0.00  0.00    +0.000 A 
ATOM      4  C   UNL     1      20.904  -7.080  25.452  0.00  0.00    +0.000 A 
ATOM      5  C   UNL     1      21.728  -6.166  24.826  0.00  0.00    +0.000 A 
ATOM      6  C   UNL     1      22.949  -6.593  24.341  0.00  0.00    +0.000 A 
ENDROOT
BRANCH   4   7
ATOM      7  N   UNL     1      19.638  -6.681  25.967  0.00  0.00    +0.000 N 
ATOM      8  C   UNL     1      18.669  -7.536  26.293  0.00  0.00    +0.000 A 
ATOM      9  C   UNL     1      17.586  -6.799  26.756  0.00  0.00    +0.000 A 
ATOM     10  N   UNL     1      17.932  -5.490  26.699  0.00  0.00    +0.000 NA
ATOM     11  C   UNL     1      19.190  -5.447  26.213  0.00  0.00    +0.000 A 
ENDBRANCH   4   7
BRANCH   1  13
ATOM     12  C   UNL     1      25.504  -7.424  23.326  0.00  0.00    +0.000 C 
ATOM     13  C   UNL     1      24.685  -8.239  23.909  0.00  0.00    +0.000 C 
BRANCH  12  21
ATOM     14  C   UNL     1      27.034  -9.779  21.399  0.00  0.00    +0.000 C 
ATOM     15  C   UNL     1      27.156  -9.374  23.009  0.00  0.00    +0.000 C 
ATOM     16  C   UNL     1      28.779  -9.233  23.035  0.00  0.00    +0.000 C 
ATOM     17  C   UNL     1      29.249  -8.631  21.823  0.00  0.00    +0.000 C 
ATOM     18  O   UNL     1      29.933  -9.238  20.983  0.00  0.00    +0.000 OA
ATOM     19  N   UNL     1      28.853  -7.246  21.661  0.00  0.00    +0.000 NA
ATOM     20  N   UNL     1      27.580  -7.029  22.222  0.00  0.00    +0.000 NA
ATOM     21  C   UNL     1      26.823  -7.826  22.786  0.00  0.00    +0.000 C 
ENDBRANCH  12  21
ENDBRANCH   1  13
TORSDOF 3
ENDMDL
MODEL 7
REMARK VINA RESULT:      -6.4      4.732      9.459
REMARK  Name = 
REMARK  3 active torsions:
REMARK  status: ('A' for Active; 'I' for Inactive)
REMARK    1  A    between atoms: C_8  and  C_9
REMARK    2  A    between atoms: C_10  and  C_11
REMARK    3  A    between atoms: C_14  and  N_15
REMARK                            x       y       z     vdW  Elec       q    Type
REMARK                         _______ _______ _______ _____ _____    ______ ____
ROOT
ATOM      1  C   UNL     1      16.609  10.183  38.770  0.00  0.00    +0.000 A 
ATOM      2  C   UNL     1      15.473  10.865  38.405  0.00  0.00    +0.000 A 
ATOM      3  C   UNL     1      15.272  11.245  37.074  0.00  0.00    +0.000 A 
ATOM      4  C   UNL     1      16.215  10.938  36.104  0.00  0.00    +0.000 A 
ATOM      5  C   UNL     1      17.357  10.252  36.468  0.00  0.00    +0.000 A 
ATOM      6  C   UNL     1      17.526   9.892  37.790  0.00  0.00    +0.000 A 
ENDROOT
BRANCH   4   7
ATOM      7  N   UNL     1      16.003  11.328  34.752  0.00  0.00    +0.000 N 
ATOM      8  C   UNL     1      16.808  10.986  33.747  0.00  0.00    +0.000 A 
ATOM      9  C   UNL     1      16.295  11.538  32.580  0.00  0.00    +0.000 A 
ATOM     10  N   UNL     1      15.169  12.215  32.912  0.00  0.00    +0.000 NA
ATOM     11  C   UNL     1      15.014  12.071  34.245  0.00  0.00    +0.000 A 
ENDBRANCH   4   7
BRANCH   1  13
ATOM     12  C   UNL     1      16.010   9.257  40.947  0.00  0.00    +0.000 C 
ATOM     13  C   UNL     1      16.877   9.761  40.129  0.00  0.00    +0.000 C 
BRANCH  12  21
ATOM     14  C   UNL     1      16.223  10.418  44.143  0.00  0.00    +0.000 C 
ATOM     15  C   UNL     1      17.351   9.821  43.074  0.00  0.00    +0.000 C 
ATOM     16  C   UNL     1      17.993   8.720  44.088  0.00  0.00    +0.000 C 
ATOM     17  C   UNL     1      16.969   8.118  44.887  0.00  0.00    +0.000 C 
ATOM     18  O   UNL     1      16.878   8.284  46.115  0.00  0.00    +0.000 OA
ATOM     19  N   UNL     1      16.042   7.293  44.136  0.00  0.00    +0.000 NA
ATOM     20  N   UNL     1      15.844   7.826  42.848  0.00  0.00    +0.000 NA
ATOM     21  C   UNL     1      16.329   8.839  42.332  0.00  0.00    +0.000 C 
ENDBRANCH  12  21
ENDBRANCH   1  13
TORSDOF 3
ENDMDL
MODEL 8
REMARK VINA RESULT:      -6.4     19.059     22.482
REMARK  Name = 
REMARK  3 active torsions:
REMARK  status: ('A' for Active; 'I' for Inactive)
REMARK    1  A    between atoms: C_8  and  C_9
REMARK    2  A    between atoms: C_10  and  C_11
REMARK    3  A    between atoms: C_14  and  N_15
REMARK                            x       y       z     vdW  Elec       q    Type
REMARK                         _______ _______ _______ _____ _____    ______ ____
ROOT
ATOM      1  C   UNL     1      33.691  -1.514  34.167  0.00  0.00    +0.000 A 
ATOM      2  C   UNL     1      33.502  -0.938  35.401  0.00  0.00    +0.000 A 
ATOM      3  C   UNL     1      33.510   0.454  35.541  0.00  0.00    +0.000 A 
ATOM      4  C   UNL     1      33.705   1.271  34.437  0.00  0.00    +0.000 A 
ATOM      5  C   UNL     1      33.895   0.695  33.197  0.00  0.00    +0.000 A 
ATOM      6  C   UNL     1      33.883  -0.681  33.092  0.00  0.00    +0.000 A 
ENDROOT
BRANCH   4   7
ATOM      7  N   UNL     1      33.710   2.687  34.589  0.00  0.00    +0.000 N 
ATOM      8  C   UNL     1      33.379   3.537  33.618  0.00  0.00    +0.000 A 
ATOM      9  C   UNL     1      33.498   4.827  34.120  0.00  0.00    +0.000 A 
ATOM     10  N   UNL     1      33.906   4.726  35.407  0.00  0.00    +0.000 NA
ATOM     11  C   UNL     1      34.028   3.408  35.668  0.00  0.00    +0.000 A 
ENDBRANCH   4   7
BRANCH   1  13
ATOM     12  C   UNL     1      33.601  -3.540  32.808  0.00  0.00    +0.000 C 
ATOM     13  C   UNL     1      33.696  -2.946  33.955  0.00  0.00    +0.000 C 
BRANCH  12  21
ATOM     14  C   UNL     1      35.451  -6.107  31.549  0.00  0.00    +0.000 C 
ATOM     15  C   UNL     1      33.964  -5.477  31.149  0.00  0.00    +0.000 C 
ATOM     16  C   UNL     1      33.156  -6.892  31.179  0.00  0.00    +0.000 C 
ATOM     17  C   UNL     1      33.628  -7.714  32.252  0.00  0.00    +0.000 C 
ATOM     18  O   UNL     1      34.243  -8.778  32.073  0.00  0.00    +0.000 OA
ATOM     19  N   UNL     1      33.326  -7.195  33.572  0.00  0.00    +0.000 NA
ATOM     20  N   UNL     1      33.362  -5.787  33.566  0.00  0.00    +0.000 NA
ATOM     21  C   UNL     1      33.609  -5.011  32.638  0.00  0.00    +0.000 C 
ENDBRANCH  12  21
ENDBRANCH   1  13
TORSDOF 3
ENDMDL
MODEL 9
REMARK VINA RESULT:      -6.4     18.575     19.606
REMARK  Name = 
REMARK  3 active torsions:
REMARK  status: ('A' for Active; 'I' for Inactive)
REMARK    1  A    between atoms: C_8  and  C_9
REMARK    2  A    between atoms: C_10  and  C_11
REMARK    3  A    between atoms: C_14  and  N_15
REMARK                            x       y       z     vdW  Elec       q    Type
REMARK                         _______ _______ _______ _____ _____    ______ ____
ROOT
ATOM      1  C   UNL     1      33.913   4.190  34.917  0.00  0.00    +0.000 A 
ATOM      2  C   UNL     1      33.587   3.716  33.669  0.00  0.00    +0.000 A 
ATOM      3  C   UNL     1      33.428   2.342  33.452  0.00  0.00    +0.000 A 
ATOM      4  C   UNL     1      33.594   1.443  34.494  0.00  0.00    +0.000 A 
ATOM      5  C   UNL     1      33.921   1.917  35.749  0.00  0.00    +0.000 A 
ATOM      6  C   UNL     1      34.072   3.277  35.929  0.00  0.00    +0.000 A 
ENDROOT
BRANCH   4   7
ATOM      7  N   UNL     1      33.430   0.047  34.265  0.00  0.00    +0.000 N 
ATOM      8  C   UNL     1      32.590  -0.723  34.956  0.00  0.00    +0.000 A 
ATOM      9  C   UNL     1      32.693  -2.018  34.464  0.00  0.00    +0.000 A 
ATOM     10  N   UNL     1      33.611  -2.002  33.468  0.00  0.00    +0.000 NA
ATOM     11  C   UNL     1      34.045  -0.728  33.368  0.00  0.00    +0.000 A 
ENDBRANCH   4   7
BRANCH   1  13
ATOM     12  C   UNL     1      35.197   6.155  35.587  0.00  0.00    +0.000 C 
ATOM     13  C   UNL     1      34.092   5.598  35.206  0.00  0.00    +0.000 C 
BRANCH  12  21
ATOM     14  C   UNL     1      35.449   8.397  38.139  0.00  0.00    +0.000 C 
ATOM     15  C   UNL     1      34.297   8.136  36.967  0.00  0.00    +0.000 C 
ATOM     16  C   UNL     1      34.223   9.677  36.443  0.00  0.00    +0.000 C 
ATOM     17  C   UNL     1      35.528  10.267  36.437  0.00  0.00    +0.000 C 
ATOM     18  O   UNL     1      35.859  11.192  37.197  0.00  0.00    +0.000 OA
ATOM     19  N   UNL     1      36.433   9.688  35.463  0.00  0.00    +0.000 NA
ATOM     20  N   UNL     1      36.175   8.312  35.310  0.00  0.00    +0.000 NA
ATOM     21  C   UNL     1      35.335   7.602  35.873  0.00  0.00    +0.000 C 
ENDBRANCH  12  21
ENDBRANCH   1  13
TORSDOF 3
ENDMDL
MODEL 10
REMARK VINA RESULT:      -6.3     19.579     21.758
REMARK  Name = 
REMARK  3 active torsions:
REMARK  status: ('A' for Active; 'I' for Inactive)
REMARK    1  A    between atoms: C_8  and  C_9
REMARK    2  A    between atoms: C_10  and  C_11
REMARK    3  A    between atoms: C_14  and  N_15
REMARK                            x       y       z     vdW  Elec       q    Type
REMARK                         _______ _______ _______ _____ _____    ______ ____
ROOT
ATOM      1  C   UNL     1      30.515  22.419  27.099  0.00  0.00    +0.000 A 
ATOM      2  C   UNL     1      30.984  22.766  25.855  0.00  0.00    +0.000 A 
ATOM      3  C   UNL     1      30.093  23.006  24.804  0.00  0.00    +0.000 A 
ATOM      4  C   UNL     1      28.725  22.899  25.004  0.00  0.00    +0.000 A 
ATOM      5  C   UNL     1      28.251  22.552  26.253  0.00  0.00    +0.000 A 
ATOM      6  C   UNL     1      29.156  22.321  27.269  0.00  0.00    +0.000 A 
ENDROOT
BRANCH   4   7
ATOM      7  N   UNL     1      27.825  23.146  23.928  0.00  0.00    +0.000 N 
ATOM      8  C   UNL     1      26.499  23.155  24.059  0.00  0.00    +0.000 A 
ATOM      9  C   UNL     1      25.948  23.427  22.814  0.00  0.00    +0.000 A 
ATOM     10  N   UNL     1      26.972  23.580  21.941  0.00  0.00    +0.000 NA
ATOM     11  C   UNL     1      28.108  23.403  22.648  0.00  0.00    +0.000 A 
ENDBRANCH   4   7
BRANCH   1  13
ATOM     12  C   UNL     1      31.203  22.588  29.436  0.00  0.00    +0.000 C 
ATOM     13  C   UNL     1      31.384  22.158  28.228  0.00  0.00    +0.000 C 
BRANCH  12  21
ATOM     14  C   UNL     1      34.445  22.896  30.436  0.00  0.00    +0.000 C 
ATOM     15  C   UNL     1      33.477  21.582  30.108  0.00  0.00    +0.000 C 
ATOM     16  C   UNL     1      33.770  20.792  31.503  0.00  0.00    +0.000 C 
ATOM     17  C   UNL     1      33.850  21.716  32.593  0.00  0.00    +0.000 C 
ATOM     18  O   UNL     1      34.899  21.940  33.219  0.00  0.00    +0.000 OA
ATOM     19  N   UNL     1      32.595  22.372  32.905  0.00  0.00    +0.000 NA
ATOM     20  N   UNL     1      31.845  22.582  31.732  0.00  0.00    +0.000 NA
ATOM     21  C   UNL     1      32.120  22.296  30.561  0.00  0.00    +0.000 C 
ENDBRANCH  12  21
ENDBRANCH   1  13
TORSDOF 3
ENDMDL
