MODEL 1
REMARK VINA RESULT:      -7.3      0.000      0.000
REMARK  Name = 
REMARK  3 active torsions:
REMARK  status: ('A' for Active; 'I' for Inactive)
REMARK    1  A    between atoms: C_3  and  C_5
REMARK    2  A    between atoms: C_9  and  N_10
REMARK    3  A    between atoms: C_11  and  C_13
REMARK                            x       y       z     vdW  Elec       q    Type
REMARK                         _______ _______ _______ _____ _____    ______ ____
ROOT
ATOM      1  N   UNL     1      16.007  11.198  36.627  0.00  0.00    +0.000 NA
ATOM      2  C   UNL     1      15.049  12.009  36.223  0.00  0.00    +0.000 C 
ATOM      3  O   UNL     1      14.279  12.516  37.064  0.00  0.00    +0.000 OA
ENDROOT
BRANCH   2   4
ATOM      4  C   UNL     1      14.867  12.329  34.784  0.00  0.00    +0.000 A 
ATOM      5  C   UNL     1      14.086  13.410  34.455  0.00  0.00    +0.000 A 
ATOM      6  C   UNL     1      13.867  13.775  33.143  0.00  0.00    +0.000 A 
ATOM      7  C   UNL     1      14.463  13.012  32.136  0.00  0.00    +0.000 A 
ATOM      8  C   UNL     1      14.285  13.326  30.698  0.00  0.00    +0.000 C 
ATOM      9  C   UNL     1      15.255  11.917  32.448  0.00  0.00    +0.000 A 
ATOM     10  C   UNL     1      15.908  11.078  31.419  0.00  0.00    +0.000 C 
ATOM     11  C   UNL     1      15.440  11.598  33.773  0.00  0.00    +0.000 A 
ENDBRANCH   2   4
BRANCH   1  16
ATOM     12  C   UNL     1      17.869   9.934  37.871  0.00  0.00    +0.000 A 
ATOM     13  C   UNL     1      17.999   9.411  39.120  0.00  0.00    +0.000 A 
ATOM     14  C   UNL     1      17.006   9.508  39.999  0.00  0.00    +0.000 A 
ATOM     15  S   UNL     1      15.831  10.339  39.126  0.00  0.00    +0.000 S 
ATOM     16  C   UNL     1      16.682  10.545  37.598  0.00  0.00    +0.000 A 
BRANCH  12  19
ATOM     17  C   UNL     1      21.435   9.851  36.476  0.00  0.00    +0.000 C 
ATOM     18  N   UNL     1      20.307   9.950  37.393  0.00  0.00    +0.000 NA
ATOM     19  C   UNL     1      18.959   9.827  36.907  0.00  0.00    +0.000 C 
ATOM     20  O   UNL     1      18.847   9.640  35.700  0.00  0.00    +0.000 OA
ENDBRANCH  12  19
ENDBRANCH   1  16
TORSDOF 3
ENDMDL
MODEL 2
REMARK VINA RESULT:      -7.2      2.550      7.265
REMARK  Name = 
REMARK  3 active torsions:
REMARK  status: ('A' for Active; 'I' for Inactive)
REMARK    1  A    between atoms: C_3  and  C_5
REMARK    2  A    between atoms: C_9  and  N_10
REMARK    3  A    between atoms: C_11  and  C_13
REMARK                            x       y       z     vdW  Elec       q    Type
REMARK                         _______ _______ _______ _____ _____    ______ ____
ROOT
ATOM      1  N   UNL     1      16.270  11.127  34.068  0.00  0.00    +0.000 NA
ATOM      2  C   UNL     1      17.300  10.424  34.494  0.00  0.00    +0.000 C 
ATOM      3  O   UNL     1      18.095   9.938  33.664  0.00  0.00    +0.000 OA
ENDROOT
BRANCH   2   4
ATOM      4  C   UNL     1      17.531  10.198  35.943  0.00  0.00    +0.000 A 
ATOM      5  C   UNL     1      18.761   9.728  36.337  0.00  0.00    +0.000 A 
ATOM      6  C   UNL     1      19.056   9.491  37.663  0.00  0.00    +0.000 A 
ATOM      7  C   UNL     1      18.066   9.742  38.617  0.00  0.00    +0.000 A 
ATOM      8  C   UNL     1      18.291   9.518  40.065  0.00  0.00    +0.000 C 
ATOM      9  C   UNL     1      16.820  10.217  38.239  0.00  0.00    +0.000 A 
ATOM     10  C   UNL     1      15.739  10.498  39.210  0.00  0.00    +0.000 C 
ATOM     11  C   UNL     1      16.579  10.435  36.902  0.00  0.00    +0.000 A 
ENDBRANCH   2   4
BRANCH   1  16
ATOM     12  C   UNL     1      14.588  12.624  32.825  0.00  0.00    +0.000 A 
ATOM     13  C   UNL     1      14.175  12.730  31.533  0.00  0.00    +0.000 A 
ATOM     14  C   UNL     1      14.681  11.934  30.596  0.00  0.00    +0.000 A 
ATOM     15  S   UNL     1      15.764  10.989  31.471  0.00  0.00    +0.000 S 
ATOM     16  C   UNL     1      15.527  11.670  33.078  0.00  0.00    +0.000 A 
BRANCH  12  19
ATOM     17  C   UNL     1      12.731  15.576  34.412  0.00  0.00    +0.000 C 
ATOM     18  N   UNL     1      13.309  14.667  33.429  0.00  0.00    +0.000 NA
ATOM     19  C   UNL     1      14.032  13.498  33.853  0.00  0.00    +0.000 C 
ATOM     20  O   UNL     1      14.117  13.340  35.066  0.00  0.00    +0.000 OA
ENDBRANCH  12  19
ENDBRANCH   1  16
TORSDOF 3
ENDMDL
MODEL 3
REMARK VINA RESULT:      -7.0      1.775      2.654
REMARK  Name = 
REMARK  3 active torsions:
REMARK  status: ('A' for Active; 'I' for Inactive)
REMARK    1  A    between atoms: C_3  and  C_5
REMARK    2  A    between atoms: C_9  and  N_10
REMARK    3  A    between atoms: C_11  and  C_13
REMARK                            x       y       z     vdW  Elec       q    Type
REMARK                         _______ _______ _______ _____ _____    ______ ____
ROOT
ATOM      1  N   UNL     1      17.757  10.268  36.553  0.00  0.00    +0.000 NA
ATOM      2  C   UNL     1      17.413   9.872  35.344  0.00  0.00    +0.000 C 
ATOM      3  O   UNL     1      17.808   8.765  34.925  0.00  0.00    +0.000 OA
ENDROOT
BRANCH   2   4
ATOM      4  C   UNL     1      16.566  10.721  34.468  0.00  0.00    +0.000 A 
ATOM      5  C   UNL     1      16.658  10.544  33.108  0.00  0.00    +0.000 A 
ATOM      6  C   UNL     1      15.906  11.291  32.226  0.00  0.00    +0.000 A 
ATOM      7  C   UNL     1      15.032  12.248  32.748  0.00  0.00    +0.000 A 
ATOM      8  C   UNL     1      14.183  13.098  31.879  0.00  0.00    +0.000 C 
ATOM      9  C   UNL     1      14.924  12.441  34.116  0.00  0.00    +0.000 A 
ATOM     10  C   UNL     1      14.014  13.442  34.718  0.00  0.00    +0.000 C 
ATOM     11  C   UNL     1      15.698  11.669  34.951  0.00  0.00    +0.000 A 
ENDBRANCH   2   4
BRANCH   1  16
ATOM     12  C   UNL     1      19.631  10.005  38.294  0.00  0.00    +0.000 A 
ATOM     13  C   UNL     1      19.664   9.782  39.636  0.00  0.00    +0.000 A 
ATOM     14  C   UNL     1      18.536   9.650  40.327  0.00  0.00    +0.000 A 
ATOM     15  S   UNL     1      17.361   9.831  39.135  0.00  0.00    +0.000 S 
ATOM     16  C   UNL     1      18.393  10.080  37.731  0.00  0.00    +0.000 A 
BRANCH  12  19
ATOM     17  C   UNL     1      23.202  11.080  37.421  0.00  0.00    +0.000 C 
ATOM     18  N   UNL     1      21.942  10.903  38.131  0.00  0.00    +0.000 NA
ATOM     19  C   UNL     1      20.870  10.149  37.537  0.00  0.00    +0.000 C 
ATOM     20  O   UNL     1      21.101   9.687  36.426  0.00  0.00    +0.000 OA
ENDBRANCH  12  19
ENDBRANCH   1  16
TORSDOF 3
ENDMDL
MODEL 4
REMARK VINA RESULT:      -7.0      2.237      3.449
REMARK  Name = 
REMARK  3 active torsions:
REMARK  status: ('A' for Active; 'I' for Inactive)
REMARK    1  A    between atoms: C_3  and  C_5
REMARK    2  A    between atoms: C_9  and  N_10
REMARK    3  A    between atoms: C_11  and  C_13
REMARK                            x       y       z     vdW  Elec       q    Type
REMARK                         _______ _______ _______ _____ _____    ______ ____
ROOT
ATOM      1  N   UNL     1      17.846  10.177  36.757  0.00  0.00    +0.000 NA
ATOM      2  C   UNL     1      17.388   9.749  35.597  0.00  0.00    +0.000 C 
ATOM      3  O   UNL     1      17.653   8.588  35.223  0.00  0.00    +0.000 OA
ENDROOT
BRANCH   2   4
ATOM      4  C   UNL     1      16.565  10.625  34.724  0.00  0.00    +0.000 A 
ATOM      5  C   UNL     1      15.748  11.553  35.323  0.00  0.00    +0.000 A 
ATOM      6  C   UNL     1      14.952  12.403  34.585  0.00  0.00    +0.000 A 
ATOM      7  C   UNL     1      14.991  12.304  33.192  0.00  0.00    +0.000 A 
ATOM      8  C   UNL     1      14.172  13.174  32.315  0.00  0.00    +0.000 C 
ATOM      9  C   UNL     1      15.809  11.373  32.569  0.00  0.00    +0.000 A 
ATOM     10  C   UNL     1      15.885  11.228  31.098  0.00  0.00    +0.000 C 
ATOM     11  C   UNL     1      16.582  10.550  33.354  0.00  0.00    +0.000 A 
ENDBRANCH   2   4
BRANCH   1  16
ATOM     12  C   UNL     1      18.389   9.703  39.225  0.00  0.00    +0.000 A 
ATOM     13  C   UNL     1      19.534   9.645  39.958  0.00  0.00    +0.000 A 
ATOM     14  C   UNL     1      20.713   9.867  39.385  0.00  0.00    +0.000 A 
ATOM     15  S   UNL     1      20.286  10.168  37.785  0.00  0.00    +0.000 S 
ATOM     16  C   UNL     1      18.538   9.995  37.903  0.00  0.00    +0.000 A 
BRANCH  12  19
ATOM     17  C   UNL     1      15.733   8.108  41.477  0.00  0.00    +0.000 C 
ATOM     18  N   UNL     1      16.999   8.395  40.816  0.00  0.00    +0.000 NA
ATOM     19  C   UNL     1      17.095   9.460  39.855  0.00  0.00    +0.000 C 
ATOM     20  O   UNL     1      16.058  10.080  39.647  0.00  0.00    +0.000 OA
ENDBRANCH  12  19
ENDBRANCH   1  16
TORSDOF 3
ENDMDL
MODEL 5
REMARK VINA RESULT:      -6.9      2.254      7.077
REMARK  Name = 
REMARK  3 active torsions:
REMARK  status: ('A' for Active; 'I' for Inactive)
REMARK    1  A    between atoms: C_3  and  C_5
REMARK    2  A    between atoms: C_9  and  N_10
REMARK    3  A    between atoms: C_11  and  C_13
REMARK                            x       y       z     vdW  Elec       q    Type
REMARK                         _______ _______ _______ _____ _____    ______ ____
ROOT
ATOM      1  N   UNL     1      16.737  11.035  35.194  0.00  0.00    +0.000 NA
ATOM      2  C   UNL     1      16.726  10.733  36.477  0.00  0.00    +0.000 C 
ATOM      3  O   UNL     1      15.645  10.740  37.100  0.00  0.00    +0.000 OA
ENDROOT
BRANCH   2   4
ATOM      4  C   UNL     1      17.979  10.387  37.197  0.00  0.00    +0.000 A 
ATOM      5  C   UNL     1      17.916  10.210  38.558  0.00  0.00    +0.000 A 
ATOM      6  C   UNL     1      19.031   9.887  39.300  0.00  0.00    +0.000 A 
ATOM      7  C   UNL     1      20.251   9.739  38.633  0.00  0.00    +0.000 A 
ATOM      8  C   UNL     1      21.504   9.393  39.345  0.00  0.00    +0.000 C 
ATOM      9  C   UNL     1      20.334   9.914  37.260  0.00  0.00    +0.000 A 
ATOM     10  C   UNL     1      21.600   9.769  36.507  0.00  0.00    +0.000 C 
ATOM     11  C   UNL     1      19.189  10.236  36.569  0.00  0.00    +0.000 A 
ENDBRANCH   2   4
BRANCH   1  16
ATOM     12  C   UNL     1      15.136  12.205  33.557  0.00  0.00    +0.000 A 
ATOM     13  C   UNL     1      14.925  12.139  32.214  0.00  0.00    +0.000 A 
ATOM     14  C   UNL     1      15.648  11.319  31.457  0.00  0.00    +0.000 A 
ATOM     15  S   UNL     1      16.666  10.592  32.584  0.00  0.00    +0.000 S 
ATOM     16  C   UNL     1      16.112  11.393  34.050  0.00  0.00    +0.000 A 
BRANCH  12  19
ATOM     17  C   UNL     1      12.867  15.136  34.523  0.00  0.00    +0.000 C 
ATOM     18  N   UNL     1      13.675  14.206  33.745  0.00  0.00    +0.000 NA
ATOM     19  C   UNL     1      14.341  13.105  34.387  0.00  0.00    +0.000 C 
ATOM     20  O   UNL     1      14.178  13.021  35.599  0.00  0.00    +0.000 OA
ENDBRANCH  12  19
ENDBRANCH   1  16
TORSDOF 3
ENDMDL
MODEL 6
REMARK VINA RESULT:      -6.7      2.170      3.380
REMARK  Name = 
REMARK  3 active torsions:
REMARK  status: ('A' for Active; 'I' for Inactive)
REMARK    1  A    between atoms: C_3  and  C_5
REMARK    2  A    between atoms: C_9  and  N_10
REMARK    3  A    between atoms: C_11  and  C_13
REMARK                            x       y       z     vdW  Elec       q    Type
REMARK                         _______ _______ _______ _____ _____    ______ ____
ROOT
ATOM      1  N   UNL     1      17.017  11.116  37.504  0.00  0.00    +0.000 NA
ATOM      2  C   UNL     1      15.762  11.374  37.192  0.00  0.00    +0.000 C 
ATOM      3  O   UNL     1      14.873  11.230  38.056  0.00  0.00    +0.000 OA
ENDROOT
BRANCH   2   4
ATOM      4  C   UNL     1      15.386  11.832  35.830  0.00  0.00    +0.000 A 
ATOM      5  C   UNL     1      15.878  11.134  34.754  0.00  0.00    +0.000 A 
ATOM      6  C   UNL     1      15.577  11.493  33.457  0.00  0.00    +0.000 A 
ATOM      7  C   UNL     1      14.747  12.599  33.252  0.00  0.00    +0.000 A 
ATOM      8  C   UNL     1      14.368  13.060  31.896  0.00  0.00    +0.000 C 
ATOM      9  C   UNL     1      14.241  13.315  34.326  0.00  0.00    +0.000 A 
ATOM     10  C   UNL     1      13.359  14.493  34.162  0.00  0.00    +0.000 C 
ATOM     11  C   UNL     1      14.574  12.913  35.598  0.00  0.00    +0.000 A 
ENDBRANCH   2   4
BRANCH   1  16
ATOM     12  C   UNL     1      18.170   9.988  39.506  0.00  0.00    +0.000 A 
ATOM     13  C   UNL     1      19.445   9.957  39.983  0.00  0.00    +0.000 A 
ATOM     14  C   UNL     1      20.413  10.625  39.362  0.00  0.00    +0.000 A 
ATOM     15  S   UNL     1      19.594  11.333  38.074  0.00  0.00    +0.000 S 
ATOM     16  C   UNL     1      17.969  10.729  38.382  0.00  0.00    +0.000 A 
BRANCH  12  19
ATOM     17  C   UNL     1      16.351   7.124  41.286  0.00  0.00    +0.000 C 
ATOM     18  N   UNL     1      17.374   7.904  40.600  0.00  0.00    +0.000 NA
ATOM     19  C   UNL     1      17.108   9.256  40.189  0.00  0.00    +0.000 C 
ATOM     20  O   UNL     1      15.988   9.679  40.454  0.00  0.00    +0.000 OA
ENDBRANCH  12  19
ENDBRANCH   1  16
TORSDOF 3
ENDMDL
MODEL 7
REMARK VINA RESULT:      -6.6      3.295      8.124
REMARK  Name = 
REMARK  3 active torsions:
REMARK  status: ('A' for Active; 'I' for Inactive)
REMARK    1  A    between atoms: C_3  and  C_5
REMARK    2  A    between atoms: C_9  and  N_10
REMARK    3  A    between atoms: C_11  and  C_13
REMARK                            x       y       z     vdW  Elec       q    Type
REMARK                         _______ _______ _______ _____ _____    ______ ____
ROOT
ATOM      1  N   UNL     1      17.019   9.907  38.683  0.00  0.00    +0.000 NA
ATOM      2  C   UNL     1      18.060   9.313  39.230  0.00  0.00    +0.000 C 
ATOM      3  O   UNL     1      19.202   9.782  39.045  0.00  0.00    +0.000 OA
ENDROOT
BRANCH   2   4
ATOM      4  C   UNL     1      17.901   8.092  40.060  0.00  0.00    +0.000 A 
ATOM      5  C   UNL     1      16.918   8.084  41.019  0.00  0.00    +0.000 A 
ATOM      6  C   UNL     1      16.705   6.991  41.832  0.00  0.00    +0.000 A 
ATOM      7  C   UNL     1      17.521   5.869  41.660  0.00  0.00    +0.000 A 
ATOM      8  C   UNL     1      17.367   4.648  42.486  0.00  0.00    +0.000 C 
ATOM      9  C   UNL     1      18.518   5.858  40.697  0.00  0.00    +0.000 A 
ATOM     10  C   UNL     1      19.408   4.696  40.477  0.00  0.00    +0.000 C 
ATOM     11  C   UNL     1      18.687   6.976  39.914  0.00  0.00    +0.000 A 
ENDBRANCH   2   4
BRANCH   1  16
ATOM     12  C   UNL     1      15.275  11.468  37.617  0.00  0.00    +0.000 A 
ATOM     13  C   UNL     1      15.330  12.499  36.731  0.00  0.00    +0.000 A 
ATOM     14  C   UNL     1      16.494  12.890  36.222  0.00  0.00    +0.000 A 
ATOM     15  S   UNL     1      17.581  11.835  36.956  0.00  0.00    +0.000 S 
ATOM     16  C   UNL     1      16.465  10.886  37.932  0.00  0.00    +0.000 A 
BRANCH  12  19
ATOM     17  C   UNL     1      11.523  10.733  37.849  0.00  0.00    +0.000 C 
ATOM     18  N   UNL     1      12.826  11.147  37.345  0.00  0.00    +0.000 NA
ATOM     19  C   UNL     1      13.996  11.039  38.174  0.00  0.00    +0.000 C 
ATOM     20  O   UNL     1      13.808  10.587  39.299  0.00  0.00    +0.000 OA
ENDBRANCH  12  19
ENDBRANCH   1  16
TORSDOF 3
ENDMDL
MODEL 8
REMARK VINA RESULT:      -6.4     22.062     24.114
REMARK  Name = 
REMARK  3 active torsions:
REMARK  status: ('A' for Active; 'I' for Inactive)
REMARK    1  A    between atoms: C_3  and  C_5
REMARK    2  A    between atoms: C_9  and  N_10
REMARK    3  A    between atoms: C_11  and  C_13
REMARK                            x       y       z     vdW  Elec       q    Type
REMARK                         _______ _______ _______ _____ _____    ______ ____
ROOT
ATOM      1  N   UNL     1      28.953  25.731  22.365  0.00  0.00    +0.000 NA
ATOM      2  C   UNL     1      29.315  24.465  22.423  0.00  0.00    +0.000 C 
ATOM      3  O   UNL     1      29.394  23.801  21.370  0.00  0.00    +0.000 OA
ENDROOT
BRANCH   2   4
ATOM      4  C   UNL     1      29.629  23.813  23.720  0.00  0.00    +0.000 A 
ATOM      5  C   UNL     1      30.950  23.649  24.060  0.00  0.00    +0.000 A 
ATOM      6  C   UNL     1      31.326  23.053  25.245  0.00  0.00    +0.000 A 
ATOM      7  C   UNL     1      30.323  22.612  26.112  0.00  0.00    +0.000 A 
ATOM      8  C   UNL     1      30.630  21.960  27.407  0.00  0.00    +0.000 C 
ATOM      9  C   UNL     1      28.984  22.769  25.787  0.00  0.00    +0.000 A 
ATOM     10  C   UNL     1      27.885  22.319  26.670  0.00  0.00    +0.000 C 
ATOM     11  C   UNL     1      28.666  23.370  24.591  0.00  0.00    +0.000 A 
ENDBRANCH   2   4
BRANCH   1  16
ATOM     12  C   UNL     1      28.821  27.532  20.534  0.00  0.00    +0.000 A 
ATOM     13  C   UNL     1      28.074  28.653  20.347  0.00  0.00    +0.000 A 
ATOM     14  C   UNL     1      27.164  29.014  21.247  0.00  0.00    +0.000 A 
ATOM     15  S   UNL     1      27.303  27.803  22.407  0.00  0.00    +0.000 S 
ATOM     16  C   UNL     1      28.575  26.830  21.675  0.00  0.00    +0.000 A 
BRANCH  12  19
ATOM     17  C   UNL     1      31.651  27.829  17.969  0.00  0.00    +0.000 C 
ATOM     18  N   UNL     1      30.637  28.165  18.960  0.00  0.00    +0.000 NA
ATOM     19  C   UNL     1      29.820  27.136  19.546  0.00  0.00    +0.000 C 
ATOM     20  O   UNL     1      30.042  25.996  19.153  0.00  0.00    +0.000 OA
ENDBRANCH  12  19
ENDBRANCH   1  16
TORSDOF 3
ENDMDL
MODEL 9
REMARK VINA RESULT:      -6.2     21.795     23.611
REMARK  Name = 
REMARK  3 active torsions:
REMARK  status: ('A' for Active; 'I' for Inactive)
REMARK    1  A    between atoms: C_3  and  C_5
REMARK    2  A    between atoms: C_9  and  N_10
REMARK    3  A    between atoms: C_11  and  C_13
REMARK                            x       y       z     vdW  Elec       q    Type
REMARK                         _______ _______ _______ _____ _____    ______ ____
ROOT
ATOM      1  N   UNL     1      22.486  -8.032  23.493  0.00  0.00    +0.000 NA
ATOM      2  C   UNL     1      22.325  -7.299  24.576  0.00  0.00    +0.000 C 
ATOM      3  O   UNL     1      23.304  -6.695  25.060  0.00  0.00    +0.000 OA
ENDROOT
BRANCH   2   4
ATOM      4  C   UNL     1      20.999  -7.179  25.235  0.00  0.00    +0.000 A 
ATOM      5  C   UNL     1      20.291  -8.330  25.481  0.00  0.00    +0.000 A 
ATOM      6  C   UNL     1      19.054  -8.306  26.088  0.00  0.00    +0.000 A 
ATOM      7  C   UNL     1      18.521  -7.067  26.457  0.00  0.00    +0.000 A 
ATOM      8  C   UNL     1      17.199  -6.941  27.114  0.00  0.00    +0.000 C 
ATOM      9  C   UNL     1      19.221  -5.895  26.217  0.00  0.00    +0.000 A 
ATOM     10  C   UNL     1      18.701  -4.559  26.588  0.00  0.00    +0.000 C 
ATOM     11  C   UNL     1      20.451  -5.977  25.608  0.00  0.00    +0.000 A 
ENDBRANCH   2   4
BRANCH   1  16
ATOM     12  C   UNL     1      24.538  -8.851  22.177  0.00  0.00    +0.000 A 
ATOM     13  C   UNL     1      24.731  -9.376  20.937  0.00  0.00    +0.000 A 
ATOM     14  C   UNL     1      23.703  -9.560  20.115  0.00  0.00    +0.000 A 
ATOM     15  S   UNL     1      22.404  -9.008  21.032  0.00  0.00    +0.000 S 
ATOM     16  C   UNL     1      23.253  -8.538  22.502  0.00  0.00    +0.000 A 
BRANCH  12  19
ATOM     17  C   UNL     1      27.479  -9.670  24.491  0.00  0.00    +0.000 C 
ATOM     18  N   UNL     1      26.345  -9.811  23.587  0.00  0.00    +0.000 NA
ATOM     19  C   UNL     1      25.668  -8.648  23.079  0.00  0.00    +0.000 C 
ATOM     20  O   UNL     1      26.111  -7.570  23.458  0.00  0.00    +0.000 OA
ENDBRANCH  12  19
ENDBRANCH   1  16
TORSDOF 3
ENDMDL
MODEL 10
REMARK VINA RESULT:      -6.2     22.884     24.960
REMARK  Name = 
REMARK  3 active torsions:
REMARK  status: ('A' for Active; 'I' for Inactive)
REMARK    1  A    between atoms: C_3  and  C_5
REMARK    2  A    between atoms: C_9  and  N_10
REMARK    3  A    between atoms: C_11  and  C_13
REMARK                            x       y       z     vdW  Elec       q    Type
REMARK                         _______ _______ _______ _____ _____    ______ ____
ROOT
ATOM      1  N   UNL     1      29.115  26.696  21.364  0.00  0.00    +0.000 NA
ATOM      2  C   UNL     1      29.241  25.386  21.419  0.00  0.00    +0.000 C 
ATOM      3  O   UNL     1      29.729  24.775  20.446  0.00  0.00    +0.000 OA
ENDROOT
BRANCH   2   4
ATOM      4  C   UNL     1      28.811  24.620  22.617  0.00  0.00    +0.000 A 
ATOM      5  C   UNL     1      27.484  24.662  22.970  0.00  0.00    +0.000 A 
ATOM      6  C   UNL     1      27.003  23.980  24.068  0.00  0.00    +0.000 A 
ATOM      7  C   UNL     1      27.905  23.231  24.829  0.00  0.00    +0.000 A 
ATOM      8  C   UNL     1      27.482  22.465  26.025  0.00  0.00    +0.000 C 
ATOM      9  C   UNL     1      29.248  23.177  24.488  0.00  0.00    +0.000 A 
ATOM     10  C   UNL     1      30.242  22.399  25.261  0.00  0.00    +0.000 C 
ATOM     11  C   UNL     1      29.673  23.877  23.383  0.00  0.00    +0.000 A 
ENDBRANCH   2   4
BRANCH   1  16
ATOM     12  C   UNL     1      29.658  28.436  19.550  0.00  0.00    +0.000 A 
ATOM     13  C   UNL     1      29.570  29.792  19.468  0.00  0.00    +0.000 A 
ATOM     14  C   UNL     1      29.113  30.501  20.496  0.00  0.00    +0.000 A 
ATOM     15  S   UNL     1      28.780  29.310  21.637  0.00  0.00    +0.000 S 
ATOM     16  C   UNL     1      29.256  27.880  20.726  0.00  0.00    +0.000 A 
BRANCH  12  19
ATOM     17  C   UNL     1      29.898  26.977  16.016  0.00  0.00    +0.000 C 
ATOM     18  N   UNL     1      29.443  27.732  17.177  0.00  0.00    +0.000 NA
ATOM     19  C   UNL     1      30.160  27.658  18.421  0.00  0.00    +0.000 C 
ATOM     20  O   UNL     1      31.148  26.933  18.421  0.00  0.00    +0.000 OA
ENDBRANCH  12  19
ENDBRANCH   1  16
TORSDOF 3
ENDMDL
