MODEL 1
REMARK VINA RESULT:      -9.0      0.000      0.000
REMARK  Name = 
REMARK  1 active torsions:
REMARK  status: ('A' for Active; 'I' for Inactive)
REMARK    1  A    between atoms: C_4  and  C_5
REMARK                            x       y       z     vdW  Elec       q    Type
REMARK                         _______ _______ _______ _____ _____    ______ ____
ROOT
ATOM      1  C   UNL     1      15.300  11.700  36.084  0.00  0.00    +0.000 A 
ATOM      2  C   UNL     1      14.359  11.529  37.082  0.00  0.00    +0.000 A 
ATOM      3  C   UNL     1      14.718  10.932  38.244  0.00  0.00    +0.000 A 
ATOM      4  C   UNL     1      13.741  10.719  39.362  0.00  0.00    +0.000 C 
ATOM      5  C   UNL     1      16.011  10.497  38.435  0.00  0.00    +0.000 A 
ATOM      6  C   UNL     1      16.425   9.887  39.594  0.00  0.00    +0.000 A 
ATOM      7  O   UNL     1      15.492   9.711  40.597  0.00  0.00    +0.000 OA
ATOM      8  C   UNL     1      17.727   9.457  39.768  0.00  0.00    +0.000 A 
ATOM      9  C   UNL     1      18.627   9.659  38.724  0.00  0.00    +0.000 A 
ATOM     10  O   UNL     1      19.922   9.211  38.942  0.00  0.00    +0.000 OA
ATOM     11  C   UNL     1      18.192  10.265  37.588  0.00  0.00    +0.000 A 
ATOM     12  C   UNL     1      16.902  10.706  37.379  0.00  0.00    +0.000 A 
ATOM     13  O   UNL     1      16.524  11.287  36.267  0.00  0.00    +0.000 OA
ENDROOT
BRANCH   1  17
ATOM     14  C   UNL     1      15.115  11.842  31.105  0.00  0.00    +0.000 C 
ATOM     15  C   UNL     1      14.777  12.414  32.448  0.00  0.00    +0.000 A 
ATOM     16  C   UNL     1      15.185  11.807  33.619  0.00  0.00    +0.000 A 
ATOM     17  C   UNL     1      14.863  12.348  34.849  0.00  0.00    +0.000 A 
ATOM     18  C   UNL     1      14.124  13.510  34.863  0.00  0.00    +0.000 A 
ATOM     19  C   UNL     1      13.713  14.121  33.689  0.00  0.00    +0.000 A 
ATOM     20  C   UNL     1      12.916  15.374  33.730  0.00  0.00    +0.000 C 
ATOM     21  C   UNL     1      14.031  13.586  32.475  0.00  0.00    +0.000 A 
ATOM     22  O   UNL     1      13.639  14.166  31.263  0.00  0.00    +0.000 OA
ENDBRANCH   1  17
TORSDOF 1
ENDMDL
MODEL 2
REMARK VINA RESULT:      -8.9      0.890      2.520
REMARK  Name = 
REMARK  1 active torsions:
REMARK  status: ('A' for Active; 'I' for Inactive)
REMARK    1  A    between atoms: C_4  and  C_5
REMARK                            x       y       z     vdW  Elec       q    Type
REMARK                         _______ _______ _______ _____ _____    ______ ____
ROOT
ATOM      1  C   UNL     1      15.987  11.410  35.776  0.00  0.00    +0.000 A 
ATOM      2  C   UNL     1      17.252  10.918  35.516  0.00  0.00    +0.000 A 
ATOM      3  C   UNL     1      17.927  10.260  36.489  0.00  0.00    +0.000 A 
ATOM      4  C   UNL     1      19.302   9.704  36.266  0.00  0.00    +0.000 C 
ATOM      5  C   UNL     1      17.359  10.079  37.731  0.00  0.00    +0.000 A 
ATOM      6  C   UNL     1      18.002   9.418  38.751  0.00  0.00    +0.000 A 
ATOM      7  O   UNL     1      19.266   8.924  38.501  0.00  0.00    +0.000 OA
ATOM      8  C   UNL     1      17.416   9.247  39.992  0.00  0.00    +0.000 A 
ATOM      9  C   UNL     1      16.140   9.767  40.190  0.00  0.00    +0.000 A 
ATOM     10  O   UNL     1      15.592   9.570  41.450  0.00  0.00    +0.000 OA
ATOM     11  C   UNL     1      15.526  10.415  39.165  0.00  0.00    +0.000 A 
ATOM     12  C   UNL     1      16.079  10.606  37.915  0.00  0.00    +0.000 A 
ATOM     13  O   UNL     1      15.452  11.238  36.954  0.00  0.00    +0.000 OA
ENDROOT
BRANCH   1  17
ATOM     14  C   UNL     1      14.926  11.912  30.932  0.00  0.00    +0.000 C 
ATOM     15  C   UNL     1      14.792  12.353  32.357  0.00  0.00    +0.000 A 
ATOM     16  C   UNL     1      15.437  11.693  33.385  0.00  0.00    +0.000 A 
ATOM     17  C   UNL     1      15.301  12.114  34.694  0.00  0.00    +0.000 A 
ATOM     18  C   UNL     1      14.502  13.210  34.935  0.00  0.00    +0.000 A 
ATOM     19  C   UNL     1      13.854  13.873  33.906  0.00  0.00    +0.000 A 
ATOM     20  C   UNL     1      12.997  15.053  34.190  0.00  0.00    +0.000 C 
ATOM     21  C   UNL     1      13.989  13.458  32.613  0.00  0.00    +0.000 A 
ATOM     22  O   UNL     1      13.354  14.094  31.541  0.00  0.00    +0.000 OA
ENDBRANCH   1  17
TORSDOF 1
ENDMDL
MODEL 3
REMARK VINA RESULT:      -8.9      0.913      3.097
REMARK  Name = 
REMARK  1 active torsions:
REMARK  status: ('A' for Active; 'I' for Inactive)
REMARK    1  A    between atoms: C_4  and  C_5
REMARK                            x       y       z     vdW  Elec       q    Type
REMARK                         _______ _______ _______ _____ _____    ______ ____
ROOT
ATOM      1  C   UNL     1      16.050  11.362  35.797  0.00  0.00    +0.000 A 
ATOM      2  C   UNL     1      17.316  10.869  35.541  0.00  0.00    +0.000 A 
ATOM      3  C   UNL     1      17.991  10.220  36.520  0.00  0.00    +0.000 A 
ATOM      4  C   UNL     1      19.366   9.663  36.302  0.00  0.00    +0.000 C 
ATOM      5  C   UNL     1      17.423  10.049  37.764  0.00  0.00    +0.000 A 
ATOM      6  C   UNL     1      18.065   9.397  38.789  0.00  0.00    +0.000 A 
ATOM      7  O   UNL     1      19.330   8.901  38.543  0.00  0.00    +0.000 OA
ATOM      8  C   UNL     1      17.479   9.236  40.031  0.00  0.00    +0.000 A 
ATOM      9  C   UNL     1      16.202   9.756  40.224  0.00  0.00    +0.000 A 
ATOM     10  O   UNL     1      15.654   9.570  41.485  0.00  0.00    +0.000 OA
ATOM     11  C   UNL     1      15.589  10.395  39.193  0.00  0.00    +0.000 A 
ATOM     12  C   UNL     1      16.142  10.576  37.943  0.00  0.00    +0.000 A 
ATOM     13  O   UNL     1      15.515  11.200  36.975  0.00  0.00    +0.000 OA
ENDROOT
BRANCH   1  17
ATOM     14  C   UNL     1      13.017  14.986  34.210  0.00  0.00    +0.000 C 
ATOM     15  C   UNL     1      13.900  13.805  33.948  0.00  0.00    +0.000 A 
ATOM     16  C   UNL     1      14.552  13.144  34.970  0.00  0.00    +0.000 A 
ATOM     17  C   UNL     1      15.364  12.056  34.709  0.00  0.00    +0.000 A 
ATOM     18  C   UNL     1      15.497  11.658  33.397  0.00  0.00    +0.000 A 
ATOM     19  C   UNL     1      14.844  12.319  32.370  0.00  0.00    +0.000 A 
ATOM     20  C   UNL     1      15.003  11.870  30.962  0.00  0.00    +0.000 C 
ATOM     21  C   UNL     1      14.042  13.393  32.628  0.00  0.00    +0.000 A 
ATOM     22  O   UNL     1      13.364  14.092  31.624  0.00  0.00    +0.000 OA
ENDBRANCH   1  17
TORSDOF 1
ENDMDL
MODEL 4
REMARK VINA RESULT:      -7.9      1.694      7.541
REMARK  Name = 
REMARK  1 active torsions:
REMARK  status: ('A' for Active; 'I' for Inactive)
REMARK    1  A    between atoms: C_4  and  C_5
REMARK                            x       y       z     vdW  Elec       q    Type
REMARK                         _______ _______ _______ _____ _____    ______ ____
ROOT
ATOM      1  C   UNL     1      16.630  10.824  36.834  0.00  0.00    +0.000 A 
ATOM      2  C   UNL     1      17.114  10.252  35.673  0.00  0.00    +0.000 A 
ATOM      3  C   UNL     1      16.661  10.690  34.473  0.00  0.00    +0.000 A 
ATOM      4  C   UNL     1      17.149  10.108  33.180  0.00  0.00    +0.000 C 
ATOM      5  C   UNL     1      15.726  11.700  34.407  0.00  0.00    +0.000 A 
ATOM      6  C   UNL     1      15.237  12.180  33.215  0.00  0.00    +0.000 A 
ATOM      7  O   UNL     1      15.714  11.614  32.049  0.00  0.00    +0.000 OA
ATOM      8  C   UNL     1      14.298  13.194  33.168  0.00  0.00    +0.000 A 
ATOM      9  C   UNL     1      13.852  13.728  34.374  0.00  0.00    +0.000 A 
ATOM     10  O   UNL     1      12.910  14.743  34.277  0.00  0.00    +0.000 OA
ATOM     11  C   UNL     1      14.352  13.236  35.538  0.00  0.00    +0.000 A 
ATOM     12  C   UNL     1      15.287  12.226  35.624  0.00  0.00    +0.000 A 
ATOM     13  O   UNL     1      15.744  11.780  36.769  0.00  0.00    +0.000 OA
ENDROOT
BRANCH   1  17
ATOM     14  C   UNL     1      15.863   9.281  41.512  0.00  0.00    +0.000 C 
ATOM     15  C   UNL     1      16.774   9.574  40.359  0.00  0.00    +0.000 A 
ATOM     16  C   UNL     1      16.293  10.053  39.157  0.00  0.00    +0.000 A 
ATOM     17  C   UNL     1      17.148  10.317  38.104  0.00  0.00    +0.000 A 
ATOM     18  C   UNL     1      18.492  10.085  38.297  0.00  0.00    +0.000 A 
ATOM     19  C   UNL     1      18.977   9.604  39.502  0.00  0.00    +0.000 A 
ATOM     20  C   UNL     1      20.431   9.361  39.687  0.00  0.00    +0.000 C 
ATOM     21  C   UNL     1      18.132   9.344  40.542  0.00  0.00    +0.000 A 
ATOM     22  O   UNL     1      18.575   8.857  41.776  0.00  0.00    +0.000 OA
ENDBRANCH   1  17
TORSDOF 1
ENDMDL
MODEL 5
REMARK VINA RESULT:      -7.8      1.727      3.134
REMARK  Name = 
REMARK  1 active torsions:
REMARK  status: ('A' for Active; 'I' for Inactive)
REMARK    1  A    between atoms: C_4  and  C_5
REMARK                            x       y       z     vdW  Elec       q    Type
REMARK                         _______ _______ _______ _____ _____    ______ ____
ROOT
ATOM      1  C   UNL     1      17.396  10.679  36.587  0.00  0.00    +0.000 A 
ATOM      2  C   UNL     1      16.714  10.396  37.755  0.00  0.00    +0.000 A 
ATOM      3  C   UNL     1      17.397   9.947  38.836  0.00  0.00    +0.000 A 
ATOM      4  C   UNL     1      16.712   9.624  40.130  0.00  0.00    +0.000 C 
ATOM      5  C   UNL     1      18.762   9.773  38.775  0.00  0.00    +0.000 A 
ATOM      6  C   UNL     1      19.500   9.322  39.843  0.00  0.00    +0.000 A 
ATOM      7  O   UNL     1      18.828   9.036  41.015  0.00  0.00    +0.000 OA
ATOM      8  C   UNL     1      20.870   9.152  39.764  0.00  0.00    +0.000 A 
ATOM      9  C   UNL     1      21.498   9.455  38.558  0.00  0.00    +0.000 A 
ATOM     10  O   UNL     1      22.873   9.271  38.525  0.00  0.00    +0.000 OA
ATOM     11  C   UNL     1      20.745   9.900  37.517  0.00  0.00    +0.000 A 
ATOM     12  C   UNL     1      19.378  10.080  37.560  0.00  0.00    +0.000 A 
ATOM     13  O   UNL     1      18.689  10.512  36.532  0.00  0.00    +0.000 OA
ENDROOT
BRANCH   1  17
ATOM     14  C   UNL     1      13.865  13.656  34.712  0.00  0.00    +0.000 C 
ATOM     15  C   UNL     1      14.911  12.596  34.548  0.00  0.00    +0.000 A 
ATOM     16  C   UNL     1      15.653  12.137  35.618  0.00  0.00    +0.000 A 
ATOM     17  C   UNL     1      16.615  11.159  35.448  0.00  0.00    +0.000 A 
ATOM     18  C   UNL     1      16.804  10.661  34.178  0.00  0.00    +0.000 A 
ATOM     19  C   UNL     1      16.061  11.120  33.103  0.00  0.00    +0.000 A 
ATOM     20  C   UNL     1      16.283  10.568  31.741  0.00  0.00    +0.000 C 
ATOM     21  C   UNL     1      15.111  12.086  33.271  0.00  0.00    +0.000 A 
ATOM     22  O   UNL     1      14.336  12.581  32.216  0.00  0.00    +0.000 OA
ENDBRANCH   1  17
TORSDOF 1
ENDMDL
MODEL 6
REMARK VINA RESULT:      -7.7      1.584      7.027
REMARK  Name = 
REMARK  1 active torsions:
REMARK  status: ('A' for Active; 'I' for Inactive)
REMARK    1  A    between atoms: C_4  and  C_5
REMARK                            x       y       z     vdW  Elec       q    Type
REMARK                         _______ _______ _______ _____ _____    ______ ____
ROOT
ATOM      1  C   UNL     1      16.288  11.053  36.677  0.00  0.00    +0.000 A 
ATOM      2  C   UNL     1      15.309  12.024  36.773  0.00  0.00    +0.000 A 
ATOM      3  C   UNL     1      14.758  12.532  35.644  0.00  0.00    +0.000 A 
ATOM      4  C   UNL     1      13.693  13.587  35.686  0.00  0.00    +0.000 C 
ATOM      5  C   UNL     1      15.167  12.086  34.406  0.00  0.00    +0.000 A 
ATOM      6  C   UNL     1      14.638  12.569  33.233  0.00  0.00    +0.000 A 
ATOM      7  O   UNL     1      13.661  13.540  33.319  0.00  0.00    +0.000 OA
ATOM      8  C   UNL     1      15.062  12.109  31.999  0.00  0.00    +0.000 A 
ATOM      9  C   UNL     1      16.051  11.130  31.971  0.00  0.00    +0.000 A 
ATOM     10  O   UNL     1      16.444  10.699  30.712  0.00  0.00    +0.000 OA
ATOM     11  C   UNL     1      16.556  10.669  33.146  0.00  0.00    +0.000 A 
ATOM     12  C   UNL     1      16.160  11.104  34.393  0.00  0.00    +0.000 A 
ATOM     13  O   UNL     1      16.674  10.633  35.503  0.00  0.00    +0.000 OA
ENDROOT
BRANCH   1  17
ATOM     14  C   UNL     1      20.239   9.756  39.426  0.00  0.00    +0.000 C 
ATOM     15  C   UNL     1      18.760   9.912  39.245  0.00  0.00    +0.000 A 
ATOM     16  C   UNL     1      18.219  10.399  38.071  0.00  0.00    +0.000 A 
ATOM     17  C   UNL     1      16.852  10.537  37.923  0.00  0.00    +0.000 A 
ATOM     18  C   UNL     1      16.053  10.174  38.984  0.00  0.00    +0.000 A 
ATOM     19  C   UNL     1      16.593   9.685  40.162  0.00  0.00    +0.000 A 
ATOM     20  C   UNL     1      15.710   9.299  41.294  0.00  0.00    +0.000 C 
ATOM     21  C   UNL     1      17.943   9.548  40.309  0.00  0.00    +0.000 A 
ATOM     22  O   UNL     1      18.534   9.061  41.479  0.00  0.00    +0.000 OA
ENDBRANCH   1  17
TORSDOF 1
ENDMDL
MODEL 7
REMARK VINA RESULT:      -7.7      2.788      8.495
REMARK  Name = 
REMARK  1 active torsions:
REMARK  status: ('A' for Active; 'I' for Inactive)
REMARK    1  A    between atoms: C_4  and  C_5
REMARK                            x       y       z     vdW  Elec       q    Type
REMARK                         _______ _______ _______ _____ _____    ______ ____
ROOT
ATOM      1  C   UNL     1      16.260   9.722  39.884  0.00  0.00    +0.000 A 
ATOM      2  C   UNL     1      17.357   9.823  39.049  0.00  0.00    +0.000 A 
ATOM      3  C   UNL     1      17.246  10.497  37.879  0.00  0.00    +0.000 A 
ATOM      4  C   UNL     1      18.402  10.640  36.933  0.00  0.00    +0.000 C 
ATOM      5  C   UNL     1      16.051  11.080  37.520  0.00  0.00    +0.000 A 
ATOM      6  C   UNL     1      15.888  11.774  36.345  0.00  0.00    +0.000 A 
ATOM      7  O   UNL     1      16.978  11.880  35.504  0.00  0.00    +0.000 OA
ATOM      8  C   UNL     1      14.680  12.352  36.001  0.00  0.00    +0.000 A 
ATOM      9  C   UNL     1      13.614  12.214  36.886  0.00  0.00    +0.000 A 
ATOM     10  O   UNL     1      12.422  12.810  36.499  0.00  0.00    +0.000 OA
ATOM     11  C   UNL     1      13.802  11.523  38.041  0.00  0.00    +0.000 A 
ATOM     12  C   UNL     1      14.991  10.933  38.416  0.00  0.00    +0.000 A 
ATOM     13  O   UNL     1      15.129  10.274  39.541  0.00  0.00    +0.000 OA
ENDROOT
BRANCH   1  17
ATOM     14  C   UNL     1      16.205   9.584  44.867  0.00  0.00    +0.000 C 
ATOM     15  C   UNL     1      16.403   8.922  43.537  0.00  0.00    +0.000 A 
ATOM     16  C   UNL     1      16.244   9.612  42.352  0.00  0.00    +0.000 A 
ATOM     17  C   UNL     1      16.430   8.984  41.134  0.00  0.00    +0.000 A 
ATOM     18  C   UNL     1      16.776   7.651  41.148  0.00  0.00    +0.000 A 
ATOM     19  C   UNL     1      16.936   6.957  42.336  0.00  0.00    +0.000 A 
ATOM     20  C   UNL     1      17.310   5.519  42.325  0.00  0.00    +0.000 C 
ATOM     21  C   UNL     1      16.753   7.577  43.538  0.00  0.00    +0.000 A 
ATOM     22  O   UNL     1      16.902   6.918  44.763  0.00  0.00    +0.000 OA
ENDBRANCH   1  17
TORSDOF 1
ENDMDL
MODEL 8
REMARK VINA RESULT:      -7.6      2.264      7.790
REMARK  Name = 
REMARK  1 active torsions:
REMARK  status: ('A' for Active; 'I' for Inactive)
REMARK    1  A    between atoms: C_4  and  C_5
REMARK                            x       y       z     vdW  Elec       q    Type
REMARK                         _______ _______ _______ _____ _____    ______ ____
ROOT
ATOM      1  C   UNL     1      17.036  10.066  38.210  0.00  0.00    +0.000 A 
ATOM      2  C   UNL     1      17.720   9.745  37.053  0.00  0.00    +0.000 A 
ATOM      3  C   UNL     1      17.308  10.261  35.869  0.00  0.00    +0.000 A 
ATOM      4  C   UNL     1      18.009   9.948  34.580  0.00  0.00    +0.000 C 
ATOM      5  C   UNL     1      16.217  11.100  35.815  0.00  0.00    +0.000 A 
ATOM      6  C   UNL     1      15.761  11.649  34.641  0.00  0.00    +0.000 A 
ATOM      7  O   UNL     1      16.437  11.334  33.478  0.00  0.00    +0.000 OA
ATOM      8  C   UNL     1      14.664  12.489  34.606  0.00  0.00    +0.000 A 
ATOM      9  C   UNL     1      14.019  12.773  35.808  0.00  0.00    +0.000 A 
ATOM     10  O   UNL     1      12.924  13.621  35.725  0.00  0.00    +0.000 OA
ATOM     11  C   UNL     1      14.491  12.218  36.955  0.00  0.00    +0.000 A 
ATOM     12  C   UNL     1      15.581  11.375  37.028  0.00  0.00    +0.000 A 
ATOM     13  O   UNL     1      16.003  10.861  38.157  0.00  0.00    +0.000 OA
ENDROOT
BRANCH   1  17
ATOM     14  C   UNL     1      20.478   7.501  40.745  0.00  0.00    +0.000 C 
ATOM     15  C   UNL     1      19.180   8.246  40.680  0.00  0.00    +0.000 A 
ATOM     16  C   UNL     1      18.718   8.799  39.503  0.00  0.00    +0.000 A 
ATOM     17  C   UNL     1      17.518   9.484  39.462  0.00  0.00    +0.000 A 
ATOM     18  C   UNL     1      16.804   9.594  40.635  0.00  0.00    +0.000 A 
ATOM     19  C   UNL     1      17.265   9.040  41.817  0.00  0.00    +0.000 A 
ATOM     20  C   UNL     1      16.477   9.172  43.070  0.00  0.00    +0.000 C 
ATOM     21  C   UNL     1      18.450   8.364  41.857  0.00  0.00    +0.000 A 
ATOM     22  O   UNL     1      18.957   7.788  43.027  0.00  0.00    +0.000 OA
ENDBRANCH   1  17
TORSDOF 1
ENDMDL
MODEL 9
REMARK VINA RESULT:      -7.6      2.879      7.510
REMARK  Name = 
REMARK  1 active torsions:
REMARK  status: ('A' for Active; 'I' for Inactive)
REMARK    1  A    between atoms: C_4  and  C_5
REMARK                            x       y       z     vdW  Elec       q    Type
REMARK                         _______ _______ _______ _____ _____    ______ ____
ROOT
ATOM      1  C   UNL     1      19.135  10.160  37.955  0.00  0.00    +0.000 A 
ATOM      2  C   UNL     1      18.374   9.778  39.044  0.00  0.00    +0.000 A 
ATOM      3  C   UNL     1      17.051  10.069  39.070  0.00  0.00    +0.000 A 
ATOM      4  C   UNL     1      16.175   9.680  40.224  0.00  0.00    +0.000 C 
ATOM      5  C   UNL     1      16.463  10.740  38.021  0.00  0.00    +0.000 A 
ATOM      6  C   UNL     1      15.126  11.057  37.999  0.00  0.00    +0.000 A 
ATOM      7  O   UNL     1      14.358  10.681  39.083  0.00  0.00    +0.000 OA
ATOM      8  C   UNL     1      14.554  11.733  36.937  0.00  0.00    +0.000 A 
ATOM      9  C   UNL     1      15.375  12.089  35.871  0.00  0.00    +0.000 A 
ATOM     10  O   UNL     1      14.757  12.765  34.827  0.00  0.00    +0.000 OA
ATOM     11  C   UNL     1      16.694  11.763  35.916  0.00  0.00    +0.000 A 
ATOM     12  C   UNL     1      17.299  11.092  36.959  0.00  0.00    +0.000 A 
ATOM     13  O   UNL     1      18.576  10.796  36.963  0.00  0.00    +0.000 OA
ENDROOT
BRANCH   1  17
ATOM     14  C   UNL     1      23.109   8.300  40.321  0.00  0.00    +0.000 C 
ATOM     15  C   UNL     1      22.471   8.927  39.119  0.00  0.00    +0.000 A 
ATOM     16  C   UNL     1      21.128   9.246  39.093  0.00  0.00    +0.000 A 
ATOM     17  C   UNL     1      20.557   9.824  37.974  0.00  0.00    +0.000 A 
ATOM     18  C   UNL     1      21.373  10.067  36.892  0.00  0.00    +0.000 A 
ATOM     19  C   UNL     1      22.721   9.747  36.915  0.00  0.00    +0.000 A 
ATOM     20  C   UNL     1      23.582  10.018  35.735  0.00  0.00    +0.000 C 
ATOM     21  C   UNL     1      23.285   9.177  38.020  0.00  0.00    +0.000 A 
ATOM     22  O   UNL     1      24.640   8.835  38.090  0.00  0.00    +0.000 OA
ENDBRANCH   1  17
TORSDOF 1
ENDMDL
MODEL 10
REMARK VINA RESULT:      -7.5     19.061     21.677
REMARK  Name = 
REMARK  1 active torsions:
REMARK  status: ('A' for Active; 'I' for Inactive)
REMARK    1  A    between atoms: C_4  and  C_5
REMARK                            x       y       z     vdW  Elec       q    Type
REMARK                         _______ _______ _______ _____ _____    ______ ____
ROOT
ATOM      1  C   UNL     1      29.163  23.057  26.486  0.00  0.00    +0.000 A 
ATOM      2  C   UNL     1      27.796  22.856  26.463  0.00  0.00    +0.000 A 
ATOM      3  C   UNL     1      27.111  23.048  25.310  0.00  0.00    +0.000 A 
ATOM      4  C   UNL     1      25.628  22.845  25.225  0.00  0.00    +0.000 C 
ATOM      5  C   UNL     1      27.769  23.440  24.165  0.00  0.00    +0.000 A 
ATOM      6  C   UNL     1      27.120  23.647  22.971  0.00  0.00    +0.000 A 
ATOM      7  O   UNL     1      25.754  23.450  22.939  0.00  0.00    +0.000 OA
ATOM      8  C   UNL     1      27.797  24.042  21.832  0.00  0.00    +0.000 A 
ATOM      9  C   UNL     1      29.175  24.227  21.922  0.00  0.00    +0.000 A 
ATOM     10  O   UNL     1      29.812  24.623  20.754  0.00  0.00    +0.000 OA
ATOM     11  C   UNL     1      29.792  24.015  23.114  0.00  0.00    +0.000 A 
ATOM     12  C   UNL     1      29.150  23.623  24.270  0.00  0.00    +0.000 A 
ATOM     13  O   UNL     1      29.784  23.429  25.401  0.00  0.00    +0.000 OA
ENDROOT
BRANCH   1  17
ATOM     14  C   UNL     1      29.300  23.399  31.457  0.00  0.00    +0.000 C 
ATOM     15  C   UNL     1      29.919  23.005  30.151  0.00  0.00    +0.000 A 
ATOM     16  C   UNL     1      29.270  23.209  28.950  0.00  0.00    +0.000 A 
ATOM     17  C   UNL     1      29.857  22.838  27.754  0.00  0.00    +0.000 A 
ATOM     18  C   UNL     1      31.106  22.260  27.806  0.00  0.00    +0.000 A 
ATOM     19  C   UNL     1      31.759  22.055  29.011  0.00  0.00    +0.000 A 
ATOM     20  C   UNL     1      33.107  21.431  29.041  0.00  0.00    +0.000 C 
ATOM     21  C   UNL     1      31.180  22.422  30.191  0.00  0.00    +0.000 A 
ATOM     22  O   UNL     1      31.800  22.234  31.431  0.00  0.00    +0.000 OA
ENDBRANCH   1  17
TORSDOF 1
ENDMDL
