MODEL 1
REMARK VINA RESULT:      -7.5      0.000      0.000
REMARK  Name = 
REMARK  3 active torsions:
REMARK  status: ('A' for Active; 'I' for Inactive)
REMARK    1  A    between atoms: C_2  and  C_3
REMARK    2  A    between atoms: C_3  and  C_4
REMARK    3  A    between atoms: C_10  and  C_11
REMARK                            x       y       z     vdW  Elec       q    Type
REMARK                         _______ _______ _______ _____ _____    ______ ____
ROOT
ATOM      1  C   UNL     1      14.529  12.944  32.879  0.00  0.00    +0.000 A 
ATOM      2  C   UNL     1      15.455  11.967  33.067  0.00  0.00    +0.000 A 
ATOM      3  C   UNL     1      15.744  11.586  34.319  0.00  0.00    +0.000 A 
ATOM      4  C   UNL     1      15.089  12.201  35.340  0.00  0.00    +0.000 A 
ATOM      5  S   UNL     1      14.075  13.316  34.483  0.00  0.00    +0.000 S 
ATOM      6  N   UNL     1      15.343  11.830  36.694  0.00  0.00    +0.000 NA
ATOM      7  C   UNL     1      16.872  11.546  37.047  0.00  0.00    +0.000 C 
ATOM      8  N   UNL     1      16.927  10.258  36.063  0.00  0.00    +0.000 NA
ATOM      9  C   UNL     1      16.726  10.546  34.725  0.00  0.00    +0.000 C 
ATOM     10  O   UNL     1      17.395   9.902  33.870  0.00  0.00    +0.000 OA
ENDROOT
BRANCH   7  11
ATOM     11  C   UNL     1      16.548  10.686  38.366  0.00  0.00    +0.000 A 
ATOM     12  C   UNL     1      17.610   9.987  38.887  0.00  0.00    +0.000 A 
ATOM     13  C   UNL     1      17.395   9.214  40.040  0.00  0.00    +0.000 A 
ATOM     14  C   UNL     1      16.145   9.173  40.615  0.00  0.00    +0.000 A 
ATOM     15  C   UNL     1      15.894   8.347  41.854  0.00  0.00    +0.000 C 
ATOM     16  C   UNL     1      15.139   9.900  40.032  0.00  0.00    +0.000 A 
ATOM     17  C   UNL     1      15.333  10.663  38.901  0.00  0.00    +0.000 A 
ENDBRANCH   7  11
BRANCH   1  18
ATOM     18  C   UNL     1      14.059  13.518  31.569  0.00  0.00    +0.000 C 
BRANCH  18  20
ATOM     19  C   UNL     1      16.011  14.019  30.207  0.00  0.00    +0.000 C 
ATOM     20  C   UNL     1      14.950  12.979  30.455  0.00  0.00    +0.000 C 
ENDBRANCH  18  20
ENDBRANCH   1  18
TORSDOF 3
ENDMDL
MODEL 2
REMARK VINA RESULT:      -7.3      2.316      7.676
REMARK  Name = 
REMARK  3 active torsions:
REMARK  status: ('A' for Active; 'I' for Inactive)
REMARK    1  A    between atoms: C_2  and  C_3
REMARK    2  A    between atoms: C_3  and  C_4
REMARK    3  A    between atoms: C_10  and  C_11
REMARK                            x       y       z     vdW  Elec       q    Type
REMARK                         _______ _______ _______ _____ _____    ______ ____
ROOT
ATOM      1  C   UNL     1      17.083   9.590  39.766  0.00  0.00    +0.000 A 
ATOM      2  C   UNL     1      15.789   9.953  39.565  0.00  0.00    +0.000 A 
ATOM      3  C   UNL     1      15.478  10.639  38.457  0.00  0.00    +0.000 A 
ATOM      4  C   UNL     1      16.481  10.937  37.589  0.00  0.00    +0.000 A 
ATOM      5  S   UNL     1      17.850  10.228  38.381  0.00  0.00    +0.000 S 
ATOM      6  N   UNL     1      16.211  11.655  36.385  0.00  0.00    +0.000 NA
ATOM      7  C   UNL     1      15.164  12.850  36.525  0.00  0.00    +0.000 C 
ATOM      8  N   UNL     1      13.954  11.832  36.889  0.00  0.00    +0.000 NA
ATOM      9  C   UNL     1      14.129  11.127  38.066  0.00  0.00    +0.000 C 
ATOM     10  O   UNL     1      13.115  10.912  38.787  0.00  0.00    +0.000 OA
ENDROOT
BRANCH   7  11
ATOM     11  C   UNL     1      14.815  12.907  34.956  0.00  0.00    +0.000 A 
ATOM     12  C   UNL     1      13.967  13.920  34.580  0.00  0.00    +0.000 A 
ATOM     13  C   UNL     1      13.621  14.027  33.222  0.00  0.00    +0.000 A 
ATOM     14  C   UNL     1      14.131  13.129  32.312  0.00  0.00    +0.000 A 
ATOM     15  C   UNL     1      13.770  13.227  30.849  0.00  0.00    +0.000 C 
ATOM     16  C   UNL     1      14.971  12.147  32.770  0.00  0.00    +0.000 A 
ATOM     17  C   UNL     1      15.320  12.028  34.099  0.00  0.00    +0.000 A 
ENDBRANCH   7  11
BRANCH   1  18
ATOM     18  C   UNL     1      17.646   8.823  40.933  0.00  0.00    +0.000 C 
BRANCH  18  20
ATOM     19  C   UNL     1      16.915   6.515  41.173  0.00  0.00    +0.000 C 
ATOM     20  C   UNL     1      16.547   7.937  41.509  0.00  0.00    +0.000 C 
ENDBRANCH  18  20
ENDBRANCH   1  18
TORSDOF 3
ENDMDL
MODEL 3
REMARK VINA RESULT:      -6.5     21.308     22.804
REMARK  Name = 
REMARK  3 active torsions:
REMARK  status: ('A' for Active; 'I' for Inactive)
REMARK    1  A    between atoms: C_2  and  C_3
REMARK    2  A    between atoms: C_3  and  C_4
REMARK    3  A    between atoms: C_10  and  C_11
REMARK                            x       y       z     vdW  Elec       q    Type
REMARK                         _______ _______ _______ _____ _____    ______ ____
ROOT
ATOM      1  C   UNL     1      15.016  -9.192  25.423  0.00  0.00    +0.000 A 
ATOM      2  C   UNL     1      15.605  -8.130  26.034  0.00  0.00    +0.000 A 
ATOM      3  C   UNL     1      16.935  -7.993  25.947  0.00  0.00    +0.000 A 
ATOM      4  C   UNL     1      17.628  -8.930  25.248  0.00  0.00    +0.000 A 
ATOM      5  S   UNL     1      16.357  -9.990  24.731  0.00  0.00    +0.000 S 
ATOM      6  N   UNL     1      19.045  -8.832  25.108  0.00  0.00    +0.000 NA
ATOM      7  C   UNL     1      19.827  -8.360  26.416  0.00  0.00    +0.000 C 
ATOM      8  N   UNL     1      19.128  -6.896  26.382  0.00  0.00    +0.000 NA
ATOM      9  C   UNL     1      17.755  -6.909  26.549  0.00  0.00    +0.000 C 
ATOM     10  O   UNL     1      17.229  -5.979  27.221  0.00  0.00    +0.000 OA
ENDROOT
BRANCH   7  11
ATOM     11  C   UNL     1      21.144  -7.891  25.622  0.00  0.00    +0.000 A 
ATOM     12  C   UNL     1      22.104  -8.859  25.454  0.00  0.00    +0.000 A 
ATOM     13  C   UNL     1      23.282  -8.516  24.769  0.00  0.00    +0.000 A 
ATOM     14  C   UNL     1      23.446  -7.237  24.287  0.00  0.00    +0.000 A 
ATOM     15  C   UNL     1      24.705  -6.849  23.548  0.00  0.00    +0.000 C 
ATOM     16  C   UNL     1      22.439  -6.330  24.497  0.00  0.00    +0.000 A 
ATOM     17  C   UNL     1      21.278  -6.651  25.167  0.00  0.00    +0.000 A 
ENDBRANCH   7  11
BRANCH   1  18
ATOM     18  C   UNL     1      13.551  -9.534  25.396  0.00  0.00    +0.000 C 
BRANCH  18  20
ATOM     19  C   UNL     1      11.478  -8.950  26.527  0.00  0.00    +0.000 C 
ATOM     20  C   UNL     1      12.769  -8.376  26.006  0.00  0.00    +0.000 C 
ENDBRANCH  18  20
ENDBRANCH   1  18
TORSDOF 3
ENDMDL
MODEL 4
REMARK VINA RESULT:      -6.2     18.311     21.572
REMARK  Name = 
REMARK  3 active torsions:
REMARK  status: ('A' for Active; 'I' for Inactive)
REMARK    1  A    between atoms: C_2  and  C_3
REMARK    2  A    between atoms: C_3  and  C_4
REMARK    3  A    between atoms: C_10  and  C_11
REMARK                            x       y       z     vdW  Elec       q    Type
REMARK                         _______ _______ _______ _____ _____    ______ ____
ROOT
ATOM      1  C   UNL     1      28.622  26.693  21.340  0.00  0.00    +0.000 A 
ATOM      2  C   UNL     1      27.795  25.620  21.450  0.00  0.00    +0.000 A 
ATOM      3  C   UNL     1      27.738  24.968  22.620  0.00  0.00    +0.000 A 
ATOM      4  C   UNL     1      28.517  25.419  23.639  0.00  0.00    +0.000 A 
ATOM      5  S   UNL     1      29.315  26.768  22.899  0.00  0.00    +0.000 S 
ATOM      6  N   UNL     1      28.492  24.775  24.912  0.00  0.00    +0.000 NA
ATOM      7  C   UNL     1      28.425  23.183  24.869  0.00  0.00    +0.000 C 
ATOM      8  N   UNL     1      26.953  23.199  24.187  0.00  0.00    +0.000 NA
ATOM      9  C   UNL     1      26.906  23.777  22.931  0.00  0.00    +0.000 C 
ATOM     10  O   UNL     1      26.140  23.264  22.069  0.00  0.00    +0.000 OA
ENDROOT
BRANCH   7  11
ATOM     11  C   UNL     1      27.869  23.031  26.370  0.00  0.00    +0.000 A 
ATOM     12  C   UNL     1      26.697  23.699  26.633  0.00  0.00    +0.000 A 
ATOM     13  C   UNL     1      26.156  23.608  27.926  0.00  0.00    +0.000 A 
ATOM     14  C   UNL     1      26.800  22.864  28.888  0.00  0.00    +0.000 A 
ATOM     15  C   UNL     1      26.235  22.755  30.284  0.00  0.00    +0.000 C 
ATOM     16  C   UNL     1      27.965  22.227  28.544  0.00  0.00    +0.000 A 
ATOM     17  C   UNL     1      28.509  22.306  27.280  0.00  0.00    +0.000 A 
ENDBRANCH   7  11
BRANCH   1  18
ATOM     18  C   UNL     1      28.836  27.561  20.129  0.00  0.00    +0.000 C 
BRANCH  18  20
ATOM     19  C   UNL     1      30.793  28.142  18.806  0.00  0.00    +0.000 C 
ATOM     20  C   UNL     1      29.982  26.977  19.309  0.00  0.00    +0.000 C 
ENDBRANCH  18  20
ENDBRANCH   1  18
TORSDOF 3
ENDMDL
MODEL 5
REMARK VINA RESULT:      -6.1     21.134     22.159
REMARK  Name = 
REMARK  3 active torsions:
REMARK  status: ('A' for Active; 'I' for Inactive)
REMARK    1  A    between atoms: C_2  and  C_3
REMARK    2  A    between atoms: C_3  and  C_4
REMARK    3  A    between atoms: C_10  and  C_11
REMARK                            x       y       z     vdW  Elec       q    Type
REMARK                         _______ _______ _______ _____ _____    ______ ____
ROOT
ATOM      1  C   UNL     1      21.549  -6.937  25.062  0.00  0.00    +0.000 A 
ATOM      2  C   UNL     1      20.398  -6.398  25.544  0.00  0.00    +0.000 A 
ATOM      3  C   UNL     1      19.568  -7.178  26.250  0.00  0.00    +0.000 A 
ATOM      4  C   UNL     1      19.925  -8.475  26.447  0.00  0.00    +0.000 A 
ATOM      5  S   UNL     1      21.443  -8.550  25.613  0.00  0.00    +0.000 S 
ATOM      6  N   UNL     1      19.089  -9.352  27.201  0.00  0.00    +0.000 NA
ATOM      7  C   UNL     1      17.524  -9.194  26.939  0.00  0.00    +0.000 C 
ATOM      8  N   UNL     1      17.508  -7.692  27.552  0.00  0.00    +0.000 NA
ATOM      9  C   UNL     1      18.269  -6.775  26.850  0.00  0.00    +0.000 C 
ATOM     10  O   UNL     1      17.828  -5.598  26.738  0.00  0.00    +0.000 OA
ENDROOT
BRANCH   7  11
ATOM     11  C   UNL     1      17.086  -9.899  28.316  0.00  0.00    +0.000 A 
ATOM     12  C   UNL     1      17.775  -9.489  29.431  0.00  0.00    +0.000 A 
ATOM     13  C   UNL     1      17.442 -10.065  30.669  0.00  0.00    +0.000 A 
ATOM     14  C   UNL     1      16.448 -11.015  30.736  0.00  0.00    +0.000 A 
ATOM     15  C   UNL     1      16.076 -11.646  32.057  0.00  0.00    +0.000 C 
ATOM     16  C   UNL     1      15.808 -11.369  29.576  0.00  0.00    +0.000 A 
ATOM     17  C   UNL     1      16.124 -10.813  28.355  0.00  0.00    +0.000 A 
ENDBRANCH   7  11
BRANCH   1  18
ATOM     18  C   UNL     1      22.613  -6.246  24.251  0.00  0.00    +0.000 C 
BRANCH  18  20
ATOM     19  C   UNL     1      24.941  -6.647  23.673  0.00  0.00    +0.000 C 
ATOM     20  C   UNL     1      23.584  -7.298  23.725  0.00  0.00    +0.000 C 
ENDBRANCH  18  20
ENDBRANCH   1  18
TORSDOF 3
ENDMDL
MODEL 6
REMARK VINA RESULT:      -6.1     19.119     20.719
REMARK  Name = 
REMARK  3 active torsions:
REMARK  status: ('A' for Active; 'I' for Inactive)
REMARK    1  A    between atoms: C_2  and  C_3
REMARK    2  A    between atoms: C_3  and  C_4
REMARK    3  A    between atoms: C_10  and  C_11
REMARK                            x       y       z     vdW  Elec       q    Type
REMARK                         _______ _______ _______ _____ _____    ______ ____
ROOT
ATOM      1  C   UNL     1      33.753   0.185  35.652  0.00  0.00    +0.000 A 
ATOM      2  C   UNL     1      33.664   1.056  34.612  0.00  0.00    +0.000 A 
ATOM      3  C   UNL     1      33.824   2.365  34.853  0.00  0.00    +0.000 A 
ATOM      4  C   UNL     1      34.069   2.752  36.133  0.00  0.00    +0.000 A 
ATOM      5  S   UNL     1      34.063   1.231  36.965  0.00  0.00    +0.000 S 
ATOM      6  N   UNL     1      34.262   4.130  36.451  0.00  0.00    +0.000 NA
ATOM      7  C   UNL     1      33.294   5.145  35.693  0.00  0.00    +0.000 C 
ATOM      8  N   UNL     1      33.936   4.778  34.249  0.00  0.00    +0.000 NA
ATOM      9  C   UNL     1      33.756   3.464  33.855  0.00  0.00    +0.000 C 
ATOM     10  O   UNL     1      33.536   3.234  32.634  0.00  0.00    +0.000 OA
ENDROOT
BRANCH   7  11
ATOM     11  C   UNL     1      34.235   6.428  35.928  0.00  0.00    +0.000 A 
ATOM     12  C   UNL     1      35.342   6.501  35.119  0.00  0.00    +0.000 A 
ATOM     13  C   UNL     1      36.208   7.597  35.273  0.00  0.00    +0.000 A 
ATOM     14  C   UNL     1      35.932   8.560  36.217  0.00  0.00    +0.000 A 
ATOM     15  C   UNL     1      36.850   9.746  36.398  0.00  0.00    +0.000 C 
ATOM     16  C   UNL     1      34.805   8.413  36.985  0.00  0.00    +0.000 A 
ATOM     17  C   UNL     1      33.947   7.343  36.846  0.00  0.00    +0.000 A 
ENDBRANCH   7  11
BRANCH   1  18
ATOM     18  C   UNL     1      33.607  -1.312  35.604  0.00  0.00    +0.000 C 
BRANCH  18  20
ATOM     19  C   UNL     1      33.507  -2.997  33.853  0.00  0.00    +0.000 C 
ATOM     20  C   UNL     1      32.906  -1.692  34.304  0.00  0.00    +0.000 C 
ENDBRANCH  18  20
ENDBRANCH   1  18
TORSDOF 3
ENDMDL
MODEL 7
REMARK VINA RESULT:      -5.9      3.166      7.245
REMARK  Name = 
REMARK  3 active torsions:
REMARK  status: ('A' for Active; 'I' for Inactive)
REMARK    1  A    between atoms: C_2  and  C_3
REMARK    2  A    between atoms: C_3  and  C_4
REMARK    3  A    between atoms: C_10  and  C_11
REMARK                            x       y       z     vdW  Elec       q    Type
REMARK                         _______ _______ _______ _____ _____    ______ ____
ROOT
ATOM      1  C   UNL     1      20.282  12.291  39.133  0.00  0.00    +0.000 A 
ATOM      2  C   UNL     1      19.682  11.149  38.703  0.00  0.00    +0.000 A 
ATOM      3  C   UNL     1      18.735  11.235  37.760  0.00  0.00    +0.000 A 
ATOM      4  C   UNL     1      18.423  12.468  37.280  0.00  0.00    +0.000 A 
ATOM      5  S   UNL     1      19.494  13.480  38.195  0.00  0.00    +0.000 S 
ATOM      6  N   UNL     1      17.432  12.624  36.266  0.00  0.00    +0.000 NA
ATOM      7  C   UNL     1      16.143  11.700  36.426  0.00  0.00    +0.000 C 
ATOM      8  N   UNL     1      17.007  10.346  36.202  0.00  0.00    +0.000 NA
ATOM      9  C   UNL     1      17.966  10.107  37.170  0.00  0.00    +0.000 C 
ATOM     10  O   UNL     1      18.164   8.914  37.531  0.00  0.00    +0.000 OA
ENDROOT
BRANCH   7  11
ATOM     11  C   UNL     1      15.698  11.823  34.885  0.00  0.00    +0.000 A 
ATOM     12  C   UNL     1      16.345  10.978  34.017  0.00  0.00    +0.000 A 
ATOM     13  C   UNL     1      16.004  11.034  32.655  0.00  0.00    +0.000 A 
ATOM     14  C   UNL     1      15.043  11.920  32.226  0.00  0.00    +0.000 A 
ATOM     15  C   UNL     1      14.663  11.996  30.766  0.00  0.00    +0.000 C 
ATOM     16  C   UNL     1      14.444  12.730  33.157  0.00  0.00    +0.000 A 
ATOM     17  C   UNL     1      14.768  12.687  34.496  0.00  0.00    +0.000 A 
ENDBRANCH   7  11
BRANCH   1  18
ATOM     18  C   UNL     1      21.360  12.420  40.176  0.00  0.00    +0.000 C 
BRANCH  18  20
ATOM     19  C   UNL     1      22.693  14.451  40.306  0.00  0.00    +0.000 C 
ATOM     20  C   UNL     1      21.365  13.854  40.695  0.00  0.00    +0.000 C 
ENDBRANCH  18  20
ENDBRANCH   1  18
TORSDOF 3
ENDMDL
MODEL 8
REMARK VINA RESULT:      -5.9     23.432     25.097
REMARK  Name = 
REMARK  3 active torsions:
REMARK  status: ('A' for Active; 'I' for Inactive)
REMARK    1  A    between atoms: C_2  and  C_3
REMARK    2  A    between atoms: C_3  and  C_4
REMARK    3  A    between atoms: C_10  and  C_11
REMARK                            x       y       z     vdW  Elec       q    Type
REMARK                         _______ _______ _______ _____ _____    ______ ____
ROOT
ATOM      1  C   UNL     1      21.465  -7.379  25.174  0.00  0.00    +0.000 A 
ATOM      2  C   UNL     1      22.185  -8.530  25.232  0.00  0.00    +0.000 A 
ATOM      3  C   UNL     1      23.378  -8.575  24.623  0.00  0.00    +0.000 A 
ATOM      4  C   UNL     1      23.806  -7.458  23.977  0.00  0.00    +0.000 A 
ATOM      5  S   UNL     1      22.487  -6.367  24.254  0.00  0.00    +0.000 S 
ATOM      6  N   UNL     1      25.073  -7.439  23.321  0.00  0.00    +0.000 NA
ATOM      7  C   UNL     1      25.451  -8.771  22.530  0.00  0.00    +0.000 C 
ATOM      8  N   UNL     1      25.507  -9.643  23.896  0.00  0.00    +0.000 NA
ATOM      9  C   UNL     1      24.303  -9.738  24.570  0.00  0.00    +0.000 C 
ATOM     10  O   UNL     1      24.020 -10.831  25.133  0.00  0.00    +0.000 OA
ENDROOT
BRANCH   7  11
ATOM     11  C   UNL     1      27.030  -8.469  22.505  0.00  0.00    +0.000 A 
ATOM     12  C   UNL     1      27.815  -9.396  23.146  0.00  0.00    +0.000 A 
ATOM     13  C   UNL     1      29.205  -9.193  23.162  0.00  0.00    +0.000 A 
ATOM     14  C   UNL     1      29.743  -8.086  22.546  0.00  0.00    +0.000 A 
ATOM     15  C   UNL     1      31.235  -7.850  22.553  0.00  0.00    +0.000 C 
ATOM     16  C   UNL     1      28.890  -7.209  21.928  0.00  0.00    +0.000 A 
ATOM     17  C   UNL     1      27.524  -7.394  21.903  0.00  0.00    +0.000 A 
ENDBRANCH   7  11
BRANCH   1  18
ATOM     18  C   UNL     1      20.113  -7.115  25.782  0.00  0.00    +0.000 C 
BRANCH  18  20
ATOM     19  C   UNL     1      18.633  -5.386  26.640  0.00  0.00    +0.000 C 
ATOM     20  C   UNL     1      19.899  -5.607  25.854  0.00  0.00    +0.000 C 
ENDBRANCH  18  20
ENDBRANCH   1  18
TORSDOF 3
ENDMDL
MODEL 9
REMARK VINA RESULT:      -5.8      3.915      9.049
REMARK  Name = 
REMARK  3 active torsions:
REMARK  status: ('A' for Active; 'I' for Inactive)
REMARK    1  A    between atoms: C_2  and  C_3
REMARK    2  A    between atoms: C_3  and  C_4
REMARK    3  A    between atoms: C_10  and  C_11
REMARK                            x       y       z     vdW  Elec       q    Type
REMARK                         _______ _______ _______ _____ _____    ______ ____
ROOT
ATOM      1  C   UNL     1      17.950   6.009  42.450  0.00  0.00    +0.000 A 
ATOM      2  C   UNL     1      17.183   7.120  42.294  0.00  0.00    +0.000 A 
ATOM      3  C   UNL     1      17.303   7.832  41.165  0.00  0.00    +0.000 A 
ATOM      4  C   UNL     1      18.191   7.400  40.230  0.00  0.00    +0.000 A 
ATOM      5  S   UNL     1      18.838   5.983  40.991  0.00  0.00    +0.000 S 
ATOM      6  N   UNL     1      18.354   8.107  39.002  0.00  0.00    +0.000 NA
ATOM      7  C   UNL     1      18.339   9.697  39.124  0.00  0.00    +0.000 C 
ATOM      8  N   UNL     1      16.791   9.708  39.609  0.00  0.00    +0.000 NA
ATOM      9  C   UNL     1      16.560   9.071  40.816  0.00  0.00    +0.000 C 
ATOM     10  O   UNL     1      15.707   9.572  41.599  0.00  0.00    +0.000 OA
ENDROOT
BRANCH   7  11
ATOM     11  C   UNL     1      17.988   9.947  37.574  0.00  0.00    +0.000 A 
ATOM     12  C   UNL     1      16.913  10.770  37.341  0.00  0.00    +0.000 A 
ATOM     13  C   UNL     1      16.553  11.031  36.008  0.00  0.00    +0.000 A 
ATOM     14  C   UNL     1      17.273  10.465  34.980  0.00  0.00    +0.000 A 
ATOM     15  C   UNL     1      16.900  10.733  33.542  0.00  0.00    +0.000 C 
ATOM     16  C   UNL     1      18.332   9.655  35.299  0.00  0.00    +0.000 A 
ATOM     17  C   UNL     1      18.699   9.390  36.602  0.00  0.00    +0.000 A 
ENDBRANCH   7  11
BRANCH   1  18
ATOM     18  C   UNL     1      17.975   5.073  43.629  0.00  0.00    +0.000 C 
BRANCH  18  20
ATOM     19  C   UNL     1      15.901   4.765  44.861  0.00  0.00    +0.000 C 
ATOM     20  C   UNL     1      17.105   5.661  44.735  0.00  0.00    +0.000 C 
ENDBRANCH  18  20
ENDBRANCH   1  18
TORSDOF 3
ENDMDL
MODEL 10
REMARK VINA RESULT:      -5.8     22.296     24.195
REMARK  Name = 
REMARK  3 active torsions:
REMARK  status: ('A' for Active; 'I' for Inactive)
REMARK    1  A    between atoms: C_2  and  C_3
REMARK    2  A    between atoms: C_3  and  C_4
REMARK    3  A    between atoms: C_10  and  C_11
REMARK                            x       y       z     vdW  Elec       q    Type
REMARK                         _______ _______ _______ _____ _____    ______ ____
ROOT
ATOM      1  C   UNL     1      33.983  -0.353  35.983  0.00  0.00    +0.000 A 
ATOM      2  C   UNL     1      34.589  -1.558  36.151  0.00  0.00    +0.000 A 
ATOM      3  C   UNL     1      34.438  -2.493  35.204  0.00  0.00    +0.000 A 
ATOM      4  C   UNL     1      33.680  -2.184  34.118  0.00  0.00    +0.000 A 
ATOM      5  S   UNL     1      33.199  -0.557  34.480  0.00  0.00    +0.000 S 
ATOM      6  N   UNL     1      33.491  -3.132  33.069  0.00  0.00    +0.000 NA
ATOM      7  C   UNL     1      33.270  -4.638  33.545  0.00  0.00    +0.000 C 
ATOM      8  N   UNL     1      34.767  -4.731  34.162  0.00  0.00    +0.000 NA
ATOM      9  C   UNL     1      35.013  -3.864  35.211  0.00  0.00    +0.000 C 
ATOM     10  O   UNL     1      35.736  -4.271  36.162  0.00  0.00    +0.000 OA
ENDROOT
BRANCH   7  11
ATOM     11  C   UNL     1      33.674  -5.287  32.130  0.00  0.00    +0.000 A 
ATOM     12  C   UNL     1      32.747  -5.134  31.127  0.00  0.00    +0.000 A 
ATOM     13  C   UNL     1      33.037  -5.677  29.865  0.00  0.00    +0.000 A 
ATOM     14  C   UNL     1      34.226  -6.341  29.661  0.00  0.00    +0.000 A 
ATOM     15  C   UNL     1      34.556  -6.932  28.312  0.00  0.00    +0.000 C 
ATOM     16  C   UNL     1      35.097  -6.450  30.715  0.00  0.00    +0.000 A 
ATOM     17  C   UNL     1      34.827  -5.922  31.960  0.00  0.00    +0.000 A 
ENDBRANCH   7  11
BRANCH   1  18
ATOM     18  C   UNL     1      34.022   0.828  36.916  0.00  0.00    +0.000 C 
BRANCH  18  20
ATOM     19  C   UNL     1      34.407   3.229  36.978  0.00  0.00    +0.000 C 
ATOM     20  C   UNL     1      33.945   2.105  36.087  0.00  0.00    +0.000 C 
ENDBRANCH  18  20
ENDBRANCH   1  18
TORSDOF 3
ENDMDL
