MODEL 1
REMARK VINA RESULT:      -8.1      0.000      0.000
REMARK  Name = 
REMARK  7 active torsions:
REMARK  status: ('A' for Active; 'I' for Inactive)
REMARK    1  A    between atoms: C_5  and  C_6
REMARK    2  A    between atoms: C_6  and  N_7
REMARK    3  A    between atoms: C_8  and  C_10
REMARK    4  A    between atoms: N_12  and  C_13
REMARK    5  A    between atoms: C_13  and  C_14
REMARK    6  A    between atoms: C_14  and  C_15
REMARK    7  A    between atoms: C_14  and  N_20
REMARK                            x       y       z     vdW  Elec       q    Type
REMARK                         _______ _______ _______ _____ _____    ______ ____
ROOT
ATOM      1  C   UNL     1      39.004   5.159  17.328  0.00  0.00    +0.000 C 
ENDROOT
BRANCH   1   4
ATOM      2  C   UNL     1      37.359   3.624  16.419  0.00  0.00    +0.000 C 
ATOM      3  O   UNL     1      37.248   4.385  15.412  0.00  0.00    +0.000 OA
ATOM      4  N   UNL     1      38.260   3.969  17.461  0.00  0.00    +0.000 NA
BRANCH   2   6
ATOM      5  N   UNL     1      37.102   1.161  16.120  0.00  0.00    +0.000 NA
ATOM      6  C   UNL     1      36.547   2.410  16.467  0.00  0.00    +0.000 C 
ATOM      7  O   UNL     1      35.340   2.425  16.814  0.00  0.00    +0.000 OA
BRANCH   5   8
ATOM      8  C   UNL     1      36.423  -0.092  16.124  0.00  0.00    +0.000 C 
BRANCH   8  13
ATOM      9  C   UNL     1      38.898  -3.684  19.861  0.00  0.00    +0.000 C 
ATOM     10  C   UNL     1      38.216  -2.722  18.949  0.00  0.00    +0.000 A 
ATOM     11  C   UNL     1      38.560  -2.798  17.608  0.00  0.00    +0.000 A 
ATOM     12  C   UNL     1      37.943  -1.915  16.730  0.00  0.00    +0.000 A 
ATOM     13  C   UNL     1      37.017  -0.985  17.150  0.00  0.00    +0.000 A 
ATOM     14  C   UNL     1      36.688  -0.924  18.487  0.00  0.00    +0.000 A 
ATOM     15  C   UNL     1      37.292  -1.798  19.394  0.00  0.00    +0.000 A 
ENDBRANCH   8  13
ENDBRANCH   5   8
ENDBRANCH   2   6
ENDBRANCH   1   4
BRANCH   1  16
ATOM     16  C   UNL     1      38.992   5.921  18.797  0.00  0.00    +0.000 C 
BRANCH  16  17
ATOM     17  N   UNL     1      38.459   7.277  18.235  0.00  0.00    +0.000 N 
ATOM     18  C   UNL     1      38.011   7.658  16.988  0.00  0.00    +0.000 C 
ATOM     19  C   UNL     1      38.078   9.171  16.966  0.00  0.00    +0.000 C 
ATOM     20  C   UNL     1      38.169   9.557  18.414  0.00  0.00    +0.000 A 
ATOM     21  C   UNL     1      38.065  10.775  19.034  0.00  0.00    +0.000 A 
ATOM     22  C   UNL     1      38.190  10.841  20.400  0.00  0.00    +0.000 A 
ATOM     23  C   UNL     1      38.415   9.711  21.140  0.00  0.00    +0.000 A 
ATOM     24  C   UNL     1      38.514   8.507  20.492  0.00  0.00    +0.000 A 
ATOM     25  C   UNL     1      38.397   8.382  19.120  0.00  0.00    +0.000 A 
ENDBRANCH  16  17
BRANCH  16  26
ATOM     26  C   UNL     1      40.541   6.233  18.886  0.00  0.00    +0.000 A 
ATOM     27  C   UNL     1      41.305   6.294  19.974  0.00  0.00    +0.000 A 
ATOM     28  C   UNL     1      42.605   6.573  19.784  0.00  0.00    +0.000 A 
ATOM     29  C   UNL     1      43.039   6.770  18.522  0.00  0.00    +0.000 A 
ATOM     30  S   UNL     1      41.582   6.554  17.607  0.00  0.00    +0.000 S 
ENDBRANCH  16  26
ENDBRANCH   1  16
TORSDOF 7
ENDMDL
MODEL 2
REMARK VINA RESULT:      -7.7      3.153      9.241
REMARK  Name = 
REMARK  7 active torsions:
REMARK  status: ('A' for Active; 'I' for Inactive)
REMARK    1  A    between atoms: C_5  and  C_6
REMARK    2  A    between atoms: C_6  and  N_7
REMARK    3  A    between atoms: C_8  and  C_10
REMARK    4  A    between atoms: N_12  and  C_13
REMARK    5  A    between atoms: C_13  and  C_14
REMARK    6  A    between atoms: C_14  and  C_15
REMARK    7  A    between atoms: C_14  and  N_20
REMARK                            x       y       z     vdW  Elec       q    Type
REMARK                         _______ _______ _______ _____ _____    ______ ____
ROOT
ATOM      1  C   UNL     1      39.823   0.981  13.910  0.00  0.00    +0.000 C 
ENDROOT
BRANCH   1   4
ATOM      2  C   UNL     1      38.961   3.062  14.815  0.00  0.00    +0.000 C 
ATOM      3  O   UNL     1      39.048   3.568  13.656  0.00  0.00    +0.000 OA
ATOM      4  N   UNL     1      39.350   1.712  15.020  0.00  0.00    +0.000 NA
BRANCH   2   6
ATOM      5  N   UNL     1      38.893   5.229  16.048  0.00  0.00    +0.000 NA
ATOM      6  C   UNL     1      38.457   3.896  15.903  0.00  0.00    +0.000 C 
ATOM      7  O   UNL     1      37.626   3.470  16.745  0.00  0.00    +0.000 OA
BRANCH   5   8
ATOM      8  C   UNL     1      38.482   6.144  17.060  0.00  0.00    +0.000 C 
BRANCH   8  13
ATOM      9  C   UNL     1      42.888   6.772  20.691  0.00  0.00    +0.000 C 
ATOM     10  C   UNL     1      41.697   6.613  19.808  0.00  0.00    +0.000 A 
ATOM     11  C   UNL     1      41.952   6.468  18.453  0.00  0.00    +0.000 A 
ATOM     12  C   UNL     1      40.865   6.318  17.602  0.00  0.00    +0.000 A 
ATOM     13  C   UNL     1      39.566   6.311  18.061  0.00  0.00    +0.000 A 
ATOM     14  C   UNL     1      39.331   6.457  19.411  0.00  0.00    +0.000 A 
ATOM     15  C   UNL     1      40.404   6.610  20.293  0.00  0.00    +0.000 A 
ENDBRANCH   8  13
ENDBRANCH   5   8
ENDBRANCH   2   6
ENDBRANCH   1   4
BRANCH   1  16
ATOM     16  C   UNL     1      38.648  -0.104  13.489  0.00  0.00    +0.000 C 
BRANCH  16  17
ATOM     17  N   UNL     1      38.735  -0.912  14.823  0.00  0.00    +0.000 N 
ATOM     18  C   UNL     1      39.767  -1.584  15.441  0.00  0.00    +0.000 C 
ATOM     19  C   UNL     1      39.116  -2.523  16.435  0.00  0.00    +0.000 C 
ATOM     20  C   UNL     1      37.726  -1.980  16.599  0.00  0.00    +0.000 A 
ATOM     21  C   UNL     1      36.738  -2.284  17.498  0.00  0.00    +0.000 A 
ATOM     22  C   UNL     1      35.538  -1.620  17.420  0.00  0.00    +0.000 A 
ATOM     23  C   UNL     1      35.324  -0.667  16.460  0.00  0.00    +0.000 A 
ATOM     24  C   UNL     1      36.333  -0.385  15.575  0.00  0.00    +0.000 A 
ATOM     25  C   UNL     1      37.559  -1.022  15.608  0.00  0.00    +0.000 A 
ENDBRANCH  16  17
BRANCH  16  26
ATOM     26  C   UNL     1      39.530  -1.014  12.542  0.00  0.00    +0.000 A 
ATOM     27  C   UNL     1      39.220  -2.197  12.017  0.00  0.00    +0.000 A 
ATOM     28  C   UNL     1      40.146  -2.772  11.232  0.00  0.00    +0.000 A 
ATOM     29  C   UNL     1      41.309  -2.119  11.034  0.00  0.00    +0.000 A 
ATOM     30  S   UNL     1      41.076  -0.680  11.973  0.00  0.00    +0.000 S 
ENDBRANCH  16  26
ENDBRANCH   1  16
TORSDOF 7
ENDMDL
MODEL 3
REMARK VINA RESULT:      -7.5      3.719      9.856
REMARK  Name = 
REMARK  7 active torsions:
REMARK  status: ('A' for Active; 'I' for Inactive)
REMARK    1  A    between atoms: C_5  and  C_6
REMARK    2  A    between atoms: C_6  and  N_7
REMARK    3  A    between atoms: C_8  and  C_10
REMARK    4  A    between atoms: N_12  and  C_13
REMARK    5  A    between atoms: C_13  and  C_14
REMARK    6  A    between atoms: C_14  and  C_15
REMARK    7  A    between atoms: C_14  and  N_20
REMARK                            x       y       z     vdW  Elec       q    Type
REMARK                         _______ _______ _______ _____ _____    ______ ____
ROOT
ATOM      1  C   UNL     1      38.295   0.644  14.103  0.00  0.00    +0.000 C 
ENDROOT
BRANCH   1   4
ATOM      2  C   UNL     1      38.175   2.744  15.314  0.00  0.00    +0.000 C 
ATOM      3  O   UNL     1      37.458   2.168  16.185  0.00  0.00    +0.000 OA
ATOM      4  N   UNL     1      38.649   2.006  14.197  0.00  0.00    +0.000 NA
BRANCH   2   6
ATOM      5  N   UNL     1      38.199   4.809  16.715  0.00  0.00    +0.000 NA
ATOM      6  C   UNL     1      38.491   4.159  15.497  0.00  0.00    +0.000 C 
ATOM      7  O   UNL     1      39.028   4.848  14.594  0.00  0.00    +0.000 OA
BRANCH   5   8
ATOM      8  C   UNL     1      38.455   6.177  17.021  0.00  0.00    +0.000 C 
BRANCH   8  13
ATOM      9  C   UNL     1      43.121   6.596  20.344  0.00  0.00    +0.000 C 
ATOM     10  C   UNL     1      41.867   6.483  19.544  0.00  0.00    +0.000 A 
ATOM     11  C   UNL     1      42.014   6.503  18.166  0.00  0.00    +0.000 A 
ATOM     12  C   UNL     1      40.867   6.400  17.391  0.00  0.00    +0.000 A 
ATOM     13  C   UNL     1      39.611   6.280  17.946  0.00  0.00    +0.000 A 
ATOM     14  C   UNL     1      39.485   6.262  19.318  0.00  0.00    +0.000 A 
ATOM     15  C   UNL     1      40.620   6.364  20.125  0.00  0.00    +0.000 A 
ENDBRANCH   8  13
ENDBRANCH   5   8
ENDBRANCH   2   6
ENDBRANCH   1   4
BRANCH   1  16
ATOM     16  C   UNL     1      39.506  -0.236  14.807  0.00  0.00    +0.000 C 
BRANCH  16  17
ATOM     17  N   UNL     1      39.828  -1.063  13.521  0.00  0.00    +0.000 N 
ATOM     18  C   UNL     1      39.085  -1.377  12.404  0.00  0.00    +0.000 C 
ATOM     19  C   UNL     1      39.779  -2.559  11.761  0.00  0.00    +0.000 C 
ATOM     20  C   UNL     1      41.154  -2.551  12.363  0.00  0.00    +0.000 A 
ATOM     21  C   UNL     1      42.287  -3.250  12.040  0.00  0.00    +0.000 A 
ATOM     22  C   UNL     1      43.431  -3.044  12.772  0.00  0.00    +0.000 A 
ATOM     23  C   UNL     1      43.446  -2.155  13.813  0.00  0.00    +0.000 A 
ATOM     24  C   UNL     1      42.297  -1.470  14.113  0.00  0.00    +0.000 A 
ATOM     25  C   UNL     1      41.119  -1.638  13.410  0.00  0.00    +0.000 A 
ENDBRANCH  16  17
BRANCH  16  26
ATOM     26  C   UNL     1      38.594  -1.263  15.592  0.00  0.00    +0.000 A 
ATOM     27  C   UNL     1      38.975  -2.265  16.379  0.00  0.00    +0.000 A 
ATOM     28  C   UNL     1      38.000  -2.998  16.941  0.00  0.00    +0.000 A 
ATOM     29  C   UNL     1      36.720  -2.670  16.671  0.00  0.00    +0.000 A 
ATOM     30  S   UNL     1      36.915  -1.311  15.612  0.00  0.00    +0.000 S 
ENDBRANCH  16  26
ENDBRANCH   1  16
TORSDOF 7
ENDMDL
MODEL 4
REMARK VINA RESULT:      -7.5      3.373      9.353
REMARK  Name = 
REMARK  7 active torsions:
REMARK  status: ('A' for Active; 'I' for Inactive)
REMARK    1  A    between atoms: C_5  and  C_6
REMARK    2  A    between atoms: C_6  and  N_7
REMARK    3  A    between atoms: C_8  and  C_10
REMARK    4  A    between atoms: N_12  and  C_13
REMARK    5  A    between atoms: C_13  and  C_14
REMARK    6  A    between atoms: C_14  and  C_15
REMARK    7  A    between atoms: C_14  and  N_20
REMARK                            x       y       z     vdW  Elec       q    Type
REMARK                         _______ _______ _______ _____ _____    ______ ____
ROOT
ATOM      1  C   UNL     1      38.690   1.501  14.475  0.00  0.00    +0.000 C 
ENDROOT
BRANCH   1   4
ATOM      2  C   UNL     1      38.806   3.838  15.117  0.00  0.00    +0.000 C 
ATOM      3  O   UNL     1      39.041   4.129  13.906  0.00  0.00    +0.000 OA
ATOM      4  N   UNL     1      38.612   2.481  15.486  0.00  0.00    +0.000 NA
BRANCH   2   6
ATOM      5  N   UNL     1      39.107   4.702  17.438  0.00  0.00    +0.000 NA
ATOM      6  C   UNL     1      38.742   4.923  16.094  0.00  0.00    +0.000 C 
ATOM      7  O   UNL     1      38.364   6.081  15.785  0.00  0.00    +0.000 OA
BRANCH   5   8
ATOM      8  C   UNL     1      39.090   5.669  18.485  0.00  0.00    +0.000 C 
BRANCH   8  13
ATOM      9  C   UNL     1      44.378   7.308  20.015  0.00  0.00    +0.000 C 
ATOM     10  C   UNL     1      43.027   6.888  19.545  0.00  0.00    +0.000 A 
ATOM     11  C   UNL     1      42.086   6.631  20.531  0.00  0.00    +0.000 A 
ATOM     12  C   UNL     1      40.817   6.237  20.127  0.00  0.00    +0.000 A 
ATOM     13  C   UNL     1      40.476   6.097  18.800  0.00  0.00    +0.000 A 
ATOM     14  C   UNL     1      41.425   6.356  17.834  0.00  0.00    +0.000 A 
ATOM     15  C   UNL     1      42.710   6.754  18.208  0.00  0.00    +0.000 A 
ENDBRANCH   8  13
ENDBRANCH   5   8
ENDBRANCH   2   6
ENDBRANCH   1   4
BRANCH   1  16
ATOM     16  C   UNL     1      37.162   1.268  13.886  0.00  0.00    +0.000 C 
BRANCH  16  17
ATOM     17  N   UNL     1      37.112  -0.249  14.252  0.00  0.00    +0.000 N 
ATOM     18  C   UNL     1      37.795  -1.347  13.775  0.00  0.00    +0.000 C 
ATOM     19  C   UNL     1      36.984  -2.556  14.192  0.00  0.00    +0.000 C 
ATOM     20  C   UNL     1      36.087  -2.041  15.279  0.00  0.00    +0.000 A 
ATOM     21  C   UNL     1      35.273  -2.696  16.165  0.00  0.00    +0.000 A 
ATOM     22  C   UNL     1      34.548  -1.963  17.073  0.00  0.00    +0.000 A 
ATOM     23  C   UNL     1      34.632  -0.596  17.098  0.00  0.00    +0.000 A 
ATOM     24  C   UNL     1      35.457   0.031  16.199  0.00  0.00    +0.000 A 
ATOM     25  C   UNL     1      36.207  -0.657  15.264  0.00  0.00    +0.000 A 
ENDBRANCH  16  17
BRANCH  16  26
ATOM     26  C   UNL     1      37.537   1.184  12.351  0.00  0.00    +0.000 A 
ATOM     27  C   UNL     1      36.731   0.947  11.320  0.00  0.00    +0.000 A 
ATOM     28  C   UNL     1      37.295   0.932  10.102  0.00  0.00    +0.000 A 
ATOM     29  C   UNL     1      38.623   1.154  10.010  0.00  0.00    +0.000 A 
ATOM     30  S   UNL     1      39.061   1.386  11.672  0.00  0.00    +0.000 S 
ENDBRANCH  16  26
ENDBRANCH   1  16
TORSDOF 7
ENDMDL
MODEL 5
REMARK VINA RESULT:      -7.5      5.413      8.754
REMARK  Name = 
REMARK  7 active torsions:
REMARK  status: ('A' for Active; 'I' for Inactive)
REMARK    1  A    between atoms: C_5  and  C_6
REMARK    2  A    between atoms: C_6  and  N_7
REMARK    3  A    between atoms: C_8  and  C_10
REMARK    4  A    between atoms: N_12  and  C_13
REMARK    5  A    between atoms: C_13  and  C_14
REMARK    6  A    between atoms: C_14  and  C_15
REMARK    7  A    between atoms: C_14  and  N_20
REMARK                            x       y       z     vdW  Elec       q    Type
REMARK                         _______ _______ _______ _____ _____    ______ ____
ROOT
ATOM      1  C   UNL     1      42.488   7.104  20.604  0.00  0.00    +0.000 C 
ENDROOT
BRANCH   1   4
ATOM      2  C   UNL     1      44.313   5.894  21.653  0.00  0.00    +0.000 C 
ATOM      3  O   UNL     1      44.955   5.978  20.564  0.00  0.00    +0.000 OA
ATOM      4  N   UNL     1      43.014   6.462  21.744  0.00  0.00    +0.000 NA
BRANCH   2   6
ATOM      5  N   UNL     1      44.601   5.553  24.107  0.00  0.00    +0.000 NA
ATOM      6  C   UNL     1      44.940   5.211  22.781  0.00  0.00    +0.000 C 
ATOM      7  O   UNL     1      45.795   4.304  22.624  0.00  0.00    +0.000 OA
BRANCH   5   8
ATOM      8  C   UNL     1      45.137   4.968  25.291  0.00  0.00    +0.000 C 
BRANCH   8  13
ATOM      9  C   UNL     1      40.921   4.788  29.188  0.00  0.00    +0.000 C 
ATOM     10  C   UNL     1      42.036   4.765  28.199  0.00  0.00    +0.000 A 
ATOM     11  C   UNL     1      42.183   5.897  27.412  0.00  0.00    +0.000 A 
ATOM     12  C   UNL     1      43.212   5.909  26.479  0.00  0.00    +0.000 A 
ATOM     13  C   UNL     1      44.073   4.845  26.319  0.00  0.00    +0.000 A 
ATOM     14  C   UNL     1      43.912   3.728  27.110  0.00  0.00    +0.000 A 
ATOM     15  C   UNL     1      42.886   3.686  28.057  0.00  0.00    +0.000 A 
ENDBRANCH   8  13
ENDBRANCH   5   8
ENDBRANCH   2   6
ENDBRANCH   1   4
BRANCH   1  16
ATOM     16  C   UNL     1      41.002   6.445  20.301  0.00  0.00    +0.000 C 
BRANCH  16  17
ATOM     17  N   UNL     1      41.240   6.289  18.765  0.00  0.00    +0.000 N 
ATOM     18  C   UNL     1      42.310   6.592  17.952  0.00  0.00    +0.000 C 
ATOM     19  C   UNL     1      41.761   6.639  16.541  0.00  0.00    +0.000 C 
ATOM     20  C   UNL     1      40.449   5.915  16.633  0.00  0.00    +0.000 A 
ATOM     21  C   UNL     1      39.592   5.472  15.660  0.00  0.00    +0.000 A 
ATOM     22  C   UNL     1      38.438   4.826  16.031  0.00  0.00    +0.000 A 
ATOM     23  C   UNL     1      38.141   4.624  17.353  0.00  0.00    +0.000 A 
ATOM     24  C   UNL     1      39.019   5.079  18.303  0.00  0.00    +0.000 A 
ATOM     25  C   UNL     1      40.193   5.736  17.986  0.00  0.00    +0.000 A 
ENDBRANCH  16  17
BRANCH  16  26
ATOM     26  C   UNL     1      40.165   7.787  20.330  0.00  0.00    +0.000 A 
ATOM     27  C   UNL     1      38.876   7.946  20.620  0.00  0.00    +0.000 A 
ATOM     28  C   UNL     1      38.398   9.200  20.580  0.00  0.00    +0.000 A 
ATOM     29  C   UNL     1      39.245  10.197  20.251  0.00  0.00    +0.000 A 
ATOM     30  S   UNL     1      40.729   9.336  20.001  0.00  0.00    +0.000 S 
ENDBRANCH  16  26
ENDBRANCH   1  16
TORSDOF 7
ENDMDL
MODEL 6
REMARK VINA RESULT:      -7.5      3.128      9.553
REMARK  Name = 
REMARK  7 active torsions:
REMARK  status: ('A' for Active; 'I' for Inactive)
REMARK    1  A    between atoms: C_5  and  C_6
REMARK    2  A    between atoms: C_6  and  N_7
REMARK    3  A    between atoms: C_8  and  C_10
REMARK    4  A    between atoms: N_12  and  C_13
REMARK    5  A    between atoms: C_13  and  C_14
REMARK    6  A    between atoms: C_14  and  C_15
REMARK    7  A    between atoms: C_14  and  N_20
REMARK                            x       y       z     vdW  Elec       q    Type
REMARK                         _______ _______ _______ _____ _____    ______ ____
ROOT
ATOM      1  C   UNL     1      37.094   0.984  14.421  0.00  0.00    +0.000 C 
ENDROOT
BRANCH   1   4
ATOM      2  C   UNL     1      37.169   3.247  15.294  0.00  0.00    +0.000 C 
ATOM      3  O   UNL     1      36.229   2.941  16.087  0.00  0.00    +0.000 OA
ATOM      4  N   UNL     1      37.671   2.271  14.394  0.00  0.00    +0.000 NA
BRANCH   2   6
ATOM      5  N   UNL     1      38.110   5.177  16.564  0.00  0.00    +0.000 NA
ATOM      6  C   UNL     1      37.704   4.606  15.340  0.00  0.00    +0.000 C 
ATOM      7  O   UNL     1      37.825   5.314  14.309  0.00  0.00    +0.000 OA
BRANCH   5   8
ATOM      8  C   UNL     1      38.647   6.485  16.745  0.00  0.00    +0.000 C 
BRANCH   8  13
ATOM      9  C   UNL     1      42.877   6.412  20.630  0.00  0.00    +0.000 C 
ATOM     10  C   UNL     1      41.728   6.428  19.679  0.00  0.00    +0.000 A 
ATOM     11  C   UNL     1      42.049   6.468  18.331  0.00  0.00    +0.000 A 
ATOM     12  C   UNL     1      41.003   6.485  17.417  0.00  0.00    +0.000 A 
ATOM     13  C   UNL     1      39.682   6.464  17.809  0.00  0.00    +0.000 A 
ATOM     14  C   UNL     1      39.383   6.424  19.154  0.00  0.00    +0.000 A 
ATOM     15  C   UNL     1      40.413   6.406  20.097  0.00  0.00    +0.000 A 
ENDBRANCH   8  13
ENDBRANCH   5   8
ENDBRANCH   2   6
ENDBRANCH   1   4
BRANCH   1  16
ATOM     16  C   UNL     1      38.016   0.045  15.423  0.00  0.00    +0.000 C 
BRANCH  16  17
ATOM     17  N   UNL     1      38.377  -1.003  14.323  0.00  0.00    +0.000 N 
ATOM     18  C   UNL     1      37.608  -1.730  13.440  0.00  0.00    +0.000 C 
ATOM     19  C   UNL     1      38.480  -2.878  12.976  0.00  0.00    +0.000 C 
ATOM     20  C   UNL     1      39.874  -2.449  13.333  0.00  0.00    +0.000 A 
ATOM     21  C   UNL     1      41.094  -2.973  12.997  0.00  0.00    +0.000 A 
ATOM     22  C   UNL     1      42.233  -2.369  13.471  0.00  0.00    +0.000 A 
ATOM     23  C   UNL     1      42.158  -1.258  14.269  0.00  0.00    +0.000 A 
ATOM     24  C   UNL     1      40.922  -0.757  14.587  0.00  0.00    +0.000 A 
ATOM     25  C   UNL     1      39.745  -1.325  14.139  0.00  0.00    +0.000 A 
ENDBRANCH  16  17
BRANCH  16  26
ATOM     26  C   UNL     1      36.832  -0.703  16.160  0.00  0.00    +0.000 A 
ATOM     27  C   UNL     1      35.537  -0.400  16.153  0.00  0.00    +0.000 A 
ATOM     28  C   UNL     1      34.724  -1.201  16.860  0.00  0.00    +0.000 A 
ATOM     29  C   UNL     1      35.270  -2.244  17.519  0.00  0.00    +0.000 A 
ATOM     30  S   UNL     1      36.950  -2.075  17.124  0.00  0.00    +0.000 S 
ENDBRANCH  16  26
ENDBRANCH   1  16
TORSDOF 7
ENDMDL
MODEL 7
REMARK VINA RESULT:      -7.4     23.344     25.405
REMARK  Name = 
REMARK  7 active torsions:
REMARK  status: ('A' for Active; 'I' for Inactive)
REMARK    1  A    between atoms: C_5  and  C_6
REMARK    2  A    between atoms: C_6  and  N_7
REMARK    3  A    between atoms: C_8  and  C_10
REMARK    4  A    between atoms: N_12  and  C_13
REMARK    5  A    between atoms: C_13  and  C_14
REMARK    6  A    between atoms: C_14  and  C_15
REMARK    7  A    between atoms: C_14  and  N_20
REMARK                            x       y       z     vdW  Elec       q    Type
REMARK                         _______ _______ _______ _____ _____    ______ ____
ROOT
ATOM      1  C   UNL     1      27.721  16.014  37.928  0.00  0.00    +0.000 C 
ENDROOT
BRANCH   1   4
ATOM      2  C   UNL     1      29.848  14.850  38.041  0.00  0.00    +0.000 C 
ATOM      3  O   UNL     1      30.210  15.469  36.996  0.00  0.00    +0.000 OA
ATOM      4  N   UNL     1      28.557  15.087  38.584  0.00  0.00    +0.000 NA
BRANCH   2   6
ATOM      5  N   UNL     1      30.324  12.909  39.534  0.00  0.00    +0.000 NA
ATOM      6  C   UNL     1      30.784  13.909  38.652  0.00  0.00    +0.000 C 
ATOM      7  O   UNL     1      32.019  13.947  38.422  0.00  0.00    +0.000 OA
BRANCH   5   8
ATOM      8  C   UNL     1      31.129  11.934  40.194  0.00  0.00    +0.000 C 
BRANCH   8  13
ATOM      9  C   UNL     1      28.064   7.566  42.320  0.00  0.00    +0.000 C 
ATOM     10  C   UNL     1      28.794   8.740  41.760  0.00  0.00    +0.000 A 
ATOM     11  C   UNL     1      30.168   8.604  41.633  0.00  0.00    +0.000 A 
ATOM     12  C   UNL     1      30.880   9.678  41.116  0.00  0.00    +0.000 A 
ATOM     13  C   UNL     1      30.268  10.852  40.734  0.00  0.00    +0.000 A 
ATOM     14  C   UNL     1      28.901  10.969  40.868  0.00  0.00    +0.000 A 
ATOM     15  C   UNL     1      28.158   9.906  41.385  0.00  0.00    +0.000 A 
ENDBRANCH   8  13
ENDBRANCH   5   8
ENDBRANCH   2   6
ENDBRANCH   1   4
BRANCH   1  16
ATOM     16  C   UNL     1      26.430  15.178  37.318  0.00  0.00    +0.000 C 
BRANCH  16  17
ATOM     17  N   UNL     1      26.039  16.280  36.284  0.00  0.00    +0.000 N 
ATOM     18  C   UNL     1      25.919  17.650  36.381  0.00  0.00    +0.000 C 
ATOM     19  C   UNL     1      25.079  18.079  35.196  0.00  0.00    +0.000 C 
ATOM     20  C   UNL     1      25.148  16.913  34.254  0.00  0.00    +0.000 A 
ATOM     21  C   UNL     1      24.752  16.780  32.949  0.00  0.00    +0.000 A 
ATOM     22  C   UNL     1      24.937  15.576  32.315  0.00  0.00    +0.000 A 
ATOM     23  C   UNL     1      25.507  14.517  32.970  0.00  0.00    +0.000 A 
ATOM     24  C   UNL     1      25.893  14.681  34.276  0.00  0.00    +0.000 A 
ATOM     25  C   UNL     1      25.730  15.869  34.963  0.00  0.00    +0.000 A 
ENDBRANCH  16  17
BRANCH  16  26
ATOM     26  C   UNL     1      25.405  15.494  38.481  0.00  0.00    +0.000 A 
ATOM     27  C   UNL     1      24.180  15.004  38.651  0.00  0.00    +0.000 A 
ATOM     28  C   UNL     1      23.504  15.428  39.732  0.00  0.00    +0.000 A 
ATOM     29  C   UNL     1      24.106  16.309  40.557  0.00  0.00    +0.000 A 
ATOM     30  S   UNL     1      25.643  16.529  39.783  0.00  0.00    +0.000 S 
ENDBRANCH  16  26
ENDBRANCH   1  16
TORSDOF 7
ENDMDL
MODEL 8
REMARK VINA RESULT:      -7.3      2.360      4.646
REMARK  Name = 
REMARK  7 active torsions:
REMARK  status: ('A' for Active; 'I' for Inactive)
REMARK    1  A    between atoms: C_5  and  C_6
REMARK    2  A    between atoms: C_6  and  N_7
REMARK    3  A    between atoms: C_8  and  C_10
REMARK    4  A    between atoms: N_12  and  C_13
REMARK    5  A    between atoms: C_13  and  C_14
REMARK    6  A    between atoms: C_14  and  C_15
REMARK    7  A    between atoms: C_14  and  N_20
REMARK                            x       y       z     vdW  Elec       q    Type
REMARK                         _______ _______ _______ _____ _____    ______ ____
ROOT
ATOM      1  C   UNL     1      39.713   5.912  18.684  0.00  0.00    +0.000 C 
ENDROOT
BRANCH   1   4
ATOM      2  C   UNL     1      38.315   4.337  17.478  0.00  0.00    +0.000 C 
ATOM      3  O   UNL     1      38.233   3.644  18.536  0.00  0.00    +0.000 OA
ATOM      4  N   UNL     1      39.075   5.537  17.484  0.00  0.00    +0.000 NA
BRANCH   2   6
ATOM      5  N   UNL     1      37.311   2.501  16.120  0.00  0.00    +0.000 NA
ATOM      6  C   UNL     1      37.618   3.868  16.283  0.00  0.00    +0.000 C 
ATOM      7  O   UNL     1      37.267   4.648  15.363  0.00  0.00    +0.000 OA
BRANCH   5   8
ATOM      8  C   UNL     1      36.637   1.916  15.008  0.00  0.00    +0.000 C 
BRANCH   8  13
ATOM      9  C   UNL     1      35.113  -3.514  16.097  0.00  0.00    +0.000 C 
ATOM     10  C   UNL     1      35.464  -2.082  15.872  0.00  0.00    +0.000 A 
ATOM     11  C   UNL     1      36.343  -1.821  14.832  0.00  0.00    +0.000 A 
ATOM     12  C   UNL     1      36.691  -0.498  14.594  0.00  0.00    +0.000 A 
ATOM     13  C   UNL     1      36.196   0.541  15.351  0.00  0.00    +0.000 A 
ATOM     14  C   UNL     1      35.323   0.263  16.381  0.00  0.00    +0.000 A 
ATOM     15  C   UNL     1      34.954  -1.058  16.645  0.00  0.00    +0.000 A 
ENDBRANCH   8  13
ENDBRANCH   5   8
ENDBRANCH   2   6
ENDBRANCH   1   4
BRANCH   1  16
ATOM     16  C   UNL     1      40.591   7.280  18.375  0.00  0.00    +0.000 C 
BRANCH  16  17
ATOM     17  N   UNL     1      41.814   6.848  19.245  0.00  0.00    +0.000 N 
ATOM     18  C   UNL     1      41.928   6.440  20.556  0.00  0.00    +0.000 C 
ATOM     19  C   UNL     1      43.389   6.611  20.920  0.00  0.00    +0.000 C 
ATOM     20  C   UNL     1      44.088   6.713  19.596  0.00  0.00    +0.000 A 
ATOM     21  C   UNL     1      45.420   6.687  19.273  0.00  0.00    +0.000 A 
ATOM     22  C   UNL     1      45.789   6.802  17.955  0.00  0.00    +0.000 A 
ATOM     23  C   UNL     1      44.846   6.941  16.972  0.00  0.00    +0.000 A 
ATOM     24  C   UNL     1      43.522   6.964  17.326  0.00  0.00    +0.000 A 
ATOM     25  C   UNL     1      43.094   6.853  18.636  0.00  0.00    +0.000 A 
ENDBRANCH  16  17
BRANCH  16  26
ATOM     26  C   UNL     1      39.844   8.244  19.384  0.00  0.00    +0.000 A 
ATOM     27  C   UNL     1      38.739   8.003  20.084  0.00  0.00    +0.000 A 
ATOM     28  C   UNL     1      38.303   8.991  20.883  0.00  0.00    +0.000 A 
ATOM     29  C   UNL     1      39.005  10.141  20.918  0.00  0.00    +0.000 A 
ATOM     30  S   UNL     1      40.293   9.807  19.806  0.00  0.00    +0.000 S 
ENDBRANCH  16  26
ENDBRANCH   1  16
TORSDOF 7
ENDMDL
MODEL 9
REMARK VINA RESULT:      -7.1      2.032      2.595
REMARK  Name = 
REMARK  7 active torsions:
REMARK  status: ('A' for Active; 'I' for Inactive)
REMARK    1  A    between atoms: C_5  and  C_6
REMARK    2  A    between atoms: C_6  and  N_7
REMARK    3  A    between atoms: C_8  and  C_10
REMARK    4  A    between atoms: N_12  and  C_13
REMARK    5  A    between atoms: C_13  and  C_14
REMARK    6  A    between atoms: C_14  and  C_15
REMARK    7  A    between atoms: C_14  and  N_20
REMARK                            x       y       z     vdW  Elec       q    Type
REMARK                         _______ _______ _______ _____ _____    ______ ____
ROOT
ATOM      1  C   UNL     1      39.576   5.594  17.205  0.00  0.00    +0.000 C 
ENDROOT
BRANCH   1   4
ATOM      2  C   UNL     1      37.696   4.261  16.443  0.00  0.00    +0.000 C 
ATOM      3  O   UNL     1      37.381   5.205  15.659  0.00  0.00    +0.000 OA
ATOM      4  N   UNL     1      38.834   4.397  17.282  0.00  0.00    +0.000 NA
BRANCH   2   6
ATOM      5  N   UNL     1      36.245   2.605  15.270  0.00  0.00    +0.000 NA
ATOM      6  C   UNL     1      36.867   3.057  16.452  0.00  0.00    +0.000 C 
ATOM      7  O   UNL     1      36.676   2.383  17.495  0.00  0.00    +0.000 OA
BRANCH   5   8
ATOM      8  C   UNL     1      35.416   1.452  15.143  0.00  0.00    +0.000 C 
BRANCH   8  13
ATOM      9  C   UNL     1      38.376  -3.113  13.303  0.00  0.00    +0.000 C 
ATOM     10  C   UNL     1      37.634  -1.889  13.720  0.00  0.00    +0.000 A 
ATOM     11  C   UNL     1      36.894  -1.988  14.889  0.00  0.00    +0.000 A 
ATOM     12  C   UNL     1      36.190  -0.867  15.306  0.00  0.00    +0.000 A 
ATOM     13  C   UNL     1      36.207   0.318  14.603  0.00  0.00    +0.000 A 
ATOM     14  C   UNL     1      36.948   0.398  13.444  0.00  0.00    +0.000 A 
ATOM     15  C   UNL     1      37.667  -0.713  12.998  0.00  0.00    +0.000 A 
ENDBRANCH   8  13
ENDBRANCH   5   8
ENDBRANCH   2   6
ENDBRANCH   1   4
BRANCH   1  16
ATOM     16  C   UNL     1      39.554   6.291  18.705  0.00  0.00    +0.000 C 
BRANCH  16  17
ATOM     17  N   UNL     1      39.109   7.696  18.187  0.00  0.00    +0.000 N 
ATOM     18  C   UNL     1      38.881   8.195  16.923  0.00  0.00    +0.000 C 
ATOM     19  C   UNL     1      38.930   9.703  17.056  0.00  0.00    +0.000 C 
ATOM     20  C   UNL     1      38.759   9.949  18.526  0.00  0.00    +0.000 A 
ATOM     21  C   UNL     1      38.531  11.103  19.229  0.00  0.00    +0.000 A 
ATOM     22  C   UNL     1      38.413  11.040  20.596  0.00  0.00    +0.000 A 
ATOM     23  C   UNL     1      38.521   9.844  21.255  0.00  0.00    +0.000 A 
ATOM     24  C   UNL     1      38.749   8.706  20.524  0.00  0.00    +0.000 A 
ATOM     25  C   UNL     1      38.877   8.712  19.148  0.00  0.00    +0.000 A 
ENDBRANCH  16  17
BRANCH  16  26
ATOM     26  C   UNL     1      41.113   6.518  18.855  0.00  0.00    +0.000 A 
ATOM     27  C   UNL     1      42.020   6.656  17.892  0.00  0.00    +0.000 A 
ATOM     28  C   UNL     1      43.291   6.846  18.282  0.00  0.00    +0.000 A 
ATOM     29  C   UNL     1      43.556   6.882  19.604  0.00  0.00    +0.000 A 
ATOM     30  S   UNL     1      41.980   6.646  20.289  0.00  0.00    +0.000 S 
ENDBRANCH  16  26
ENDBRANCH   1  16
TORSDOF 7
ENDMDL
MODEL 10
REMARK VINA RESULT:      -7.0      2.998      4.860
REMARK  Name = 
REMARK  7 active torsions:
REMARK  status: ('A' for Active; 'I' for Inactive)
REMARK    1  A    between atoms: C_5  and  C_6
REMARK    2  A    between atoms: C_6  and  N_7
REMARK    3  A    between atoms: C_8  and  C_10
REMARK    4  A    between atoms: N_12  and  C_13
REMARK    5  A    between atoms: C_13  and  C_14
REMARK    6  A    between atoms: C_14  and  C_15
REMARK    7  A    between atoms: C_14  and  N_20
REMARK                            x       y       z     vdW  Elec       q    Type
REMARK                         _______ _______ _______ _____ _____    ______ ____
ROOT
ATOM      1  C   UNL     1      36.464   4.288  15.207  0.00  0.00    +0.000 C 
ENDROOT
BRANCH   1   4
ATOM      2  C   UNL     1      35.900   2.171  16.252  0.00  0.00    +0.000 C 
ATOM      3  O   UNL     1      34.719   2.600  16.417  0.00  0.00    +0.000 OA
ATOM      4  N   UNL     1      36.866   3.003  15.625  0.00  0.00    +0.000 NA
BRANCH   2   6
ATOM      5  N   UNL     1      37.188   0.045  16.046  0.00  0.00    +0.000 NA
ATOM      6  C   UNL     1      36.223   0.824  16.717  0.00  0.00    +0.000 C 
ATOM      7  O   UNL     1      35.666   0.310  17.719  0.00  0.00    +0.000 OA
BRANCH   5   8
ATOM      8  C   UNL     1      37.594  -1.276  16.395  0.00  0.00    +0.000 C 
BRANCH   8  13
ATOM      9  C   UNL     1      42.631  -2.197  13.793  0.00  0.00    +0.000 C 
ATOM     10  C   UNL     1      41.326  -2.030  14.494  0.00  0.00    +0.000 A 
ATOM     11  C   UNL     1      40.717  -0.790  14.372  0.00  0.00    +0.000 A 
ATOM     12  C   UNL     1      39.500  -0.600  15.013  0.00  0.00    +0.000 A 
ATOM     13  C   UNL     1      38.894  -1.592  15.753  0.00  0.00    +0.000 A 
ATOM     14  C   UNL     1      39.514  -2.818  15.864  0.00  0.00    +0.000 A 
ATOM     15  C   UNL     1      40.739  -3.040  15.230  0.00  0.00    +0.000 A 
ENDBRANCH   8  13
ENDBRANCH   5   8
ENDBRANCH   2   6
ENDBRANCH   1   4
BRANCH   1  16
ATOM     16  C   UNL     1      37.805   5.069  14.634  0.00  0.00    +0.000 C 
BRANCH  16  17
ATOM     17  N   UNL     1      37.643   6.307  15.571  0.00  0.00    +0.000 N 
ATOM     18  C   UNL     1      37.008   7.520  15.413  0.00  0.00    +0.000 C 
ATOM     19  C   UNL     1      37.596   8.439  16.464  0.00  0.00    +0.000 C 
ATOM     20  C   UNL     1      38.244   7.507  17.446  0.00  0.00    +0.000 A 
ATOM     21  C   UNL     1      38.768   7.728  18.693  0.00  0.00    +0.000 A 
ATOM     22  C   UNL     1      39.310   6.674  19.386  0.00  0.00    +0.000 A 
ATOM     23  C   UNL     1      39.333   5.416  18.845  0.00  0.00    +0.000 A 
ATOM     24  C   UNL     1      38.801   5.226  17.596  0.00  0.00    +0.000 A 
ATOM     25  C   UNL     1      38.243   6.250  16.854  0.00  0.00    +0.000 A 
ENDBRANCH  16  17
BRANCH  16  26
ATOM     26  C   UNL     1      37.169   5.630  13.298  0.00  0.00    +0.000 A 
ATOM     27  C   UNL     1      35.911   5.524  12.879  0.00  0.00    +0.000 A 
ATOM     28  C   UNL     1      35.616   6.097  11.701  0.00  0.00    +0.000 A 
ATOM     29  C   UNL     1      36.602   6.731  11.034  0.00  0.00    +0.000 A 
ATOM     30  S   UNL     1      37.954   6.506  12.097  0.00  0.00    +0.000 S 
ENDBRANCH  16  26
ENDBRANCH   1  16
TORSDOF 7
ENDMDL
