MODEL 1
REMARK VINA RESULT:      -6.2      0.000      0.000
REMARK  Name = 
REMARK  2 active torsions:
REMARK  status: ('A' for Active; 'I' for Inactive)
REMARK    1  A    between atoms: N_11  and  C_12
REMARK    2  A    between atoms: C_12  and  C_13
REMARK                            x       y       z     vdW  Elec       q    Type
REMARK                         _______ _______ _______ _____ _____    ______ ____
ROOT
ATOM      1  C   UNL     1      29.803  26.379  23.570  0.00  0.00    +0.000 C 
ATOM      2  C   UNL     1      30.201  24.785  23.331  0.00  0.00    +0.000 C 
ATOM      3  C   UNL     1      31.065  24.746  24.751  0.00  0.00    +0.000 C 
ATOM      4  C   UNL     1      31.626  23.329  24.655  0.00  0.00    +0.000 C 
ATOM      5  C   UNL     1      30.453  22.361  24.548  0.00  0.00    +0.000 C 
ATOM      6  C   UNL     1      29.235  23.120  24.985  0.00  0.00    +0.000 C 
ATOM      7  C   UNL     1      28.844  24.185  23.999  0.00  0.00    +0.000 C 
ATOM      8  N   UNL     1      28.187  23.514  22.894  0.00  0.00    +0.000 NA
ATOM      9  C   UNL     1      26.797  23.657  23.188  0.00  0.00    +0.000 C 
ATOM     10  O   UNL     1      25.871  22.966  22.662  0.00  0.00    +0.000 OA
ATOM     11  N   UNL     1      26.654  24.703  24.169  0.00  0.00    +0.000 N 
ATOM     12  C   UNL     1      27.923  25.160  24.473  0.00  0.00    +0.000 C 
ATOM     13  O   UNL     1      28.118  26.217  25.086  0.00  0.00    +0.000 OA
ENDROOT
BRANCH  11  14
ATOM     14  C   UNL     1      25.332  25.110  24.655  0.00  0.00    +0.000 C 
BRANCH  14  15
ATOM     15  C   UNL     1      25.350  24.844  26.269  0.00  0.00    +0.000 A 
ATOM     16  C   UNL     1      25.093  25.976  26.906  0.00  0.00    +0.000 A 
ATOM     17  C   UNL     1      25.495  25.842  28.301  0.00  0.00    +0.000 A 
ATOM     18  C   UNL     1      26.067  24.677  28.743  0.00  0.00    +0.000 A 
ATOM     19  C   UNL     1      26.224  23.564  27.872  0.00  0.00    +0.000 A 
ATOM     20  C   UNL     1      25.794  23.791  26.567  0.00  0.00    +0.000 A 
ATOM     21  F   UNL     1      25.840  22.601  25.780  0.00  0.00    +0.000 F 
ENDBRANCH  14  15
ENDBRANCH  11  14
TORSDOF 2
ENDMDL
MODEL 2
REMARK VINA RESULT:      -6.2     16.183     18.397
REMARK  Name = 
REMARK  2 active torsions:
REMARK  status: ('A' for Active; 'I' for Inactive)
REMARK    1  A    between atoms: N_11  and  C_12
REMARK    2  A    between atoms: C_12  and  C_13
REMARK                            x       y       z     vdW  Elec       q    Type
REMARK                         _______ _______ _______ _____ _____    ______ ____
ROOT
ATOM      1  C   UNL     1      33.675  23.102  10.101  0.00  0.00    +0.000 C 
ATOM      2  C   UNL     1      33.284  21.832  11.096  0.00  0.00    +0.000 C 
ATOM      3  C   UNL     1      31.835  22.540  11.499  0.00  0.00    +0.000 C 
ATOM      4  C   UNL     1      31.352  21.530  12.538  0.00  0.00    +0.000 C 
ATOM      5  C   UNL     1      31.274  20.163  11.867  0.00  0.00    +0.000 C 
ATOM      6  C   UNL     1      31.302  20.412  10.389  0.00  0.00    +0.000 C 
ATOM      7  C   UNL     1      32.643  20.907   9.920  0.00  0.00    +0.000 C 
ATOM      8  N   UNL     1      33.523  19.755   9.873  0.00  0.00    +0.000 NA
ATOM      9  C   UNL     1      33.493  19.360   8.501  0.00  0.00    +0.000 C 
ATOM     10  O   UNL     1      33.867  18.228   8.066  0.00  0.00    +0.000 OA
ATOM     11  N   UNL     1      32.969  20.462   7.732  0.00  0.00    +0.000 N 
ATOM     12  C   UNL     1      32.671  21.480   8.618  0.00  0.00    +0.000 C 
ATOM     13  O   UNL     1      32.446  22.638   8.247  0.00  0.00    +0.000 OA
ENDROOT
BRANCH  11  14
ATOM     14  C   UNL     1      32.843  20.375   6.275  0.00  0.00    +0.000 C 
BRANCH  14  15
ATOM     15  C   UNL     1      31.255  20.117   5.979  0.00  0.00    +0.000 A 
ATOM     16  C   UNL     1      30.968  18.842   6.189  0.00  0.00    +0.000 A 
ATOM     17  C   UNL     1      29.692  18.528   5.557  0.00  0.00    +0.000 A 
ATOM     18  C   UNL     1      29.015  19.493   4.858  0.00  0.00    +0.000 A 
ATOM     19  C   UNL     1      29.510  20.824   4.785  0.00  0.00    +0.000 A 
ATOM     20  C   UNL     1      30.725  21.022   5.435  0.00  0.00    +0.000 A 
ATOM     21  F   UNL     1      31.098  22.399   5.453  0.00  0.00    +0.000 F 
ENDBRANCH  14  15
ENDBRANCH  11  14
TORSDOF 2
ENDMDL
MODEL 3
REMARK VINA RESULT:      -6.0      1.926      3.326
REMARK  Name = 
REMARK  2 active torsions:
REMARK  status: ('A' for Active; 'I' for Inactive)
REMARK    1  A    between atoms: N_11  and  C_12
REMARK    2  A    between atoms: C_12  and  C_13
REMARK                            x       y       z     vdW  Elec       q    Type
REMARK                         _______ _______ _______ _____ _____    ______ ____
ROOT
ATOM      1  C   UNL     1      30.055  24.104  23.643  0.00  0.00    +0.000 C 
ATOM      2  C   UNL     1      29.607  25.575  23.017  0.00  0.00    +0.000 C 
ATOM      3  C   UNL     1      29.430  24.922  21.499  0.00  0.00    +0.000 C 
ATOM      4  C   UNL     1      29.111  26.198  20.722  0.00  0.00    +0.000 C 
ATOM      5  C   UNL     1      27.867  26.828  21.337  0.00  0.00    +0.000 C 
ATOM      6  C   UNL     1      27.220  25.764  22.173  0.00  0.00    +0.000 C 
ATOM      7  C   UNL     1      28.030  25.429  23.395  0.00  0.00    +0.000 C 
ATOM      8  N   UNL     1      27.808  26.496  24.351  0.00  0.00    +0.000 NA
ATOM      9  C   UNL     1      26.795  25.975  25.213  0.00  0.00    +0.000 C 
ATOM     10  O   UNL     1      26.081  26.674  25.996  0.00  0.00    +0.000 OA
ATOM     11  N   UNL     1      26.742  24.547  25.024  0.00  0.00    +0.000 N 
ATOM     12  C   UNL     1      27.679  24.222  24.061  0.00  0.00    +0.000 C 
ATOM     13  O   UNL     1      28.050  23.059  23.861  0.00  0.00    +0.000 OA
ENDROOT
BRANCH  11  14
ATOM     14  C   UNL     1      25.815  23.715  25.797  0.00  0.00    +0.000 C 
BRANCH  14  15
ATOM     15  C   UNL     1      26.491  23.553  27.277  0.00  0.00    +0.000 A 
ATOM     16  C   UNL     1      27.557  22.773  27.194  0.00  0.00    +0.000 A 
ATOM     17  C   UNL     1      27.916  22.307  28.527  0.00  0.00    +0.000 A 
ATOM     18  C   UNL     1      27.161  22.675  29.610  0.00  0.00    +0.000 A 
ATOM     19  C   UNL     1      26.055  23.557  29.464  0.00  0.00    +0.000 A 
ATOM     20  C   UNL     1      25.807  23.955  28.153  0.00  0.00    +0.000 A 
ATOM     21  F   UNL     1      24.785  24.949  28.086  0.00  0.00    +0.000 F 
ENDBRANCH  14  15
ENDBRANCH  11  14
TORSDOF 2
ENDMDL
MODEL 4
REMARK VINA RESULT:      -5.9     16.212     18.450
REMARK  Name = 
REMARK  2 active torsions:
REMARK  status: ('A' for Active; 'I' for Inactive)
REMARK    1  A    between atoms: N_11  and  C_12
REMARK    2  A    between atoms: C_12  and  C_13
REMARK                            x       y       z     vdW  Elec       q    Type
REMARK                         _______ _______ _______ _____ _____    ______ ____
ROOT
ATOM      1  C   UNL     1      29.516  21.603  10.611  0.00  0.00    +0.000 C 
ATOM      2  C   UNL     1      31.086  21.880  11.074  0.00  0.00    +0.000 C 
ATOM      3  C   UNL     1      31.139  20.439  11.901  0.00  0.00    +0.000 C 
ATOM      4  C   UNL     1      32.531  20.564  12.517  0.00  0.00    +0.000 C 
ATOM      5  C   UNL     1      33.537  20.732  11.383  0.00  0.00    +0.000 C 
ATOM      6  C   UNL     1      32.837  20.305  10.128  0.00  0.00    +0.000 C 
ATOM      7  C   UNL     1      31.756  21.268   9.722  0.00  0.00    +0.000 C 
ATOM      8  N   UNL     1      32.415  22.410   9.120  0.00  0.00    +0.000 NA
ATOM      9  C   UNL     1      32.332  22.150   7.718  0.00  0.00    +0.000 C 
ATOM     10  O   UNL     1      33.038  22.723   6.833  0.00  0.00    +0.000 OA
ATOM     11  N   UNL     1      31.323  21.141   7.512  0.00  0.00    +0.000 N 
ATOM     12  C   UNL     1      30.830  20.789   8.754  0.00  0.00    +0.000 C 
ATOM     13  O   UNL     1      29.787  20.139   8.894  0.00  0.00    +0.000 OA
ENDROOT
BRANCH  11  14
ATOM     14  C   UNL     1      30.980  20.679   6.164  0.00  0.00    +0.000 C 
BRANCH  14  15
ATOM     15  C   UNL     1      31.280  19.071   6.154  0.00  0.00    +0.000 A 
ATOM     16  C   UNL     1      32.566  18.860   6.387  0.00  0.00    +0.000 A 
ATOM     17  C   UNL     1      32.908  17.500   5.990  0.00  0.00    +0.000 A 
ATOM     18  C   UNL     1      31.953  16.683   5.444  0.00  0.00    +0.000 A 
ATOM     19  C   UNL     1      30.607  17.120   5.310  0.00  0.00    +0.000 A 
ATOM     20  C   UNL     1      30.383  18.427   5.733  0.00  0.00    +0.000 A 
ATOM     21  F   UNL     1      28.995  18.761   5.711  0.00  0.00    +0.000 F 
ENDBRANCH  14  15
ENDBRANCH  11  14
TORSDOF 2
ENDMDL
MODEL 5
REMARK VINA RESULT:      -5.8     33.852     35.227
REMARK  Name = 
REMARK  2 active torsions:
REMARK  status: ('A' for Active; 'I' for Inactive)
REMARK    1  A    between atoms: N_11  and  C_12
REMARK    2  A    between atoms: C_12  and  C_13
REMARK                            x       y       z     vdW  Elec       q    Type
REMARK                         _______ _______ _______ _____ _____    ______ ____
ROOT
ATOM      1  C   UNL     1      19.639 -12.479  28.451  0.00  0.00    +0.000 C 
ATOM      2  C   UNL     1      18.463 -12.104  29.561  0.00  0.00    +0.000 C 
ATOM      3  C   UNL     1      19.585 -11.423  30.581  0.00  0.00    +0.000 C 
ATOM      4  C   UNL     1      18.674 -11.100  31.763  0.00  0.00    +0.000 C 
ATOM      5  C   UNL     1      17.563 -10.180  31.267  0.00  0.00    +0.000 C 
ATOM      6  C   UNL     1      18.021  -9.634  29.948  0.00  0.00    +0.000 C 
ATOM      7  C   UNL     1      18.049 -10.687  28.874  0.00  0.00    +0.000 C 
ATOM      8  N   UNL     1      16.677 -10.897  28.457  0.00  0.00    +0.000 NA
ATOM      9  C   UNL     1      16.551 -10.092  27.284  0.00  0.00    +0.000 C 
ATOM     10  O   UNL     1      15.449  -9.732  26.768  0.00  0.00    +0.000 OA
ATOM     11  N   UNL     1      17.878  -9.774  26.818  0.00  0.00    +0.000 N 
ATOM     12  C   UNL     1      18.774 -10.353  27.697  0.00  0.00    +0.000 C 
ATOM     13  O   UNL     1      19.977 -10.476  27.433  0.00  0.00    +0.000 OA
ENDROOT
BRANCH  11  14
ATOM     14  C   UNL     1      18.083  -8.979  25.604  0.00  0.00    +0.000 C 
BRANCH  14  15
ATOM     15  C   UNL     1      18.697  -7.549  26.106  0.00  0.00    +0.000 A 
ATOM     16  C   UNL     1      17.746  -6.844  26.699  0.00  0.00    +0.000 A 
ATOM     17  C   UNL     1      18.165  -5.450  26.783  0.00  0.00    +0.000 A 
ATOM     18  C   UNL     1      19.372  -5.063  26.262  0.00  0.00    +0.000 A 
ATOM     19  C   UNL     1      20.258  -6.014  25.685  0.00  0.00    +0.000 A 
ATOM     20  C   UNL     1      19.769  -7.317  25.668  0.00  0.00    +0.000 A 
ATOM     21  F   UNL     1      20.753  -8.246  25.214  0.00  0.00    +0.000 F 
ENDBRANCH  14  15
ENDBRANCH  11  14
TORSDOF 2
ENDMDL
MODEL 6
REMARK VINA RESULT:      -5.7      2.130      3.689
REMARK  Name = 
REMARK  2 active torsions:
REMARK  status: ('A' for Active; 'I' for Inactive)
REMARK    1  A    between atoms: N_11  and  C_12
REMARK    2  A    between atoms: C_12  and  C_13
REMARK                            x       y       z     vdW  Elec       q    Type
REMARK                         _______ _______ _______ _____ _____    ______ ____
ROOT
ATOM      1  C   UNL     1      27.048  27.912  23.265  0.00  0.00    +0.000 C 
ATOM      2  C   UNL     1      27.468  27.179  21.836  0.00  0.00    +0.000 C 
ATOM      3  C   UNL     1      29.033  27.724  21.969  0.00  0.00    +0.000 C 
ATOM      4  C   UNL     1      29.579  27.222  20.634  0.00  0.00    +0.000 C 
ATOM      5  C   UNL     1      29.391  25.710  20.585  0.00  0.00    +0.000 C 
ATOM      6  C   UNL     1      29.131  25.268  21.994  0.00  0.00    +0.000 C 
ATOM      7  C   UNL     1      27.791  25.727  22.498  0.00  0.00    +0.000 C 
ATOM      8  N   UNL     1      26.798  24.853  21.904  0.00  0.00    +0.000 NA
ATOM      9  C   UNL     1      26.544  23.884  22.922  0.00  0.00    +0.000 C 
ATOM     10  O   UNL     1      25.981  22.764  22.732  0.00  0.00    +0.000 OA
ATOM     11  N   UNL     1      27.041  24.410  24.170  0.00  0.00    +0.000 N 
ATOM     12  C   UNL     1      27.596  25.648  23.905  0.00  0.00    +0.000 C 
ATOM     13  O   UNL     1      27.876  26.455  24.799  0.00  0.00    +0.000 OA
ENDROOT
BRANCH  11  14
ATOM     14  C   UNL     1      26.899  23.656  25.419  0.00  0.00    +0.000 C 
BRANCH  14  15
ATOM     15  C   UNL     1      28.421  23.407  25.964  0.00  0.00    +0.000 A 
ATOM     16  C   UNL     1      29.116  22.750  25.049  0.00  0.00    +0.000 A 
ATOM     17  C   UNL     1      30.309  22.185  25.668  0.00  0.00    +0.000 A 
ATOM     18  C   UNL     1      30.537  22.360  27.008  0.00  0.00    +0.000 A 
ATOM     19  C   UNL     1      29.652  23.138  27.804  0.00  0.00    +0.000 A 
ATOM     20  C   UNL     1      28.554  23.645  27.113  0.00  0.00    +0.000 A 
ATOM     21  F   UNL     1      27.784  24.533  27.922  0.00  0.00    +0.000 F 
ENDBRANCH  14  15
ENDBRANCH  11  14
TORSDOF 2
ENDMDL
MODEL 7
REMARK VINA RESULT:      -5.7      2.462      4.916
REMARK  Name = 
REMARK  2 active torsions:
REMARK  status: ('A' for Active; 'I' for Inactive)
REMARK    1  A    between atoms: N_11  and  C_12
REMARK    2  A    between atoms: C_12  and  C_13
REMARK                            x       y       z     vdW  Elec       q    Type
REMARK                         _______ _______ _______ _____ _____    ______ ____
ROOT
ATOM      1  C   UNL     1      29.101  22.618  25.859  0.00  0.00    +0.000 C 
ATOM      2  C   UNL     1      27.584  22.708  26.527  0.00  0.00    +0.000 C 
ATOM      3  C   UNL     1      28.017  24.032  27.434  0.00  0.00    +0.000 C 
ATOM      4  C   UNL     1      26.729  24.209  28.235  0.00  0.00    +0.000 C 
ATOM      5  C   UNL     1      25.582  24.408  27.251  0.00  0.00    +0.000 C 
ATOM      6  C   UNL     1      26.208  24.757  25.934  0.00  0.00    +0.000 C 
ATOM      7  C   UNL     1      26.937  23.592  25.323  0.00  0.00    +0.000 C 
ATOM      8  N   UNL     1      25.930  22.716  24.758  0.00  0.00    +0.000 NA
ATOM      9  C   UNL     1      25.904  23.074  23.376  0.00  0.00    +0.000 C 
ATOM     10  O   UNL     1      24.967  22.785  22.570  0.00  0.00    +0.000 OA
ATOM     11  N   UNL     1      27.110  23.808  23.084  0.00  0.00    +0.000 N 
ATOM     12  C   UNL     1      27.829  23.908  24.260  0.00  0.00    +0.000 C 
ATOM     13  O   UNL     1      29.016  24.255  24.285  0.00  0.00    +0.000 OA
ENDROOT
BRANCH  11  14
ATOM     14  C   UNL     1      27.393  24.291  21.729  0.00  0.00    +0.000 C 
BRANCH  14  15
ATOM     15  C   UNL     1      27.906  25.834  21.903  0.00  0.00    +0.000 A 
ATOM     16  C   UNL     1      26.958  26.551  22.486  0.00  0.00    +0.000 A 
ATOM     17  C   UNL     1      27.237  27.968  22.283  0.00  0.00    +0.000 A 
ATOM     18  C   UNL     1      28.331  28.356  21.555  0.00  0.00    +0.000 A 
ATOM     19  C   UNL     1      29.242  27.395  21.036  0.00  0.00    +0.000 A 
ATOM     20  C   UNL     1      28.893  26.073  21.299  0.00  0.00    +0.000 A 
ATOM     21  F   UNL     1      29.912  25.164  20.885  0.00  0.00    +0.000 F 
ENDBRANCH  14  15
ENDBRANCH  11  14
TORSDOF 2
ENDMDL
MODEL 8
REMARK VINA RESULT:      -5.7      1.570      2.243
REMARK  Name = 
REMARK  2 active torsions:
REMARK  status: ('A' for Active; 'I' for Inactive)
REMARK    1  A    between atoms: N_11  and  C_12
REMARK    2  A    between atoms: C_12  and  C_13
REMARK                            x       y       z     vdW  Elec       q    Type
REMARK                         _______ _______ _______ _____ _____    ______ ____
ROOT
ATOM      1  C   UNL     1      29.833  26.445  26.215  0.00  0.00    +0.000 C 
ATOM      2  C   UNL     1      30.858  25.811  25.073  0.00  0.00    +0.000 C 
ATOM      3  C   UNL     1      31.943  25.349  26.244  0.00  0.00    +0.000 C 
ATOM      4  C   UNL     1      33.059  24.818  25.346  0.00  0.00    +0.000 C 
ATOM      5  C   UNL     1      32.479  23.704  24.481  0.00  0.00    +0.000 C 
ATOM      6  C   UNL     1      31.188  23.295  25.123  0.00  0.00    +0.000 C 
ATOM      7  C   UNL     1      30.130  24.357  25.002  0.00  0.00    +0.000 C 
ATOM      8  N   UNL     1      29.624  24.294  23.645  0.00  0.00    +0.000 NA
ATOM      9  C   UNL     1      28.437  23.509  23.761  0.00  0.00    +0.000 C 
ATOM     10  O   UNL     1      27.844  22.945  22.790  0.00  0.00    +0.000 OA
ATOM     11  N   UNL     1      28.057  23.479  25.151  0.00  0.00    +0.000 N 
ATOM     12  C   UNL     1      29.000  24.206  25.853  0.00  0.00    +0.000 C 
ATOM     13  O   UNL     1      28.819  24.578  27.019  0.00  0.00    +0.000 OA
ENDROOT
BRANCH  11  14
ATOM     14  C   UNL     1      26.850  22.773  25.591  0.00  0.00    +0.000 C 
BRANCH  14  15
ATOM     15  C   UNL     1      25.745  23.935  25.909  0.00  0.00    +0.000 A 
ATOM     16  C   UNL     1      25.432  24.566  24.789  0.00  0.00    +0.000 A 
ATOM     17  C   UNL     1      24.777  25.827  25.115  0.00  0.00    +0.000 A 
ATOM     18  C   UNL     1      24.604  26.193  26.425  0.00  0.00    +0.000 A 
ATOM     19  C   UNL     1      25.003  25.330  27.483  0.00  0.00    +0.000 A 
ATOM     20  C   UNL     1      25.602  24.146  27.063  0.00  0.00    +0.000 A 
ATOM     21  F   UNL     1      25.847  23.260  28.155  0.00  0.00    +0.000 F 
ENDBRANCH  14  15
ENDBRANCH  11  14
TORSDOF 2
ENDMDL
MODEL 9
REMARK VINA RESULT:      -5.7      1.908      5.389
REMARK  Name = 
REMARK  2 active torsions:
REMARK  status: ('A' for Active; 'I' for Inactive)
REMARK    1  A    between atoms: N_11  and  C_12
REMARK    2  A    between atoms: C_12  and  C_13
REMARK                            x       y       z     vdW  Elec       q    Type
REMARK                         _______ _______ _______ _____ _____    ______ ____
ROOT
ATOM      1  C   UNL     1      26.632  23.666  27.684  0.00  0.00    +0.000 C 
ATOM      2  C   UNL     1      25.299  24.092  26.790  0.00  0.00    +0.000 C 
ATOM      3  C   UNL     1      25.249  25.593  27.503  0.00  0.00    +0.000 C 
ATOM      4  C   UNL     1      23.968  26.123  26.862  0.00  0.00    +0.000 C 
ATOM      5  C   UNL     1      24.150  26.097  25.349  0.00  0.00    +0.000 C 
ATOM      6  C   UNL     1      25.622  25.957  25.100  0.00  0.00    +0.000 C 
ATOM      7  C   UNL     1      26.140  24.602  25.493  0.00  0.00    +0.000 C 
ATOM      8  N   UNL     1      25.745  23.680  24.446  0.00  0.00    +0.000 NA
ATOM      9  C   UNL     1      26.907  23.584  23.621  0.00  0.00    +0.000 C 
ATOM     10  O   UNL     1      26.917  23.136  22.434  0.00  0.00    +0.000 OA
ATOM     11  N   UNL     1      28.030  24.083  24.375  0.00  0.00    +0.000 N 
ATOM     12  C   UNL     1      27.554  24.488  25.608  0.00  0.00    +0.000 C 
ATOM     13  O   UNL     1      28.303  24.723  26.564  0.00  0.00    +0.000 OA
ENDROOT
BRANCH  11  14
ATOM     14  C   UNL     1      29.381  24.087  23.807  0.00  0.00    +0.000 C 
BRANCH  14  15
ATOM     15  C   UNL     1      29.546  25.531  23.057  0.00  0.00    +0.000 A 
ATOM     16  C   UNL     1      29.658  26.489  23.964  0.00  0.00    +0.000 A 
ATOM     17  C   UNL     1      29.404  27.778  23.333  0.00  0.00    +0.000 A 
ATOM     18  C   UNL     1      29.079  27.840  22.002  0.00  0.00    +0.000 A 
ATOM     19  C   UNL     1      29.042  26.664  21.204  0.00  0.00    +0.000 A 
ATOM     20  C   UNL     1      29.315  25.489  21.899  0.00  0.00    +0.000 A 
ATOM     21  F   UNL     1      29.407  24.365  21.024  0.00  0.00    +0.000 F 
ENDBRANCH  14  15
ENDBRANCH  11  14
TORSDOF 2
ENDMDL
MODEL 10
REMARK VINA RESULT:      -5.6      1.588      2.156
REMARK  Name = 
REMARK  2 active torsions:
REMARK  status: ('A' for Active; 'I' for Inactive)
REMARK    1  A    between atoms: N_11  and  C_12
REMARK    2  A    between atoms: C_12  and  C_13
REMARK                            x       y       z     vdW  Elec       q    Type
REMARK                         _______ _______ _______ _____ _____    ______ ____
ROOT
ATOM      1  C   UNL     1      31.695  25.125  24.906  0.00  0.00    +0.000 C 
ATOM      2  C   UNL     1      31.340  23.531  25.201  0.00  0.00    +0.000 C 
ATOM      3  C   UNL     1      31.297  23.801  26.841  0.00  0.00    +0.000 C 
ATOM      4  C   UNL     1      31.081  22.367  27.318  0.00  0.00    +0.000 C 
ATOM      5  C   UNL     1      29.796  21.846  26.683  0.00  0.00    +0.000 C 
ATOM      6  C   UNL     1      29.050  23.047  26.185  0.00  0.00    +0.000 C 
ATOM      7  C   UNL     1      29.732  23.694  25.010  0.00  0.00    +0.000 C 
ATOM      8  N   UNL     1      29.440  22.872  23.852  0.00  0.00    +0.000 NA
ATOM      9  C   UNL     1      28.339  23.537  23.232  0.00  0.00    +0.000 C 
ATOM     10  O   UNL     1      27.567  23.012  22.372  0.00  0.00    +0.000 OA
ATOM     11  N   UNL     1      28.274  24.877  23.759  0.00  0.00    +0.000 N 
ATOM     12  C   UNL     1      29.293  25.007  24.685  0.00  0.00    +0.000 C 
ATOM     13  O   UNL     1      29.657  26.106  25.121  0.00  0.00    +0.000 OA
ENDROOT
BRANCH  11  14
ATOM     14  C   UNL     1      27.260  25.827  23.291  0.00  0.00    +0.000 C 
BRANCH  14  15
ATOM     15  C   UNL     1      26.255  26.065  24.559  0.00  0.00    +0.000 A 
ATOM     16  C   UNL     1      26.539  27.222  25.137  0.00  0.00    +0.000 A 
ATOM     17  C   UNL     1      25.942  27.253  26.466  0.00  0.00    +0.000 A 
ATOM     18  C   UNL     1      25.244  26.169  26.932  0.00  0.00    +0.000 A 
ATOM     19  C   UNL     1      25.040  25.025  26.112  0.00  0.00    +0.000 A 
ATOM     20  C   UNL     1      25.637  25.103  24.858  0.00  0.00    +0.000 A 
ATOM     21  F   UNL     1      25.279  23.997  24.030  0.00  0.00    +0.000 F 
ENDBRANCH  14  15
ENDBRANCH  11  14
TORSDOF 2
ENDMDL
