MODEL 1
REMARK VINA RESULT:      -8.2      0.000      0.000
REMARK  Name = 
REMARK  7 active torsions:
REMARK  status: ('A' for Active; 'I' for Inactive)
REMARK    1  A    between atoms: C_2  and  C_4
REMARK    2  A    between atoms: C_4  and  N_5
REMARK    3  A    between atoms: C_8  and  C_9
REMARK    4  A    between atoms: N_11  and  C_12
REMARK    5  A    between atoms: C_12  and  C_14
REMARK    6  A    between atoms: C_14  and  C_15
REMARK    7  A    between atoms: C_15  and  C_16
REMARK                            x       y       z     vdW  Elec       q    Type
REMARK                         _______ _______ _______ _____ _____    ______ ____
ROOT
ATOM      1  N   UNL     1      36.096   0.907  15.842  0.00  0.00    +0.000 N 
ATOM      2  C   UNL     1      36.134   2.233  15.592  0.00  0.00    +0.000 A 
ATOM      3  N   UNL     1      35.003   3.064  15.829  0.00  0.00    +0.000 NA
ATOM      4  C   UNL     1      37.385   2.604  15.097  0.00  0.00    +0.000 A 
ATOM      5  C   UNL     1      38.125   1.463  15.047  0.00  0.00    +0.000 A 
ATOM      6  N   UNL     1      39.401   1.261  14.642  0.00  0.00    +0.000 NA
ATOM      7  C   UNL     1      39.895   0.013  14.689  0.00  0.00    +0.000 A 
ATOM      8  C   UNL     1      41.197  -0.273  14.288  0.00  0.00    +0.000 A 
ATOM      9  C   UNL     1      41.718  -1.553  14.330  0.00  0.00    +0.000 A 
ATOM     10  C   UNL     1      40.954  -2.610  14.782  0.00  0.00    +0.000 A 
ATOM     11  C   UNL     1      39.670  -2.331  15.178  0.00  0.00    +0.000 A 
ATOM     12  C   UNL     1      39.146  -1.050  15.136  0.00  0.00    +0.000 A 
ATOM     13  N   UNL     1      37.871  -0.803  15.534  0.00  0.00    +0.000 NA
ATOM     14  C   UNL     1      37.326   0.455  15.500  0.00  0.00    +0.000 A 
ENDROOT
BRANCH   4  15
ATOM     15  C   UNL     1      37.743   3.967  14.739  0.00  0.00    +0.000 C 
ATOM     16  O   UNL     1      37.975   4.199  13.477  0.00  0.00    +0.000 OA
ATOM     17  N   UNL     1      37.858   5.013  15.591  0.00  0.00    +0.000 NA
BRANCH  17  18
ATOM     18  C   UNL     1      38.232   6.452  15.193  0.00  0.00    +0.000 C 
ATOM     19  C   UNL     1      36.743   6.993  14.870  0.00  0.00    +0.000 C 
BRANCH  18  20
ATOM     20  C   UNL     1      38.252   7.039  16.715  0.00  0.00    +0.000 C 
BRANCH  20  21
ATOM     21  C   UNL     1      38.700   5.918  17.617  0.00  0.00    +0.000 C 
BRANCH  21  22
ATOM     22  C   UNL     1      40.021   6.175  18.227  0.00  0.00    +0.000 A 
ATOM     23  C   UNL     1      40.103   6.224  19.602  0.00  0.00    +0.000 A 
ATOM     24  C   UNL     1      41.295   6.450  20.274  0.00  0.00    +0.000 A 
ATOM     25  C   UNL     1      42.465   6.637  19.559  0.00  0.00    +0.000 A 
ATOM     26  C   UNL     1      42.399   6.589  18.189  0.00  0.00    +0.000 A 
ATOM     27  C   UNL     1      41.197   6.362  17.517  0.00  0.00    +0.000 A 
ENDBRANCH  21  22
ENDBRANCH  20  21
ENDBRANCH  18  20
ENDBRANCH  17  18
ENDBRANCH   4  15
BRANCH   1  28
ATOM     28  C   UNL     1      35.112   0.050  16.342  0.00  0.00    +0.000 C 
BRANCH  28  30
ATOM     29  C   UNL     1      35.739  -0.153  18.784  0.00  0.00    +0.000 C 
ATOM     30  C   UNL     1      34.986  -0.537  17.575  0.00  0.00    +0.000 C 
ATOM     31  C   UNL     1      35.104  -2.073  17.429  0.00  0.00    +0.000 C 
ENDBRANCH  28  30
ENDBRANCH   1  28
TORSDOF 7
ENDMDL
MODEL 2
REMARK VINA RESULT:      -8.0      4.198      6.755
REMARK  Name = 
REMARK  7 active torsions:
REMARK  status: ('A' for Active; 'I' for Inactive)
REMARK    1  A    between atoms: C_2  and  C_4
REMARK    2  A    between atoms: C_4  and  N_5
REMARK    3  A    between atoms: C_8  and  C_9
REMARK    4  A    between atoms: N_11  and  C_12
REMARK    5  A    between atoms: C_12  and  C_14
REMARK    6  A    between atoms: C_14  and  C_15
REMARK    7  A    between atoms: C_15  and  C_16
REMARK                            x       y       z     vdW  Elec       q    Type
REMARK                         _______ _______ _______ _____ _____    ______ ____
ROOT
ATOM      1  N   UNL     1      38.450  -1.975  16.576  0.00  0.00    +0.000 N 
ATOM      2  C   UNL     1      39.494  -2.144  15.737  0.00  0.00    +0.000 A 
ATOM      3  N   UNL     1      40.401  -3.230  15.891  0.00  0.00    +0.000 NA
ATOM      4  C   UNL     1      39.516  -1.135  14.772  0.00  0.00    +0.000 A 
ATOM      5  C   UNL     1      38.449  -0.332  15.041  0.00  0.00    +0.000 A 
ATOM      6  N   UNL     1      38.014   0.787  14.417  0.00  0.00    +0.000 NA
ATOM      7  C   UNL     1      36.920   1.400  14.896  0.00  0.00    +0.000 A 
ATOM      8  C   UNL     1      36.413   2.557  14.309  0.00  0.00    +0.000 A 
ATOM      9  C   UNL     1      35.289   3.198  14.793  0.00  0.00    +0.000 A 
ATOM     10  C   UNL     1      34.616   2.707  15.894  0.00  0.00    +0.000 A 
ATOM     11  C   UNL     1      35.113   1.567  16.475  0.00  0.00    +0.000 A 
ATOM     12  C   UNL     1      36.240   0.923  15.992  0.00  0.00    +0.000 A 
ATOM     13  N   UNL     1      36.710  -0.203  16.588  0.00  0.00    +0.000 NA
ATOM     14  C   UNL     1      37.824  -0.860  16.132  0.00  0.00    +0.000 A 
ENDROOT
BRANCH   4  15
ATOM     15  C   UNL     1      40.515  -1.041  13.720  0.00  0.00    +0.000 C 
ATOM     16  O   UNL     1      40.279  -1.712  12.627  0.00  0.00    +0.000 OA
ATOM     17  N   UNL     1      41.662  -0.323  13.769  0.00  0.00    +0.000 NA
BRANCH  17  18
ATOM     18  C   UNL     1      42.705  -0.229  12.642  0.00  0.00    +0.000 C 
ATOM     19  C   UNL     1      43.259   1.254  12.968  0.00  0.00    +0.000 C 
BRANCH  18  20
ATOM     20  C   UNL     1      43.894  -0.990  13.461  0.00  0.00    +0.000 C 
BRANCH  20  21
ATOM     21  C   UNL     1      44.327  -0.070  14.572  0.00  0.00    +0.000 C 
BRANCH  21  22
ATOM     22  C   UNL     1      45.011  -0.788  15.668  0.00  0.00    +0.000 A 
ATOM     23  C   UNL     1      45.407  -0.064  16.771  0.00  0.00    +0.000 A 
ATOM     24  C   UNL     1      46.048  -0.641  17.857  0.00  0.00    +0.000 A 
ATOM     25  C   UNL     1      46.313  -2.000  17.859  0.00  0.00    +0.000 A 
ATOM     26  C   UNL     1      45.922  -2.735  16.768  0.00  0.00    +0.000 A 
ATOM     27  C   UNL     1      45.278  -2.148  15.677  0.00  0.00    +0.000 A 
ENDBRANCH  21  22
ENDBRANCH  20  21
ENDBRANCH  18  20
ENDBRANCH  17  18
ENDBRANCH   4  15
BRANCH   1  28
ATOM     28  C   UNL     1      37.979  -2.691  17.680  0.00  0.00    +0.000 C 
BRANCH  28  30
ATOM     29  C   UNL     1      38.878  -3.807  19.765  0.00  0.00    +0.000 C 
ATOM     30  C   UNL     1      38.368  -2.657  18.995  0.00  0.00    +0.000 C 
ATOM     31  C   UNL     1      37.257  -1.992  19.844  0.00  0.00    +0.000 C 
ENDBRANCH  28  30
ENDBRANCH   1  28
TORSDOF 7
ENDMDL
MODEL 3
REMARK VINA RESULT:      -7.9      2.466      3.613
REMARK  Name = 
REMARK  7 active torsions:
REMARK  status: ('A' for Active; 'I' for Inactive)
REMARK    1  A    between atoms: C_2  and  C_4
REMARK    2  A    between atoms: C_4  and  N_5
REMARK    3  A    between atoms: C_8  and  C_9
REMARK    4  A    between atoms: N_11  and  C_12
REMARK    5  A    between atoms: C_12  and  C_14
REMARK    6  A    between atoms: C_14  and  C_15
REMARK    7  A    between atoms: C_15  and  C_16
REMARK                            x       y       z     vdW  Elec       q    Type
REMARK                         _______ _______ _______ _____ _____    ______ ____
ROOT
ATOM      1  N   UNL     1      39.011  -2.232  15.600  0.00  0.00    +0.000 N 
ATOM      2  C   UNL     1      38.358  -1.105  15.956  0.00  0.00    +0.000 A 
ATOM      3  N   UNL     1      37.843  -0.930  17.272  0.00  0.00    +0.000 NA
ATOM      4  C   UNL     1      38.287  -0.218  14.880  0.00  0.00    +0.000 A 
ATOM      5  C   UNL     1      38.918  -0.833  13.842  0.00  0.00    +0.000 A 
ATOM      6  N   UNL     1      39.129  -0.416  12.572  0.00  0.00    +0.000 NA
ATOM      7  C   UNL     1      39.786  -1.233  11.733  0.00  0.00    +0.000 A 
ATOM      8  C   UNL     1      40.039  -0.874  10.411  0.00  0.00    +0.000 A 
ATOM      9  C   UNL     1      40.712  -1.706   9.538  0.00  0.00    +0.000 A 
ATOM     10  C   UNL     1      41.168  -2.943   9.950  0.00  0.00    +0.000 A 
ATOM     11  C   UNL     1      40.919  -3.299  11.251  0.00  0.00    +0.000 A 
ATOM     12  C   UNL     1      40.244  -2.467  12.129  0.00  0.00    +0.000 A 
ATOM     13  N   UNL     1      40.012  -2.846  13.413  0.00  0.00    +0.000 NA
ATOM     14  C   UNL     1      39.344  -2.044  14.302  0.00  0.00    +0.000 A 
ENDROOT
BRANCH   4  15
ATOM     15  C   UNL     1      37.652   1.088  14.946  0.00  0.00    +0.000 C 
ATOM     16  O   UNL     1      36.406   1.153  14.568  0.00  0.00    +0.000 OA
ATOM     17  N   UNL     1      38.232   2.238  15.363  0.00  0.00    +0.000 NA
BRANCH  17  18
ATOM     18  C   UNL     1      37.542   3.612  15.433  0.00  0.00    +0.000 C 
ATOM     19  C   UNL     1      36.925   3.481  16.921  0.00  0.00    +0.000 C 
BRANCH  18  20
ATOM     20  C   UNL     1      38.867   4.432  15.917  0.00  0.00    +0.000 C 
BRANCH  20  21
ATOM     21  C   UNL     1      38.453   5.301  17.076  0.00  0.00    +0.000 C 
BRANCH  21  22
ATOM     22  C   UNL     1      39.605   5.758  17.882  0.00  0.00    +0.000 A 
ATOM     23  C   UNL     1      40.780   6.053  17.226  0.00  0.00    +0.000 A 
ATOM     24  C   UNL     1      41.916   6.497  17.886  0.00  0.00    +0.000 A 
ATOM     25  C   UNL     1      41.895   6.660  19.261  0.00  0.00    +0.000 A 
ATOM     26  C   UNL     1      40.731   6.373  19.927  0.00  0.00    +0.000 A 
ATOM     27  C   UNL     1      39.591   5.924  19.258  0.00  0.00    +0.000 A 
ENDBRANCH  21  22
ENDBRANCH  20  21
ENDBRANCH  18  20
ENDBRANCH  17  18
ENDBRANCH   4  15
BRANCH   1  28
ATOM     28  C   UNL     1      39.354  -3.400  16.285  0.00  0.00    +0.000 C 
BRANCH  28  30
ATOM     29  C   UNL     1      37.150  -4.620  16.515  0.00  0.00    +0.000 C 
ATOM     30  C   UNL     1      38.561  -4.362  16.858  0.00  0.00    +0.000 C 
ATOM     31  C   UNL     1      38.646  -4.250  18.399  0.00  0.00    +0.000 C 
ENDBRANCH  28  30
ENDBRANCH   1  28
TORSDOF 7
ENDMDL
MODEL 4
REMARK VINA RESULT:      -7.8      1.305      4.153
REMARK  Name = 
REMARK  7 active torsions:
REMARK  status: ('A' for Active; 'I' for Inactive)
REMARK    1  A    between atoms: C_2  and  C_4
REMARK    2  A    between atoms: C_4  and  N_5
REMARK    3  A    between atoms: C_8  and  C_9
REMARK    4  A    between atoms: N_11  and  C_12
REMARK    5  A    between atoms: C_12  and  C_14
REMARK    6  A    between atoms: C_14  and  C_15
REMARK    7  A    between atoms: C_15  and  C_16
REMARK                            x       y       z     vdW  Elec       q    Type
REMARK                         _______ _______ _______ _____ _____    ______ ____
ROOT
ATOM      1  N   UNL     1      39.401   0.328  13.970  0.00  0.00    +0.000 N 
ATOM      2  C   UNL     1      39.610   1.657  14.074  0.00  0.00    +0.000 A 
ATOM      3  N   UNL     1      40.707   2.288  13.424  0.00  0.00    +0.000 NA
ATOM      4  C   UNL     1      38.630   2.247  14.875  0.00  0.00    +0.000 A 
ATOM      5  C   UNL     1      37.804   1.238  15.266  0.00  0.00    +0.000 A 
ATOM      6  N   UNL     1      36.702   1.260  16.052  0.00  0.00    +0.000 NA
ATOM      7  C   UNL     1      36.064   0.103  16.288  0.00  0.00    +0.000 A 
ATOM      8  C   UNL     1      34.925   0.045  17.087  0.00  0.00    +0.000 A 
ATOM      9  C   UNL     1      34.260  -1.139  17.340  0.00  0.00    +0.000 A 
ATOM     10  C   UNL     1      34.708  -2.328  16.800  0.00  0.00    +0.000 A 
ATOM     11  C   UNL     1      35.830  -2.275  16.013  0.00  0.00    +0.000 A 
ATOM     12  C   UNL     1      36.498  -1.089  15.758  0.00  0.00    +0.000 A 
ATOM     13  N   UNL     1      37.608  -1.066  14.975  0.00  0.00    +0.000 NA
ATOM     14  C   UNL     1      38.291   0.092  14.708  0.00  0.00    +0.000 A 
ENDROOT
BRANCH   4  15
ATOM     15  C   UNL     1      38.575   3.669  15.174  0.00  0.00    +0.000 C 
ATOM     16  O   UNL     1      37.963   4.427  14.307  0.00  0.00    +0.000 OA
ATOM     17  N   UNL     1      39.097   4.277  16.266  0.00  0.00    +0.000 NA
BRANCH  17  18
ATOM     18  C   UNL     1      39.023   5.784  16.570  0.00  0.00    +0.000 C 
ATOM     19  C   UNL     1      38.412   5.684  18.063  0.00  0.00    +0.000 C 
BRANCH  18  20
ATOM     20  C   UNL     1      40.569   5.921  17.075  0.00  0.00    +0.000 C 
BRANCH  20  21
ATOM     21  C   UNL     1      40.530   6.459  18.482  0.00  0.00    +0.000 C 
BRANCH  21  22
ATOM     22  C   UNL     1      41.871   6.525  19.101  0.00  0.00    +0.000 A 
ATOM     23  C   UNL     1      41.977   6.259  20.448  0.00  0.00    +0.000 A 
ATOM     24  C   UNL     1      43.188   6.286  21.124  0.00  0.00    +0.000 A 
ATOM     25  C   UNL     1      44.353   6.589  20.440  0.00  0.00    +0.000 A 
ATOM     26  C   UNL     1      44.262   6.855  19.097  0.00  0.00    +0.000 A 
ATOM     27  C   UNL     1      43.041   6.828  18.422  0.00  0.00    +0.000 A 
ENDBRANCH  21  22
ENDBRANCH  20  21
ENDBRANCH  18  20
ENDBRANCH  17  18
ENDBRANCH   4  15
BRANCH   1  28
ATOM     28  C   UNL     1      40.066  -0.700  13.297  0.00  0.00    +0.000 C 
BRANCH  28  30
ATOM     29  C   UNL     1      40.800  -2.666  14.710  0.00  0.00    +0.000 C 
ATOM     30  C   UNL     1      41.022  -1.580  13.737  0.00  0.00    +0.000 C 
ATOM     31  C   UNL     1      42.270  -0.792  14.206  0.00  0.00    +0.000 C 
ENDBRANCH  28  30
ENDBRANCH   1  28
TORSDOF 7
ENDMDL
MODEL 5
REMARK VINA RESULT:      -7.6      8.624     12.851
REMARK  Name = 
REMARK  7 active torsions:
REMARK  status: ('A' for Active; 'I' for Inactive)
REMARK    1  A    between atoms: C_2  and  C_4
REMARK    2  A    between atoms: C_4  and  N_5
REMARK    3  A    between atoms: C_8  and  C_9
REMARK    4  A    between atoms: N_11  and  C_12
REMARK    5  A    between atoms: C_12  and  C_14
REMARK    6  A    between atoms: C_14  and  C_15
REMARK    7  A    between atoms: C_15  and  C_16
REMARK                            x       y       z     vdW  Elec       q    Type
REMARK                         _______ _______ _______ _____ _____    ______ ____
ROOT
ATOM      1  N   UNL     1      44.362   3.753  27.548  0.00  0.00    +0.000 N 
ATOM      2  C   UNL     1      44.747   4.424  26.441  0.00  0.00    +0.000 A 
ATOM      3  N   UNL     1      45.887   4.023  25.690  0.00  0.00    +0.000 NA
ATOM      4  C   UNL     1      43.889   5.498  26.195  0.00  0.00    +0.000 A 
ATOM      5  C   UNL     1      42.957   5.472  27.186  0.00  0.00    +0.000 A 
ATOM      6  N   UNL     1      41.903   6.287  27.423  0.00  0.00    +0.000 NA
ATOM      7  C   UNL     1      41.131   6.038  28.492  0.00  0.00    +0.000 A 
ATOM      8  C   UNL     1      40.030   6.834  28.801  0.00  0.00    +0.000 A 
ATOM      9  C   UNL     1      39.229   6.590  29.900  0.00  0.00    +0.000 A 
ATOM     10  C   UNL     1      39.493   5.530  30.744  0.00  0.00    +0.000 A 
ATOM     11  C   UNL     1      40.577   4.745  30.443  0.00  0.00    +0.000 A 
ATOM     12  C   UNL     1      41.382   4.988  29.343  0.00  0.00    +0.000 A 
ATOM     13  N   UNL     1      42.450   4.193  29.069  0.00  0.00    +0.000 NA
ATOM     14  C   UNL     1      43.265   4.412  27.988  0.00  0.00    +0.000 A 
ENDROOT
BRANCH   4  15
ATOM     15  C   UNL     1      44.033   6.409  25.071  0.00  0.00    +0.000 C 
ATOM     16  O   UNL     1      44.271   7.659  25.357  0.00  0.00    +0.000 OA
ATOM     17  N   UNL     1      43.943   6.082  23.760  0.00  0.00    +0.000 NA
BRANCH  17  18
ATOM     18  C   UNL     1      44.105   7.060  22.583  0.00  0.00    +0.000 C 
ATOM     19  C   UNL     1      45.607   6.647  22.150  0.00  0.00    +0.000 C 
BRANCH  18  20
ATOM     20  C   UNL     1      43.387   6.098  21.477  0.00  0.00    +0.000 C 
BRANCH  20  21
ATOM     21  C   UNL     1      43.269   6.896  20.204  0.00  0.00    +0.000 C 
BRANCH  21  22
ATOM     22  C   UNL     1      42.037   6.582  19.450  0.00  0.00    +0.000 A 
ATOM     23  C   UNL     1      42.110   6.543  18.075  0.00  0.00    +0.000 A 
ATOM     24  C   UNL     1      41.016   6.251  17.274  0.00  0.00    +0.000 A 
ATOM     25  C   UNL     1      39.788   5.983  17.855  0.00  0.00    +0.000 A 
ATOM     26  C   UNL     1      39.701   6.016  19.224  0.00  0.00    +0.000 A 
ATOM     27  C   UNL     1      40.805   6.312  20.026  0.00  0.00    +0.000 A 
ENDBRANCH  21  22
ENDBRANCH  20  21
ENDBRANCH  18  20
ENDBRANCH  17  18
ENDBRANCH   4  15
BRANCH   1  28
ATOM     28  C   UNL     1      44.857   2.627  28.209  0.00  0.00    +0.000 C 
BRANCH  28  30
ATOM     29  C   UNL     1      45.075   2.332  30.712  0.00  0.00    +0.000 C 
ATOM     30  C   UNL     1      45.610   2.524  29.351  0.00  0.00    +0.000 C 
ATOM     31  C   UNL     1      46.613   3.702  29.415  0.00  0.00    +0.000 C 
ENDBRANCH  28  30
ENDBRANCH   1  28
TORSDOF 7
ENDMDL
MODEL 6
REMARK VINA RESULT:      -7.6      1.872      4.593
REMARK  Name = 
REMARK  7 active torsions:
REMARK  status: ('A' for Active; 'I' for Inactive)
REMARK    1  A    between atoms: C_2  and  C_4
REMARK    2  A    between atoms: C_4  and  N_5
REMARK    3  A    between atoms: C_8  and  C_9
REMARK    4  A    between atoms: N_11  and  C_12
REMARK    5  A    between atoms: C_12  and  C_14
REMARK    6  A    between atoms: C_14  and  C_15
REMARK    7  A    between atoms: C_15  and  C_16
REMARK                            x       y       z     vdW  Elec       q    Type
REMARK                         _______ _______ _______ _____ _____    ______ ____
ROOT
ATOM      1  N   UNL     1      41.435  -0.473  13.931  0.00  0.00    +0.000 N 
ATOM      2  C   UNL     1      41.013   0.785  13.688  0.00  0.00    +0.000 A 
ATOM      3  N   UNL     1      41.772   1.681  12.883  0.00  0.00    +0.000 NA
ATOM      4  C   UNL     1      39.794   1.026  14.326  0.00  0.00    +0.000 A 
ATOM      5  C   UNL     1      39.473  -0.128  14.973  0.00  0.00    +0.000 A 
ATOM      6  N   UNL     1      38.402  -0.435  15.742  0.00  0.00    +0.000 NA
ATOM      7  C   UNL     1      38.331  -1.665  16.275  0.00  0.00    +0.000 A 
ATOM      8  C   UNL     1      37.261  -2.054  17.078  0.00  0.00    +0.000 A 
ATOM      9  C   UNL     1      37.177  -3.315  17.634  0.00  0.00    +0.000 A 
ATOM     10  C   UNL     1      38.165  -4.253  17.409  0.00  0.00    +0.000 A 
ATOM     11  C   UNL     1      39.220  -3.873  16.619  0.00  0.00    +0.000 A 
ATOM     12  C   UNL     1      39.307  -2.609  16.061  0.00  0.00    +0.000 A 
ATOM     13  N   UNL     1      40.365  -2.260  15.283  0.00  0.00    +0.000 NA
ATOM     14  C   UNL     1      40.478  -1.015  14.719  0.00  0.00    +0.000 A 
ENDROOT
BRANCH   4  15
ATOM     15  C   UNL     1      39.074   2.287  14.252  0.00  0.00    +0.000 C 
ATOM     16  O   UNL     1      38.455   2.544  13.134  0.00  0.00    +0.000 OA
ATOM     17  N   UNL     1      38.987   3.215  15.235  0.00  0.00    +0.000 NA
BRANCH  17  18
ATOM     18  C   UNL     1      38.215   4.543  15.142  0.00  0.00    +0.000 C 
ATOM     19  C   UNL     1      36.789   4.015  15.691  0.00  0.00    +0.000 C 
BRANCH  18  20
ATOM     20  C   UNL     1      38.704   5.114  16.591  0.00  0.00    +0.000 C 
BRANCH  20  21
ATOM     21  C   UNL     1      40.064   5.730  16.389  0.00  0.00    +0.000 C 
BRANCH  21  22
ATOM     22  C   UNL     1      40.712   6.104  17.664  0.00  0.00    +0.000 A 
ATOM     23  C   UNL     1      39.966   6.022  18.819  0.00  0.00    +0.000 A 
ATOM     24  C   UNL     1      40.480   6.341  20.067  0.00  0.00    +0.000 A 
ATOM     25  C   UNL     1      41.794   6.762  20.185  0.00  0.00    +0.000 A 
ATOM     26  C   UNL     1      42.549   6.847  19.043  0.00  0.00    +0.000 A 
ATOM     27  C   UNL     1      42.026   6.526  17.789  0.00  0.00    +0.000 A 
ENDBRANCH  21  22
ENDBRANCH  20  21
ENDBRANCH  18  20
ENDBRANCH  17  18
ENDBRANCH   4  15
BRANCH   1  28
ATOM     28  C   UNL     1      42.558  -1.203  13.533  0.00  0.00    +0.000 C 
BRANCH  28  30
ATOM     29  C   UNL     1      44.363  -0.255  15.030  0.00  0.00    +0.000 C 
ATOM     30  C   UNL     1      43.859  -1.141  13.964  0.00  0.00    +0.000 C 
ATOM     31  C   UNL     1      44.799  -0.974  12.746  0.00  0.00    +0.000 C 
ENDBRANCH  28  30
ENDBRANCH   1  28
TORSDOF 7
ENDMDL
MODEL 7
REMARK VINA RESULT:      -7.4     25.426     28.012
REMARK  Name = 
REMARK  7 active torsions:
REMARK  status: ('A' for Active; 'I' for Inactive)
REMARK    1  A    between atoms: C_2  and  C_4
REMARK    2  A    between atoms: C_4  and  N_5
REMARK    3  A    between atoms: C_8  and  C_9
REMARK    4  A    between atoms: N_11  and  C_12
REMARK    5  A    between atoms: C_12  and  C_14
REMARK    6  A    between atoms: C_14  and  C_15
REMARK    7  A    between atoms: C_15  and  C_16
REMARK                            x       y       z     vdW  Elec       q    Type
REMARK                         _______ _______ _______ _____ _____    ______ ____
ROOT
ATOM      1  N   UNL     1      30.050  12.725  40.273  0.00  0.00    +0.000 N 
ATOM      2  C   UNL     1      29.253  13.793  40.056  0.00  0.00    +0.000 A 
ATOM      3  N   UNL     1      29.777  15.020  39.560  0.00  0.00    +0.000 NA
ATOM      4  C   UNL     1      27.930  13.493  40.385  0.00  0.00    +0.000 A 
ATOM      5  C   UNL     1      27.930  12.201  40.814  0.00  0.00    +0.000 A 
ATOM      6  N   UNL     1      26.915  11.422  41.254  0.00  0.00    +0.000 NA
ATOM      7  C   UNL     1      27.193  10.163  41.629  0.00  0.00    +0.000 A 
ATOM      8  C   UNL     1      26.202   9.302  42.093  0.00  0.00    +0.000 A 
ATOM      9  C   UNL     1      26.476   8.005  42.484  0.00  0.00    +0.000 A 
ATOM     10  C   UNL     1      27.762   7.507  42.426  0.00  0.00    +0.000 A 
ATOM     11  C   UNL     1      28.741   8.354  41.969  0.00  0.00    +0.000 A 
ATOM     12  C   UNL     1      28.470   9.654  41.577  0.00  0.00    +0.000 A 
ATOM     13  N   UNL     1      29.459  10.470  41.129  0.00  0.00    +0.000 NA
ATOM     14  C   UNL     1      29.220  11.762  40.737  0.00  0.00    +0.000 A 
ENDROOT
BRANCH   4  15
ATOM     15  C   UNL     1      26.829  14.434  40.256  0.00  0.00    +0.000 C 
ATOM     16  O   UNL     1      26.291  14.863  41.363  0.00  0.00    +0.000 OA
ATOM     17  N   UNL     1      26.314  14.906  39.095  0.00  0.00    +0.000 NA
BRANCH  17  18
ATOM     18  C   UNL     1      25.152  15.908  38.977  0.00  0.00    +0.000 C 
ATOM     19  C   UNL     1      26.016  17.209  38.560  0.00  0.00    +0.000 C 
BRANCH  18  20
ATOM     20  C   UNL     1      24.761  15.519  37.441  0.00  0.00    +0.000 C 
BRANCH  20  21
ATOM     21  C   UNL     1      25.891  15.987  36.562  0.00  0.00    +0.000 C 
BRANCH  21  22
ATOM     22  C   UNL     1      25.614  15.782  35.125  0.00  0.00    +0.000 A 
ATOM     23  C   UNL     1      25.104  16.839  34.405  0.00  0.00    +0.000 A 
ATOM     24  C   UNL     1      24.818  16.755  33.050  0.00  0.00    +0.000 A 
ATOM     25  C   UNL     1      25.044  15.571  32.370  0.00  0.00    +0.000 A 
ATOM     26  C   UNL     1      25.554  14.509  33.074  0.00  0.00    +0.000 A 
ATOM     27  C   UNL     1      25.840  14.599  34.438  0.00  0.00    +0.000 A 
ENDBRANCH  21  22
ENDBRANCH  20  21
ENDBRANCH  18  20
ENDBRANCH  17  18
ENDBRANCH   4  15
BRANCH   1  28
ATOM     28  C   UNL     1      31.417  12.495  40.103  0.00  0.00    +0.000 C 
BRANCH  28  30
ATOM     29  C   UNL     1      33.563  11.754  38.985  0.00  0.00    +0.000 C 
ATOM     30  C   UNL     1      32.097  11.887  39.077  0.00  0.00    +0.000 C 
ATOM     31  C   UNL     1      31.601  12.454  37.724  0.00  0.00    +0.000 C 
ENDBRANCH  28  30
ENDBRANCH   1  28
TORSDOF 7
ENDMDL
MODEL 8
REMARK VINA RESULT:      -7.4     26.710     29.513
REMARK  Name = 
REMARK  7 active torsions:
REMARK  status: ('A' for Active; 'I' for Inactive)
REMARK    1  A    between atoms: C_2  and  C_4
REMARK    2  A    between atoms: C_4  and  N_5
REMARK    3  A    between atoms: C_8  and  C_9
REMARK    4  A    between atoms: N_11  and  C_12
REMARK    5  A    between atoms: C_12  and  C_14
REMARK    6  A    between atoms: C_14  and  C_15
REMARK    7  A    between atoms: C_15  and  C_16
REMARK                            x       y       z     vdW  Elec       q    Type
REMARK                         _______ _______ _______ _____ _____    ______ ____
ROOT
ATOM      1  N   UNL     1      27.497   9.869  41.688  0.00  0.00    +0.000 N 
ATOM      2  C   UNL     1      27.776  11.076  41.153  0.00  0.00    +0.000 A 
ATOM      3  N   UNL     1      28.969  11.300  40.410  0.00  0.00    +0.000 NA
ATOM      4  C   UNL     1      26.759  11.989  41.443  0.00  0.00    +0.000 A 
ATOM      5  C   UNL     1      25.838  11.307  42.178  0.00  0.00    +0.000 A 
ATOM      6  N   UNL     1      24.667  11.717  42.718  0.00  0.00    +0.000 NA
ATOM      7  C   UNL     1      23.939  10.830  43.413  0.00  0.00    +0.000 A 
ATOM      8  C   UNL     1      22.725  11.178  43.999  0.00  0.00    +0.000 A 
ATOM      9  C   UNL     1      21.967  10.274  44.719  0.00  0.00    +0.000 A 
ATOM     10  C   UNL     1      22.392   8.971  44.885  0.00  0.00    +0.000 A 
ATOM     11  C   UNL     1      23.588   8.625  44.310  0.00  0.00    +0.000 A 
ATOM     12  C   UNL     1      24.350   9.529  43.588  0.00  0.00    +0.000 A 
ATOM     13  N   UNL     1      25.531   9.158  43.029  0.00  0.00    +0.000 NA
ATOM     14  C   UNL     1      26.307  10.032  42.312  0.00  0.00    +0.000 A 
ENDROOT
BRANCH   4  15
ATOM     15  C   UNL     1      26.762  13.373  41.000  0.00  0.00    +0.000 C 
ATOM     16  O   UNL     1      27.052  14.275  41.896  0.00  0.00    +0.000 OA
ATOM     17  N   UNL     1      26.492  13.812  39.747  0.00  0.00    +0.000 NA
BRANCH  17  18
ATOM     18  C   UNL     1      26.506  15.282  39.294  0.00  0.00    +0.000 C 
ATOM     19  C   UNL     1      28.017  15.329  38.722  0.00  0.00    +0.000 C 
BRANCH  18  20
ATOM     20  C   UNL     1      25.827  15.007  37.836  0.00  0.00    +0.000 C 
BRANCH  20  21
ATOM     21  C   UNL     1      26.766  15.561  36.797  0.00  0.00    +0.000 C 
BRANCH  21  22
ATOM     22  C   UNL     1      26.167  15.583  35.445  0.00  0.00    +0.000 A 
ATOM     23  C   UNL     1      25.567  16.747  35.020  0.00  0.00    +0.000 A 
ATOM     24  C   UNL     1      24.983  16.876  33.768  0.00  0.00    +0.000 A 
ATOM     25  C   UNL     1      24.991  15.806  32.891  0.00  0.00    +0.000 A 
ATOM     26  C   UNL     1      25.587  14.640  33.300  0.00  0.00    +0.000 A 
ATOM     27  C   UNL     1      26.172  14.515  34.561  0.00  0.00    +0.000 A 
ENDBRANCH  21  22
ENDBRANCH  20  21
ENDBRANCH  18  20
ENDBRANCH  17  18
ENDBRANCH   4  15
BRANCH   1  28
ATOM     28  C   UNL     1      28.161   8.640  41.686  0.00  0.00    +0.000 C 
BRANCH  28  30
ATOM     29  C   UNL     1      28.279   7.014  43.620  0.00  0.00    +0.000 C 
ATOM     30  C   UNL     1      28.851   7.999  42.683  0.00  0.00    +0.000 C 
ATOM     31  C   UNL     1      29.623   9.042  43.528  0.00  0.00    +0.000 C 
ENDBRANCH  28  30
ENDBRANCH   1  28
TORSDOF 7
ENDMDL
MODEL 9
REMARK VINA RESULT:      -7.3      8.643     12.498
REMARK  Name = 
REMARK  7 active torsions:
REMARK  status: ('A' for Active; 'I' for Inactive)
REMARK    1  A    between atoms: C_2  and  C_4
REMARK    2  A    between atoms: C_4  and  N_5
REMARK    3  A    between atoms: C_8  and  C_9
REMARK    4  A    between atoms: N_11  and  C_12
REMARK    5  A    between atoms: C_12  and  C_14
REMARK    6  A    between atoms: C_14  and  C_15
REMARK    7  A    between atoms: C_15  and  C_16
REMARK                            x       y       z     vdW  Elec       q    Type
REMARK                         _______ _______ _______ _____ _____    ______ ____
ROOT
ATOM      1  N   UNL     1      45.690   3.163  27.226  0.00  0.00    +0.000 N 
ATOM      2  C   UNL     1      46.035   3.843  26.112  0.00  0.00    +0.000 A 
ATOM      3  N   UNL     1      47.266   3.594  25.442  0.00  0.00    +0.000 NA
ATOM      4  C   UNL     1      45.041   4.763  25.771  0.00  0.00    +0.000 A 
ATOM      5  C   UNL     1      44.066   4.632  26.712  0.00  0.00    +0.000 A 
ATOM      6  N   UNL     1      42.889   5.285  26.854  0.00  0.00    +0.000 NA
ATOM      7  C   UNL     1      42.101   4.961  27.891  0.00  0.00    +0.000 A 
ATOM      8  C   UNL     1      40.877   5.590  28.104  0.00  0.00    +0.000 A 
ATOM      9  C   UNL     1      40.057   5.267  29.168  0.00  0.00    +0.000 A 
ATOM     10  C   UNL     1      40.426   4.292  30.073  0.00  0.00    +0.000 A 
ATOM     11  C   UNL     1      41.633   3.671  29.867  0.00  0.00    +0.000 A 
ATOM     12  C   UNL     1      42.456   3.993  28.801  0.00  0.00    +0.000 A 
ATOM     13  N   UNL     1      43.646   3.362  28.621  0.00  0.00    +0.000 NA
ATOM     14  C   UNL     1      44.482   3.662  27.577  0.00  0.00    +0.000 A 
ENDROOT
BRANCH   4  15
ATOM     15  C   UNL     1      45.113   5.643  24.617  0.00  0.00    +0.000 C 
ATOM     16  O   UNL     1      45.587   6.841  24.821  0.00  0.00    +0.000 OA
ATOM     17  N   UNL     1      44.736   5.336  23.353  0.00  0.00    +0.000 NA
BRANCH  17  18
ATOM     18  C   UNL     1      44.825   6.279  22.140  0.00  0.00    +0.000 C 
ATOM     19  C   UNL     1      45.699   5.323  21.173  0.00  0.00    +0.000 C 
BRANCH  18  20
ATOM     20  C   UNL     1      43.393   5.840  21.491  0.00  0.00    +0.000 C 
BRANCH  20  21
ATOM     21  C   UNL     1      42.858   7.035  20.747  0.00  0.00    +0.000 C 
BRANCH  21  22
ATOM     22  C   UNL     1      41.909   6.660  19.678  0.00  0.00    +0.000 A 
ATOM     23  C   UNL     1      40.618   6.340  20.039  0.00  0.00    +0.000 A 
ATOM     24  C   UNL     1      39.648   5.982  19.114  0.00  0.00    +0.000 A 
ATOM     25  C   UNL     1      39.963   5.937  17.767  0.00  0.00    +0.000 A 
ATOM     26  C   UNL     1      41.244   6.255  17.392  0.00  0.00    +0.000 A 
ATOM     27  C   UNL     1      42.217   6.613  18.327  0.00  0.00    +0.000 A 
ENDBRANCH  21  22
ENDBRANCH  20  21
ENDBRANCH  18  20
ENDBRANCH  17  18
ENDBRANCH   4  15
BRANCH   1  28
ATOM     28  C   UNL     1      46.309   2.151  27.964  0.00  0.00    +0.000 C 
BRANCH  28  30
ATOM     29  C   UNL     1      45.408  -0.187  28.313  0.00  0.00    +0.000 C 
ATOM     30  C   UNL     1      46.353   0.796  27.753  0.00  0.00    +0.000 C 
ATOM     31  C   UNL     1      47.782   0.276  28.043  0.00  0.00    +0.000 C 
ENDBRANCH  28  30
ENDBRANCH   1  28
TORSDOF 7
ENDMDL
MODEL 10
REMARK VINA RESULT:      -7.3     26.439     29.082
REMARK  Name = 
REMARK  7 active torsions:
REMARK  status: ('A' for Active; 'I' for Inactive)
REMARK    1  A    between atoms: C_2  and  C_4
REMARK    2  A    between atoms: C_4  and  N_5
REMARK    3  A    between atoms: C_8  and  C_9
REMARK    4  A    between atoms: N_11  and  C_12
REMARK    5  A    between atoms: C_12  and  C_14
REMARK    6  A    between atoms: C_14  and  C_15
REMARK    7  A    between atoms: C_15  and  C_16
REMARK                            x       y       z     vdW  Elec       q    Type
REMARK                         _______ _______ _______ _____ _____    ______ ____
ROOT
ATOM      1  N   UNL     1      25.237  11.547  43.060  0.00  0.00    +0.000 N 
ATOM      2  C   UNL     1      24.913  12.769  42.587  0.00  0.00    +0.000 A 
ATOM      3  N   UNL     1      23.717  13.427  42.991  0.00  0.00    +0.000 NA
ATOM      4  C   UNL     1      25.888  13.227  41.699  0.00  0.00    +0.000 A 
ATOM      5  C   UNL     1      26.831  12.247  41.636  0.00  0.00    +0.000 A 
ATOM      6  N   UNL     1      27.980  12.178  40.924  0.00  0.00    +0.000 NA
ATOM      7  C   UNL     1      28.739  11.077  41.041  0.00  0.00    +0.000 A 
ATOM      8  C   UNL     1      29.933  10.933  40.339  0.00  0.00    +0.000 A 
ATOM      9  C   UNL     1      30.722   9.804  40.450  0.00  0.00    +0.000 A 
ATOM     10  C   UNL     1      30.350   8.762  41.275  0.00  0.00    +0.000 A 
ATOM     11  C   UNL     1      29.173   8.900  41.967  0.00  0.00    +0.000 A 
ATOM     12  C   UNL     1      28.381  10.030  41.858  0.00  0.00    +0.000 A 
ATOM     13  N   UNL     1      27.220  10.140  42.555  0.00  0.00    +0.000 NA
ATOM     14  C   UNL     1      26.415  11.246  42.464  0.00  0.00    +0.000 A 
ENDROOT
BRANCH   4  15
ATOM     15  C   UNL     1      25.832  14.514  41.025  0.00  0.00    +0.000 C 
ATOM     16  O   UNL     1      25.967  15.574  41.773  0.00  0.00    +0.000 OA
ATOM     17  N   UNL     1      25.653  14.713  39.698  0.00  0.00    +0.000 NA
BRANCH  17  18
ATOM     18  C   UNL     1      25.603  16.084  39.000  0.00  0.00    +0.000 C 
ATOM     19  C   UNL     1      27.135  16.134  38.488  0.00  0.00    +0.000 C 
BRANCH  18  20
ATOM     20  C   UNL     1      25.016  15.522  37.585  0.00  0.00    +0.000 C 
BRANCH  20  21
ATOM     21  C   UNL     1      26.180  15.401  36.637  0.00  0.00    +0.000 C 
BRANCH  21  22
ATOM     22  C   UNL     1      25.767  15.479  35.220  0.00  0.00    +0.000 A 
ATOM     23  C   UNL     1      25.287  16.681  34.748  0.00  0.00    +0.000 A 
ATOM     24  C   UNL     1      24.881  16.863  33.434  0.00  0.00    +0.000 A 
ATOM     25  C   UNL     1      24.953  15.810  32.539  0.00  0.00    +0.000 A 
ATOM     26  C   UNL     1      25.432  14.607  32.994  0.00  0.00    +0.000 A 
ATOM     27  C   UNL     1      25.837  14.429  34.317  0.00  0.00    +0.000 A 
ENDBRANCH  21  22
ENDBRANCH  20  21
ENDBRANCH  18  20
ENDBRANCH  17  18
ENDBRANCH   4  15
BRANCH   1  28
ATOM     28  C   UNL     1      24.624  10.671  43.959  0.00  0.00    +0.000 C 
BRANCH  28  30
ATOM     29  C   UNL     1      22.308   9.971  44.697  0.00  0.00    +0.000 C 
ATOM     30  C   UNL     1      23.495   9.904  43.825  0.00  0.00    +0.000 C 
ATOM     31  C   UNL     1      23.895   8.413  43.709  0.00  0.00    +0.000 C 
ENDBRANCH  28  30
ENDBRANCH   1  28
TORSDOF 7
ENDMDL
