MODEL 1
REMARK VINA RESULT:      -6.9      0.000      0.000
REMARK  Name = 
REMARK  3 active torsions:
REMARK  status: ('A' for Active; 'I' for Inactive)
REMARK    1  A    between atoms: N_11  and  C_12
REMARK    2  A    between atoms: C_12  and  N_13
REMARK    3  A    between atoms: N_13  and  C_14
REMARK                            x       y       z     vdW  Elec       q    Type
REMARK                         _______ _______ _______ _____ _____    ______ ____
ROOT
ATOM      1  C   UNL     1      32.256  23.914  25.187  0.00  0.00    +0.000 C 
ATOM      2  C   UNL     1      31.179  23.700  24.169  0.00  0.00    +0.000 C 
ATOM      3  C   UNL     1      30.009  23.040  24.860  0.00  0.00    +0.000 C 
ATOM      4  C   UNL     1      28.943  22.806  23.847  0.00  0.00    +0.000 C 
ATOM      5  C   UNL     1      28.513  24.006  23.084  0.00  0.00    +0.000 C 
ATOM      6  C   UNL     1      29.623  24.883  22.600  0.00  0.00    +0.000 C 
ATOM      7  C   UNL     1      30.777  25.002  23.521  0.00  0.00    +0.000 C 
ATOM      8  N   UNL     1      27.581  23.620  22.076  0.00  0.00    +0.000 NA
ATOM      9  C   UNL     1      26.326  23.453  22.727  0.00  0.00    +0.000 C 
ATOM     10  O   UNL     1      25.333  22.750  22.331  0.00  0.00    +0.000 OA
ATOM     11  N   UNL     1      26.360  24.223  23.929  0.00  0.00    +0.000 N 
ATOM     12  C   UNL     1      27.641  24.844  23.981  0.00  0.00    +0.000 C 
ATOM     13  O   UNL     1      27.934  25.859  24.639  0.00  0.00    +0.000 OA
ENDROOT
BRANCH  11  14
ATOM     14  C   UNL     1      25.290  24.347  24.906  0.00  0.00    +0.000 C 
BRANCH  14  15
ATOM     15  N   UNL     1      25.649  23.612  26.086  0.00  0.00    +0.000 NA
BRANCH  15  16
ATOM     16  C   UNL     1      25.497  24.232  27.376  0.00  0.00    +0.000 A 
ATOM     17  C   UNL     1      24.782  25.385  27.551  0.00  0.00    +0.000 A 
ATOM     18  C   UNL     1      24.632  25.988  28.782  0.00  0.00    +0.000 A 
ATOM     19  C   UNL     1      25.227  25.399  29.877  0.00  0.00    +0.000 A 
ATOM     20  C   UNL     1      25.954  24.238  29.747  0.00  0.00    +0.000 A 
ATOM     21  C   UNL     1      26.079  23.673  28.501  0.00  0.00    +0.000 A 
ENDBRANCH  15  16
ENDBRANCH  14  15
ENDBRANCH  11  14
TORSDOF 3
ENDMDL
MODEL 2
REMARK VINA RESULT:      -6.5      1.682      5.213
REMARK  Name = 
REMARK  3 active torsions:
REMARK  status: ('A' for Active; 'I' for Inactive)
REMARK    1  A    between atoms: N_11  and  C_12
REMARK    2  A    between atoms: C_12  and  N_13
REMARK    3  A    between atoms: N_13  and  C_14
REMARK                            x       y       z     vdW  Elec       q    Type
REMARK                         _______ _______ _______ _____ _____    ______ ____
ROOT
ATOM      1  C   UNL     1      26.088  23.829  28.605  0.00  0.00    +0.000 C 
ATOM      2  C   UNL     1      26.160  24.812  27.478  0.00  0.00    +0.000 C 
ATOM      3  C   UNL     1      27.482  24.615  26.773  0.00  0.00    +0.000 C 
ATOM      4  C   UNL     1      27.568  25.604  25.663  0.00  0.00    +0.000 C 
ATOM      5  C   UNL     1      26.436  25.586  24.703  0.00  0.00    +0.000 C 
ATOM      6  C   UNL     1      25.078  25.491  25.321  0.00  0.00    +0.000 C 
ATOM      7  C   UNL     1      24.998  24.641  26.532  0.00  0.00    +0.000 C 
ATOM      8  N   UNL     1      26.587  26.653  23.769  0.00  0.00    +0.000 NA
ATOM      9  C   UNL     1      27.546  26.220  22.810  0.00  0.00    +0.000 C 
ATOM     10  O   UNL     1      28.276  26.951  22.055  0.00  0.00    +0.000 OA
ATOM     11  N   UNL     1      27.558  24.792  22.830  0.00  0.00    +0.000 N 
ATOM     12  C   UNL     1      26.601  24.388  23.805  0.00  0.00    +0.000 C 
ATOM     13  O   UNL     1      26.046  23.276  23.866  0.00  0.00    +0.000 OA
ENDROOT
BRANCH  11  14
ATOM     14  C   UNL     1      28.388  23.924  22.010  0.00  0.00    +0.000 C 
BRANCH  14  15
ATOM     15  N   UNL     1      29.765  24.117  22.371  0.00  0.00    +0.000 NA
BRANCH  15  16
ATOM     16  C   UNL     1      30.192  23.807  23.710  0.00  0.00    +0.000 A 
ATOM     17  C   UNL     1      30.977  24.656  24.440  0.00  0.00    +0.000 A 
ATOM     18  C   UNL     1      31.392  24.368  25.723  0.00  0.00    +0.000 A 
ATOM     19  C   UNL     1      30.994  23.175  26.288  0.00  0.00    +0.000 A 
ATOM     20  C   UNL     1      30.203  22.291  25.590  0.00  0.00    +0.000 A 
ATOM     21  C   UNL     1      29.815  22.620  24.314  0.00  0.00    +0.000 A 
ENDBRANCH  15  16
ENDBRANCH  14  15
ENDBRANCH  11  14
TORSDOF 3
ENDMDL
MODEL 3
REMARK VINA RESULT:      -6.2      2.033      3.191
REMARK  Name = 
REMARK  3 active torsions:
REMARK  status: ('A' for Active; 'I' for Inactive)
REMARK    1  A    between atoms: N_11  and  C_12
REMARK    2  A    between atoms: C_12  and  N_13
REMARK    3  A    between atoms: N_13  and  C_14
REMARK                            x       y       z     vdW  Elec       q    Type
REMARK                         _______ _______ _______ _____ _____    ______ ____
ROOT
ATOM      1  C   UNL     1      28.264  28.026  21.317  0.00  0.00    +0.000 C 
ATOM      2  C   UNL     1      29.034  26.875  21.885  0.00  0.00    +0.000 C 
ATOM      3  C   UNL     1      28.582  26.671  23.312  0.00  0.00    +0.000 C 
ATOM      4  C   UNL     1      29.359  25.539  23.889  0.00  0.00    +0.000 C 
ATOM      5  C   UNL     1      29.308  24.271  23.118  0.00  0.00    +0.000 C 
ATOM      6  C   UNL     1      29.464  24.417  21.639  0.00  0.00    +0.000 C 
ATOM      7  C   UNL     1      28.838  25.628  21.058  0.00  0.00    +0.000 C 
ATOM      8  N   UNL     1      30.184  23.316  23.714  0.00  0.00    +0.000 NA
ATOM      9  C   UNL     1      29.497  22.784  24.842  0.00  0.00    +0.000 C 
ATOM     10  O   UNL     1      30.010  22.227  25.873  0.00  0.00    +0.000 OA
ATOM     11  N   UNL     1      28.099  22.979  24.624  0.00  0.00    +0.000 N 
ATOM     12  C   UNL     1      27.968  23.628  23.363  0.00  0.00    +0.000 C 
ATOM     13  O   UNL     1      26.948  23.638  22.650  0.00  0.00    +0.000 OA
ENDROOT
BRANCH  11  14
ATOM     14  C   UNL     1      27.023  22.586  25.520  0.00  0.00    +0.000 C 
BRANCH  14  15
ATOM     15  N   UNL     1      26.647  23.718  26.321  0.00  0.00    +0.000 NA
BRANCH  15  16
ATOM     16  C   UNL     1      26.620  23.589  27.754  0.00  0.00    +0.000 A 
ATOM     17  C   UNL     1      25.864  24.408  28.546  0.00  0.00    +0.000 A 
ATOM     18  C   UNL     1      25.832  24.293  29.919  0.00  0.00    +0.000 A 
ATOM     19  C   UNL     1      26.593  23.309  30.512  0.00  0.00    +0.000 A 
ATOM     20  C   UNL     1      27.368  22.461  29.754  0.00  0.00    +0.000 A 
ATOM     21  C   UNL     1      27.370  22.614  28.389  0.00  0.00    +0.000 A 
ENDBRANCH  15  16
ENDBRANCH  14  15
ENDBRANCH  11  14
TORSDOF 3
ENDMDL
MODEL 4
REMARK VINA RESULT:      -6.2      3.142      6.431
REMARK  Name = 
REMARK  3 active torsions:
REMARK  status: ('A' for Active; 'I' for Inactive)
REMARK    1  A    between atoms: N_11  and  C_12
REMARK    2  A    between atoms: C_12  and  N_13
REMARK    3  A    between atoms: N_13  and  C_14
REMARK                            x       y       z     vdW  Elec       q    Type
REMARK                         _______ _______ _______ _____ _____    ______ ____
ROOT
ATOM      1  C   UNL     1      25.886  23.417  23.904  0.00  0.00    +0.000 C 
ATOM      2  C   UNL     1      25.932  23.115  25.370  0.00  0.00    +0.000 C 
ATOM      3  C   UNL     1      27.329  22.647  25.706  0.00  0.00    +0.000 C 
ATOM      4  C   UNL     1      27.375  22.326  27.159  0.00  0.00    +0.000 C 
ATOM      5  C   UNL     1      26.936  23.415  28.068  0.00  0.00    +0.000 C 
ATOM      6  C   UNL     1      25.694  24.133  27.649  0.00  0.00    +0.000 C 
ATOM      7  C   UNL     1      25.541  24.322  26.187  0.00  0.00    +0.000 C 
ATOM      8  N   UNL     1      26.918  22.936  29.411  0.00  0.00    +0.000 NA
ATOM      9  C   UNL     1      28.267  22.953  29.867  0.00  0.00    +0.000 C 
ATOM     10  O   UNL     1      28.776  22.262  30.815  0.00  0.00    +0.000 OA
ATOM     11  N   UNL     1      28.977  23.899  29.068  0.00  0.00    +0.000 N 
ATOM     12  C   UNL     1      28.040  24.438  28.140  0.00  0.00    +0.000 C 
ATOM     13  O   UNL     1      28.148  25.523  27.540  0.00  0.00    +0.000 OA
ENDROOT
BRANCH  11  14
ATOM     14  C   UNL     1      30.386  24.243  29.184  0.00  0.00    +0.000 C 
BRANCH  14  15
ATOM     15  N   UNL     1      31.168  23.234  28.526  0.00  0.00    +0.000 NA
BRANCH  15  16
ATOM     16  C   UNL     1      31.469  23.378  27.126  0.00  0.00    +0.000 A 
ATOM     17  C   UNL     1      32.396  24.272  26.667  0.00  0.00    +0.000 A 
ATOM     18  C   UNL     1      32.691  24.417  25.328  0.00  0.00    +0.000 A 
ATOM     19  C   UNL     1      32.022  23.626  24.420  0.00  0.00    +0.000 A 
ATOM     20  C   UNL     1      31.082  22.712  24.836  0.00  0.00    +0.000 A 
ATOM     21  C   UNL     1      30.819  22.602  26.181  0.00  0.00    +0.000 A 
ENDBRANCH  15  16
ENDBRANCH  14  15
ENDBRANCH  11  14
TORSDOF 3
ENDMDL
MODEL 5
REMARK VINA RESULT:      -6.0      2.019      3.378
REMARK  Name = 
REMARK  3 active torsions:
REMARK  status: ('A' for Active; 'I' for Inactive)
REMARK    1  A    between atoms: N_11  and  C_12
REMARK    2  A    between atoms: C_12  and  N_13
REMARK    3  A    between atoms: N_13  and  C_14
REMARK                            x       y       z     vdW  Elec       q    Type
REMARK                         _______ _______ _______ _____ _____    ______ ____
ROOT
ATOM      1  C   UNL     1      28.140  28.067  21.248  0.00  0.00    +0.000 C 
ATOM      2  C   UNL     1      28.923  26.929  21.827  0.00  0.00    +0.000 C 
ATOM      3  C   UNL     1      28.448  26.710  23.244  0.00  0.00    +0.000 C 
ATOM      4  C   UNL     1      29.237  25.592  23.831  0.00  0.00    +0.000 C 
ATOM      5  C   UNL     1      29.225  24.326  23.055  0.00  0.00    +0.000 C 
ATOM      6  C   UNL     1      29.407  24.482  21.580  0.00  0.00    +0.000 C 
ATOM      7  C   UNL     1      28.768  25.682  20.992  0.00  0.00    +0.000 C 
ATOM      8  N   UNL     1      30.109  23.387  23.665  0.00  0.00    +0.000 NA
ATOM      9  C   UNL     1      29.412  22.836  24.777  0.00  0.00    +0.000 C 
ATOM     10  O   UNL     1      29.917  22.286  25.816  0.00  0.00    +0.000 OA
ATOM     11  N   UNL     1      28.015  23.004  24.533  0.00  0.00    +0.000 N 
ATOM     12  C   UNL     1      27.894  23.656  23.272  0.00  0.00    +0.000 C 
ATOM     13  O   UNL     1      26.889  23.648  22.540  0.00  0.00    +0.000 OA
ENDROOT
BRANCH  11  14
ATOM     14  C   UNL     1      26.930  22.587  25.407  0.00  0.00    +0.000 C 
BRANCH  14  15
ATOM     15  N   UNL     1      26.799  23.538  26.475  0.00  0.00    +0.000 NA
BRANCH  15  16
ATOM     16  C   UNL     1      25.730  24.500  26.435  0.00  0.00    +0.000 A 
ATOM     17  C   UNL     1      25.317  25.084  25.269  0.00  0.00    +0.000 A 
ATOM     18  C   UNL     1      24.294  26.007  25.220  0.00  0.00    +0.000 A 
ATOM     19  C   UNL     1      23.665  26.350  26.397  0.00  0.00    +0.000 A 
ATOM     20  C   UNL     1      24.047  25.788  27.593  0.00  0.00    +0.000 A 
ATOM     21  C   UNL     1      25.072  24.873  27.594  0.00  0.00    +0.000 A 
ENDBRANCH  15  16
ENDBRANCH  14  15
ENDBRANCH  11  14
TORSDOF 3
ENDMDL
MODEL 6
REMARK VINA RESULT:      -5.9     21.260     23.450
REMARK  Name = 
REMARK  3 active torsions:
REMARK  status: ('A' for Active; 'I' for Inactive)
REMARK    1  A    between atoms: N_11  and  C_12
REMARK    2  A    between atoms: C_12  and  N_13
REMARK    3  A    between atoms: N_13  and  C_14
REMARK                            x       y       z     vdW  Elec       q    Type
REMARK                         _______ _______ _______ _____ _____    ______ ____
ROOT
ATOM      1  C   UNL     1      18.415   2.610  14.090  0.00  0.00    +0.000 C 
ATOM      2  C   UNL     1      19.495   1.875  14.822  0.00  0.00    +0.000 C 
ATOM      3  C   UNL     1      20.752   2.712  14.762  0.00  0.00    +0.000 C 
ATOM      4  C   UNL     1      21.835   1.977  15.471  0.00  0.00    +0.000 C 
ATOM      5  C   UNL     1      21.523   1.569  16.864  0.00  0.00    +0.000 C 
ATOM      6  C   UNL     1      20.163   0.982  17.067  0.00  0.00    +0.000 C 
ATOM      7  C   UNL     1      19.089   1.588  16.246  0.00  0.00    +0.000 C 
ATOM      8  N   UNL     1      22.592   0.777  17.378  0.00  0.00    +0.000 NA
ATOM      9  C   UNL     1      23.621   1.684  17.761  0.00  0.00    +0.000 C 
ATOM     10  O   UNL     1      24.870   1.435  17.885  0.00  0.00    +0.000 OA
ATOM     11  N   UNL     1      23.010   2.953  17.991  0.00  0.00    +0.000 N 
ATOM     12  C   UNL     1      21.617   2.789  17.742  0.00  0.00    +0.000 C 
ATOM     13  O   UNL     1      20.708   3.519  18.175  0.00  0.00    +0.000 OA
ENDROOT
BRANCH  11  14
ATOM     14  C   UNL     1      23.685   4.175  18.401  0.00  0.00    +0.000 C 
BRANCH  14  15
ATOM     15  N   UNL     1      24.487   4.653  17.310  0.00  0.00    +0.000 NA
BRANCH  15  16
ATOM     16  C   UNL     1      25.678   5.412  17.590  0.00  0.00    +0.000 A 
ATOM     17  C   UNL     1      26.091   6.443  16.792  0.00  0.00    +0.000 A 
ATOM     18  C   UNL     1      27.231   7.174  17.053  0.00  0.00    +0.000 A 
ATOM     19  C   UNL     1      27.978   6.850  18.164  0.00  0.00    +0.000 A 
ATOM     20  C   UNL     1      27.600   5.821  18.995  0.00  0.00    +0.000 A 
ATOM     21  C   UNL     1      26.457   5.118  18.697  0.00  0.00    +0.000 A 
ENDBRANCH  15  16
ENDBRANCH  14  15
ENDBRANCH  11  14
TORSDOF 3
ENDMDL
MODEL 7
REMARK VINA RESULT:      -5.9      3.012      4.424
REMARK  Name = 
REMARK  3 active torsions:
REMARK  status: ('A' for Active; 'I' for Inactive)
REMARK    1  A    between atoms: N_11  and  C_12
REMARK    2  A    between atoms: C_12  and  N_13
REMARK    3  A    between atoms: N_13  and  C_14
REMARK                            x       y       z     vdW  Elec       q    Type
REMARK                         _______ _______ _______ _____ _____    ______ ____
ROOT
ATOM      1  C   UNL     1      30.053  28.206  27.344  0.00  0.00    +0.000 C 
ATOM      2  C   UNL     1      30.194  27.990  25.869  0.00  0.00    +0.000 C 
ATOM      3  C   UNL     1      30.163  26.501  25.611  0.00  0.00    +0.000 C 
ATOM      4  C   UNL     1      30.323  26.280  24.148  0.00  0.00    +0.000 C 
ATOM      5  C   UNL     1      29.354  26.999  23.283  0.00  0.00    +0.000 C 
ATOM      6  C   UNL     1      29.108  28.427  23.652  0.00  0.00    +0.000 C 
ATOM      7  C   UNL     1      29.108  28.707  25.107  0.00  0.00    +0.000 C 
ATOM      8  N   UNL     1      29.695  26.793  21.913  0.00  0.00    +0.000 NA
ATOM      9  C   UNL     1      29.209  25.501  21.564  0.00  0.00    +0.000 C 
ATOM     10  O   UNL     1      29.617  24.748  20.614  0.00  0.00    +0.000 OA
ATOM     11  N   UNL     1      28.161  25.176  22.477  0.00  0.00    +0.000 N 
ATOM     12  C   UNL     1      28.032  26.283  23.364  0.00  0.00    +0.000 C 
ATOM     13  O   UNL     1      27.026  26.563  24.041  0.00  0.00    +0.000 OA
ENDROOT
BRANCH  11  14
ATOM     14  C   UNL     1      27.378  23.950  22.493  0.00  0.00    +0.000 C 
BRANCH  14  15
ATOM     15  N   UNL     1      28.228  22.859  22.879  0.00  0.00    +0.000 NA
BRANCH  15  16
ATOM     16  C   UNL     1      28.828  22.862  24.188  0.00  0.00    +0.000 A 
ATOM     17  C   UNL     1      30.167  22.658  24.377  0.00  0.00    +0.000 A 
ATOM     18  C   UNL     1      30.750  22.659  25.626  0.00  0.00    +0.000 A 
ATOM     19  C   UNL     1      29.946  22.876  26.724  0.00  0.00    +0.000 A 
ATOM     20  C   UNL     1      28.594  23.086  26.581  0.00  0.00    +0.000 A 
ATOM     21  C   UNL     1      28.056  23.076  25.317  0.00  0.00    +0.000 A 
ENDBRANCH  15  16
ENDBRANCH  14  15
ENDBRANCH  11  14
TORSDOF 3
ENDMDL
MODEL 8
REMARK VINA RESULT:      -5.9     13.197     15.830
REMARK  Name = 
REMARK  3 active torsions:
REMARK  status: ('A' for Active; 'I' for Inactive)
REMARK    1  A    between atoms: N_11  and  C_12
REMARK    2  A    between atoms: C_12  and  N_13
REMARK    3  A    between atoms: N_13  and  C_14
REMARK                            x       y       z     vdW  Elec       q    Type
REMARK                         _______ _______ _______ _____ _____    ______ ____
ROOT
ATOM      1  C   UNL     1      36.499  24.404   7.157  0.00  0.00    +0.000 C 
ATOM      2  C   UNL     1      36.061  23.220   7.964  0.00  0.00    +0.000 C 
ATOM      3  C   UNL     1      35.518  23.728   9.279  0.00  0.00    +0.000 C 
ATOM      4  C   UNL     1      35.101  22.554  10.094  0.00  0.00    +0.000 C 
ATOM      5  C   UNL     1      34.145  21.627   9.435  0.00  0.00    +0.000 C 
ATOM      6  C   UNL     1      34.460  21.292   8.013  0.00  0.00    +0.000 C 
ATOM      7  C   UNL     1      35.035  22.403   7.219  0.00  0.00    +0.000 C 
ATOM      8  N   UNL     1      33.925  20.495  10.275  0.00  0.00    +0.000 NA
ATOM      9  C   UNL     1      33.001  20.907  11.277  0.00  0.00    +0.000 C 
ATOM     10  O   UNL     1      32.826  20.389  12.433  0.00  0.00    +0.000 OA
ATOM     11  N   UNL     1      32.279  22.026  10.761  0.00  0.00    +0.000 N 
ATOM     12  C   UNL     1      32.783  22.270   9.451  0.00  0.00    +0.000 C 
ATOM     13  O   UNL     1      32.193  22.886   8.545  0.00  0.00    +0.000 OA
ENDROOT
BRANCH  11  14
ATOM     14  C   UNL     1      31.232  22.768  11.445  0.00  0.00    +0.000 C 
BRANCH  14  15
ATOM     15  N   UNL     1      29.954  22.248  11.045  0.00  0.00    +0.000 NA
BRANCH  15  16
ATOM     16  C   UNL     1      28.783  22.591  11.808  0.00  0.00    +0.000 A 
ATOM     17  C   UNL     1      28.862  23.196  13.032  0.00  0.00    +0.000 A 
ATOM     18  C   UNL     1      27.746  23.528  13.771  0.00  0.00    +0.000 A 
ATOM     19  C   UNL     1      26.505  23.237  13.249  0.00  0.00    +0.000 A 
ATOM     20  C   UNL     1      26.378  22.630  12.021  0.00  0.00    +0.000 A 
ATOM     21  C   UNL     1      27.517  22.316  11.320  0.00  0.00    +0.000 A 
ENDBRANCH  15  16
ENDBRANCH  14  15
ENDBRANCH  11  14
TORSDOF 3
ENDMDL
MODEL 9
REMARK VINA RESULT:      -5.8      1.944      5.732
REMARK  Name = 
REMARK  3 active torsions:
REMARK  status: ('A' for Active; 'I' for Inactive)
REMARK    1  A    between atoms: N_11  and  C_12
REMARK    2  A    between atoms: C_12  and  N_13
REMARK    3  A    between atoms: N_13  and  C_14
REMARK                            x       y       z     vdW  Elec       q    Type
REMARK                         _______ _______ _______ _____ _____    ______ ____
ROOT
ATOM      1  C   UNL     1      26.871  26.928  28.930  0.00  0.00    +0.000 C 
ATOM      2  C   UNL     1      26.261  26.185  27.782  0.00  0.00    +0.000 C 
ATOM      3  C   UNL     1      27.192  26.310  26.599  0.00  0.00    +0.000 C 
ATOM      4  C   UNL     1      26.581  25.590  25.448  0.00  0.00    +0.000 C 
ATOM      5  C   UNL     1      26.216  24.173  25.703  0.00  0.00    +0.000 C 
ATOM      6  C   UNL     1      25.532  23.915  27.006  0.00  0.00    +0.000 C 
ATOM      7  C   UNL     1      26.010  24.741  28.140  0.00  0.00    +0.000 C 
ATOM      8  N   UNL     1      25.539  23.645  24.564  0.00  0.00    +0.000 NA
ATOM      9  C   UNL     1      26.542  23.326  23.606  0.00  0.00    +0.000 C 
ATOM     10  O   UNL     1      26.401  23.216  22.339  0.00  0.00    +0.000 OA
ATOM     11  N   UNL     1      27.768  23.143  24.314  0.00  0.00    +0.000 N 
ATOM     12  C   UNL     1      27.481  23.355  25.693  0.00  0.00    +0.000 C 
ATOM     13  O   UNL     1      28.155  22.937  26.652  0.00  0.00    +0.000 OA
ENDROOT
BRANCH  11  14
ATOM     14  C   UNL     1      29.058  22.803  23.734  0.00  0.00    +0.000 C 
BRANCH  14  15
ATOM     15  N   UNL     1      29.907  23.962  23.774  0.00  0.00    +0.000 NA
BRANCH  15  16
ATOM     16  C   UNL     1      29.615  25.078  22.914  0.00  0.00    +0.000 A 
ATOM     17  C   UNL     1      29.430  24.933  21.567  0.00  0.00    +0.000 A 
ATOM     18  C   UNL     1      29.150  25.996  20.735  0.00  0.00    +0.000 A 
ATOM     19  C   UNL     1      29.054  27.254  21.290  0.00  0.00    +0.000 A 
ATOM     20  C   UNL     1      29.231  27.447  22.640  0.00  0.00    +0.000 A 
ATOM     21  C   UNL     1      29.509  26.358  23.431  0.00  0.00    +0.000 A 
ENDBRANCH  15  16
ENDBRANCH  14  15
ENDBRANCH  11  14
TORSDOF 3
ENDMDL
MODEL 10
REMARK VINA RESULT:      -5.8      2.850      5.416
REMARK  Name = 
REMARK  3 active torsions:
REMARK  status: ('A' for Active; 'I' for Inactive)
REMARK    1  A    between atoms: N_11  and  C_12
REMARK    2  A    between atoms: C_12  and  N_13
REMARK    3  A    between atoms: N_13  and  C_14
REMARK                            x       y       z     vdW  Elec       q    Type
REMARK                         _______ _______ _______ _____ _____    ______ ____
ROOT
ATOM      1  C   UNL     1      32.330  25.118  27.179  0.00  0.00    +0.000 C 
ATOM      2  C   UNL     1      31.042  24.353  27.153  0.00  0.00    +0.000 C 
ATOM      3  C   UNL     1      30.028  25.174  26.392  0.00  0.00    +0.000 C 
ATOM      4  C   UNL     1      28.740  24.427  26.380  0.00  0.00    +0.000 C 
ATOM      5  C   UNL     1      28.812  23.038  25.860  0.00  0.00    +0.000 C 
ATOM      6  C   UNL     1      29.971  22.233  26.352  0.00  0.00    +0.000 C 
ATOM      7  C   UNL     1      31.231  22.991  26.532  0.00  0.00    +0.000 C 
ATOM      8  N   UNL     1      27.543  22.406  26.015  0.00  0.00    +0.000 NA
ATOM      9  C   UNL     1      26.722  22.876  24.951  0.00  0.00    +0.000 C 
ATOM     10  O   UNL     1      25.444  22.907  24.911  0.00  0.00    +0.000 OA
ATOM     11  N   UNL     1      27.588  23.318  23.905  0.00  0.00    +0.000 N 
ATOM     12  C   UNL     1      28.921  23.105  24.359  0.00  0.00    +0.000 C 
ATOM     13  O   UNL     1      29.930  23.003  23.638  0.00  0.00    +0.000 OA
ENDROOT
BRANCH  11  14
ATOM     14  C   UNL     1      27.180  23.875  22.625  0.00  0.00    +0.000 C 
BRANCH  14  15
ATOM     15  N   UNL     1      27.118  25.306  22.738  0.00  0.00    +0.000 NA
BRANCH  15  16
ATOM     16  C   UNL     1      27.830  26.119  21.787  0.00  0.00    +0.000 A 
ATOM     17  C   UNL     1      27.439  27.394  21.480  0.00  0.00    +0.000 A 
ATOM     18  C   UNL     1      28.114  28.180  20.571  0.00  0.00    +0.000 A 
ATOM     19  C   UNL     1      29.227  27.655  19.950  0.00  0.00    +0.000 A 
ATOM     20  C   UNL     1      29.657  26.379  20.229  0.00  0.00    +0.000 A 
ATOM     21  C   UNL     1      28.953  25.631  21.142  0.00  0.00    +0.000 A 
ENDBRANCH  15  16
ENDBRANCH  14  15
ENDBRANCH  11  14
TORSDOF 3
ENDMDL
