MODEL 1
REMARK VINA RESULT:      -8.0      0.000      0.000
REMARK  Name = 
REMARK  6 active torsions:
REMARK  status: ('A' for Active; 'I' for Inactive)
REMARK    1  A    between atoms: C_2  and  C_3
REMARK    2  A    between atoms: C_6  and  N_7
REMARK    3  A    between atoms: N_10  and  C_11
REMARK    4  A    between atoms: C_11  and  C_12
REMARK    5  A    between atoms: C_12  and  O_13
REMARK    6  A    between atoms: O_13  and  C_14
REMARK                            x       y       z     vdW  Elec       q    Type
REMARK                         _______ _______ _______ _____ _____    ______ ____
ROOT
ATOM      1  C   UNL     1      36.978  -2.640  15.383  0.00  0.00    +0.000 A 
ATOM      2  C   UNL     1      36.462  -1.680  16.214  0.00  0.00    +0.000 A 
ATOM      3  C   UNL     1      36.761  -0.371  15.905  0.00  0.00    +0.000 A 
ATOM      4  C   UNL     1      37.543  -0.063  14.809  0.00  0.00    +0.000 A 
ATOM      5  N   UNL     1      38.049  -1.000  13.994  0.00  0.00    +0.000 N 
ATOM      6  C   UNL     1      37.758  -2.302  14.292  0.00  0.00    +0.000 A 
ATOM      7  N   UNL     1      38.367  -3.033  13.350  0.00  0.00    +0.000 NA
ATOM      8  C   UNL     1      39.022  -2.271  12.479  0.00  0.00    +0.000 A 
ATOM      9  C   UNL     1      39.789  -2.540  11.352  0.00  0.00    +0.000 A 
ATOM     10  C   UNL     1      40.366  -1.508  10.614  0.00  0.00    +0.000 A 
ATOM     11  C   UNL     1      40.161  -0.204  11.028  0.00  0.00    +0.000 A 
ATOM     12  C   UNL     1      39.398   0.041  12.146  0.00  0.00    +0.000 A 
ATOM     13  C   UNL     1      38.826  -0.978  12.880  0.00  0.00    +0.000 A 
ATOM     14  C   UNL     1      36.201   0.665  16.804  0.00  0.00    +0.000 C 
ATOM     15  C   UNL     1      34.731   0.387  16.965  0.00  0.00    +0.000 C 
ATOM     16  C   UNL     1      34.387  -1.038  17.232  0.00  0.00    +0.000 C 
ATOM     17  C   UNL     1      35.608  -1.942  17.404  0.00  0.00    +0.000 C 
ENDROOT
BRANCH   4  18
ATOM     18  N   UNL     1      37.828   1.311  14.510  0.00  0.00    +0.000 N 
ATOM     19  C   UNL     1      36.884   2.050  13.729  0.00  0.00    +0.000 C 
ATOM     20  C   UNL     1      36.795   3.465  14.226  0.00  0.00    +0.000 C 
ATOM     21  N   UNL     1      38.051   4.059  14.514  0.00  0.00    +0.000 NA
ATOM     22  C   UNL     1      39.183   3.249  14.226  0.00  0.00    +0.000 C 
ATOM     23  C   UNL     1      39.073   1.915  14.983  0.00  0.00    +0.000 C 
BRANCH  21  24
ATOM     24  C   UNL     1      38.183   5.375  14.064  0.00  0.00    +0.000 C 
BRANCH  24  25
ATOM     25  C   UNL     1      38.117   6.389  15.162  0.00  0.00    +0.000 C 
BRANCH  25  26
ATOM     26  O   UNL     1      38.173   5.748  16.409  0.00  0.00    +0.000 OA
BRANCH  26  27
ATOM     27  C   UNL     1      39.219   5.972  17.289  0.00  0.00    +0.000 A 
ATOM     28  C   UNL     1      40.505   6.192  16.836  0.00  0.00    +0.000 A 
ATOM     29  C   UNL     1      41.534   6.414  17.727  0.00  0.00    +0.000 A 
ATOM     30  C   UNL     1      41.330   6.425  19.081  0.00  0.00    +0.000 A 
ATOM     31  C   UNL     1      40.052   6.208  19.551  0.00  0.00    +0.000 A 
ATOM     32  C   UNL     1      39.029   5.988  18.656  0.00  0.00    +0.000 A 
ENDBRANCH  26  27
ENDBRANCH  25  26
ENDBRANCH  24  25
ENDBRANCH  21  24
ENDBRANCH   4  18
BRANCH   1  34
ATOM     33  N   UNL     1      36.402  -5.128  15.937  0.00  0.00    +0.000 NA
ATOM     34  C   UNL     1      36.667  -4.019  15.699  0.00  0.00    +0.000 C 
ENDBRANCH   1  34
TORSDOF 6
ENDMDL
MODEL 2
REMARK VINA RESULT:      -7.8      3.277      4.105
REMARK  Name = 
REMARK  6 active torsions:
REMARK  status: ('A' for Active; 'I' for Inactive)
REMARK    1  A    between atoms: C_2  and  C_3
REMARK    2  A    between atoms: C_6  and  N_7
REMARK    3  A    between atoms: N_10  and  C_11
REMARK    4  A    between atoms: C_11  and  C_12
REMARK    5  A    between atoms: C_12  and  O_13
REMARK    6  A    between atoms: O_13  and  C_14
REMARK                            x       y       z     vdW  Elec       q    Type
REMARK                         _______ _______ _______ _____ _____    ______ ____
ROOT
ATOM      1  C   UNL     1      38.636  -2.570  16.941  0.00  0.00    +0.000 A 
ATOM      2  C   UNL     1      37.598  -1.697  17.134  0.00  0.00    +0.000 A 
ATOM      3  C   UNL     1      37.451  -0.697  16.198  0.00  0.00    +0.000 A 
ATOM      4  C   UNL     1      38.317  -0.597  15.126  0.00  0.00    +0.000 A 
ATOM      5  N   UNL     1      39.334  -1.451  14.935  0.00  0.00    +0.000 N 
ATOM      6  C   UNL     1      39.488  -2.447  15.858  0.00  0.00    +0.000 A 
ATOM      7  N   UNL     1      40.552  -3.153  15.455  0.00  0.00    +0.000 NA
ATOM      8  C   UNL     1      41.075  -2.662  14.335  0.00  0.00    +0.000 A 
ATOM      9  C   UNL     1      42.153  -3.025  13.537  0.00  0.00    +0.000 A 
ATOM     10  C   UNL     1      42.471  -2.304  12.388  0.00  0.00    +0.000 A 
ATOM     11  C   UNL     1      41.688  -1.212  12.055  0.00  0.00    +0.000 A 
ATOM     12  C   UNL     1      40.625  -0.869  12.857  0.00  0.00    +0.000 A 
ATOM     13  C   UNL     1      40.308  -1.581  13.998  0.00  0.00    +0.000 A 
ATOM     14  C   UNL     1      36.327   0.246  16.407  0.00  0.00    +0.000 C 
ATOM     15  C   UNL     1      35.084  -0.568  16.644  0.00  0.00    +0.000 C 
ATOM     16  C   UNL     1      35.245  -1.697  17.603  0.00  0.00    +0.000 C 
ATOM     17  C   UNL     1      36.626  -1.752  18.259  0.00  0.00    +0.000 C 
ENDROOT
BRANCH   4  18
ATOM     18  N   UNL     1      38.132   0.450  14.164  0.00  0.00    +0.000 N 
ATOM     19  C   UNL     1      38.745   1.720  14.411  0.00  0.00    +0.000 C 
ATOM     20  C   UNL     1      39.242   2.315  13.124  0.00  0.00    +0.000 C 
ATOM     21  N   UNL     1      38.332   2.199  12.042  0.00  0.00    +0.000 NA
ATOM     22  C   UNL     1      37.081   1.603  12.364  0.00  0.00    +0.000 C 
ATOM     23  C   UNL     1      37.312   0.212  12.977  0.00  0.00    +0.000 C 
BRANCH  21  24
ATOM     24  C   UNL     1      38.211   3.354  11.265  0.00  0.00    +0.000 C 
BRANCH  24  25
ATOM     25  C   UNL     1      37.824   4.565  12.054  0.00  0.00    +0.000 C 
BRANCH  25  26
ATOM     26  O   UNL     1      36.805   5.265  11.390  0.00  0.00    +0.000 OA
BRANCH  26  27
ATOM     27  C   UNL     1      35.738   5.814  12.081  0.00  0.00    +0.000 A 
ATOM     28  C   UNL     1      34.862   6.692  11.472  0.00  0.00    +0.000 A 
ATOM     29  C   UNL     1      33.805   7.229  12.175  0.00  0.00    +0.000 A 
ATOM     30  C   UNL     1      33.578   6.921  13.490  0.00  0.00    +0.000 A 
ATOM     31  C   UNL     1      34.441   6.044  14.113  0.00  0.00    +0.000 A 
ATOM     32  C   UNL     1      35.495   5.512  13.405  0.00  0.00    +0.000 A 
ENDBRANCH  26  27
ENDBRANCH  25  26
ENDBRANCH  24  25
ENDBRANCH  21  24
ENDBRANCH   4  18
BRANCH   1  34
ATOM     33  N   UNL     1      38.906  -4.482  18.703  0.00  0.00    +0.000 NA
ATOM     34  C   UNL     1      38.797  -3.627  17.919  0.00  0.00    +0.000 C 
ENDBRANCH   1  34
TORSDOF 6
ENDMDL
MODEL 3
REMARK VINA RESULT:      -7.8      3.837      7.821
REMARK  Name = 
REMARK  6 active torsions:
REMARK  status: ('A' for Active; 'I' for Inactive)
REMARK    1  A    between atoms: C_2  and  C_3
REMARK    2  A    between atoms: C_6  and  N_7
REMARK    3  A    between atoms: N_10  and  C_11
REMARK    4  A    between atoms: C_11  and  C_12
REMARK    5  A    between atoms: C_12  and  O_13
REMARK    6  A    between atoms: O_13  and  C_14
REMARK                            x       y       z     vdW  Elec       q    Type
REMARK                         _______ _______ _______ _____ _____    ______ ____
ROOT
ATOM      1  C   UNL     1      35.273   5.170  13.647  0.00  0.00    +0.000 A 
ATOM      2  C   UNL     1      36.087   5.399  12.568  0.00  0.00    +0.000 A 
ATOM      3  C   UNL     1      36.985   4.405  12.251  0.00  0.00    +0.000 A 
ATOM      4  C   UNL     1      37.048   3.243  12.996  0.00  0.00    +0.000 A 
ATOM      5  N   UNL     1      36.254   3.016  14.052  0.00  0.00    +0.000 N 
ATOM      6  C   UNL     1      35.357   3.997  14.375  0.00  0.00    +0.000 A 
ATOM      7  N   UNL     1      34.694   3.543  15.445  0.00  0.00    +0.000 NA
ATOM      8  C   UNL     1      35.117   2.337  15.814  0.00  0.00    +0.000 A 
ATOM      9  C   UNL     1      34.759   1.462  16.833  0.00  0.00    +0.000 A 
ATOM     10  C   UNL     1      35.394   0.231  16.978  0.00  0.00    +0.000 A 
ATOM     11  C   UNL     1      36.395  -0.107  16.083  0.00  0.00    +0.000 A 
ATOM     12  C   UNL     1      36.734   0.773  15.081  0.00  0.00    +0.000 A 
ATOM     13  C   UNL     1      36.107   1.995  14.935  0.00  0.00    +0.000 A 
ATOM     14  C   UNL     1      37.863   4.653  11.083  0.00  0.00    +0.000 C 
ATOM     15  C   UNL     1      36.990   5.087   9.938  0.00  0.00    +0.000 C 
ATOM     16  C   UNL     1      35.966   6.113  10.281  0.00  0.00    +0.000 C 
ATOM     17  C   UNL     1      36.065   6.622  11.719  0.00  0.00    +0.000 C 
ENDROOT
BRANCH   4  18
ATOM     18  N   UNL     1      37.990   2.223  12.635  0.00  0.00    +0.000 N 
ATOM     19  C   UNL     1      37.564   1.183  11.748  0.00  0.00    +0.000 C 
ATOM     20  C   UNL     1      38.679   0.809  10.813  0.00  0.00    +0.000 C 
ATOM     21  N   UNL     1      39.946   0.690  11.441  0.00  0.00    +0.000 NA
ATOM     22  C   UNL     1      39.944   0.877  12.850  0.00  0.00    +0.000 C 
ATOM     23  C   UNL     1      39.342   2.251  13.189  0.00  0.00    +0.000 C 
BRANCH  21  24
ATOM     24  C   UNL     1      40.689  -0.420  11.031  0.00  0.00    +0.000 C 
BRANCH  24  25
ATOM     25  C   UNL     1      39.910  -1.697  11.048  0.00  0.00    +0.000 C 
BRANCH  25  26
ATOM     26  O   UNL     1      40.427  -2.561  12.026  0.00  0.00    +0.000 OA
BRANCH  26  27
ATOM     27  C   UNL     1      39.794  -2.732  13.246  0.00  0.00    +0.000 A 
ATOM     28  C   UNL     1      40.497  -2.675  14.434  0.00  0.00    +0.000 A 
ATOM     29  C   UNL     1      39.850  -2.847  15.640  0.00  0.00    +0.000 A 
ATOM     30  C   UNL     1      38.503  -3.078  15.713  0.00  0.00    +0.000 A 
ATOM     31  C   UNL     1      37.786  -3.137  14.536  0.00  0.00    +0.000 A 
ATOM     32  C   UNL     1      38.437  -2.964  13.335  0.00  0.00    +0.000 A 
ENDBRANCH  26  27
ENDBRANCH  25  26
ENDBRANCH  24  25
ENDBRANCH  21  24
ENDBRANCH   4  18
BRANCH   1  34
ATOM     33  N   UNL     1      33.544   7.035  14.247  0.00  0.00    +0.000 NA
ATOM     34  C   UNL     1      34.322   6.209  13.986  0.00  0.00    +0.000 C 
ENDBRANCH   1  34
TORSDOF 6
ENDMDL
MODEL 4
REMARK VINA RESULT:      -7.7     26.674     30.507
REMARK  Name = 
REMARK  6 active torsions:
REMARK  status: ('A' for Active; 'I' for Inactive)
REMARK    1  A    between atoms: C_2  and  C_3
REMARK    2  A    between atoms: C_6  and  N_7
REMARK    3  A    between atoms: N_10  and  C_11
REMARK    4  A    between atoms: C_11  and  C_12
REMARK    5  A    between atoms: C_12  and  O_13
REMARK    6  A    between atoms: O_13  and  C_14
REMARK                            x       y       z     vdW  Elec       q    Type
REMARK                         _______ _______ _______ _____ _____    ______ ____
ROOT
ATOM      1  C   UNL     1      24.357  19.763  35.908  0.00  0.00    +0.000 A 
ATOM      2  C   UNL     1      24.553  19.872  37.260  0.00  0.00    +0.000 A 
ATOM      3  C   UNL     1      25.025  18.751  37.907  0.00  0.00    +0.000 A 
ATOM      4  C   UNL     1      25.282  17.587  37.211  0.00  0.00    +0.000 A 
ATOM      5  N   UNL     1      25.091  17.476  35.888  0.00  0.00    +0.000 N 
ATOM      6  C   UNL     1      24.623  18.583  35.236  0.00  0.00    +0.000 A 
ATOM      7  N   UNL     1      24.516  18.227  33.950  0.00  0.00    +0.000 NA
ATOM      8  C   UNL     1      24.889  16.966  33.754  0.00  0.00    +0.000 A 
ATOM      9  C   UNL     1      24.960  16.147  32.633  0.00  0.00    +0.000 A 
ATOM     10  C   UNL     1      25.404  14.830  32.733  0.00  0.00    +0.000 A 
ATOM     11  C   UNL     1      25.773  14.349  33.978  0.00  0.00    +0.000 A 
ATOM     12  C   UNL     1      25.695  15.176  35.074  0.00  0.00    +0.000 A 
ATOM     13  C   UNL     1      25.255  16.481  34.979  0.00  0.00    +0.000 A 
ATOM     14  C   UNL     1      25.238  18.872  39.369  0.00  0.00    +0.000 C 
ATOM     15  C   UNL     1      26.048  20.116  39.613  0.00  0.00    +0.000 C 
ATOM     16  C   UNL     1      25.591  21.321  38.866  0.00  0.00    +0.000 C 
ATOM     17  C   UNL     1      24.306  21.097  38.069  0.00  0.00    +0.000 C 
ENDROOT
BRANCH   4  18
ATOM     18  N   UNL     1      25.781  16.440  37.914  0.00  0.00    +0.000 N 
ATOM     19  C   UNL     1      27.196  16.235  37.968  0.00  0.00    +0.000 C 
ATOM     20  C   UNL     1      27.590  15.685  39.310  0.00  0.00    +0.000 C 
ATOM     21  N   UNL     1      26.736  14.658  39.788  0.00  0.00    +0.000 NA
ATOM     22  C   UNL     1      25.695  14.273  38.900  0.00  0.00    +0.000 C 
ATOM     23  C   UNL     1      24.846  15.501  38.532  0.00  0.00    +0.000 C 
BRANCH  21  24
ATOM     24  C   UNL     1      27.406  13.573  40.360  0.00  0.00    +0.000 C 
BRANCH  24  25
ATOM     25  C   UNL     1      26.501  12.636  41.096  0.00  0.00    +0.000 C 
BRANCH  25  26
ATOM     26  O   UNL     1      26.532  11.368  40.496  0.00  0.00    +0.000 OA
BRANCH  26  27
ATOM     27  C   UNL     1      27.351  10.361  40.978  0.00  0.00    +0.000 A 
ATOM     28  C   UNL     1      26.918   9.489  41.958  0.00  0.00    +0.000 A 
ATOM     29  C   UNL     1      27.747   8.492  42.426  0.00  0.00    +0.000 A 
ATOM     30  C   UNL     1      29.019   8.324  41.949  0.00  0.00    +0.000 A 
ATOM     31  C   UNL     1      29.468   9.184  40.969  0.00  0.00    +0.000 A 
ATOM     32  C   UNL     1      28.635  10.178  40.506  0.00  0.00    +0.000 A 
ENDBRANCH  26  27
ENDBRANCH  25  26
ENDBRANCH  24  25
ENDBRANCH  21  24
ENDBRANCH   4  18
BRANCH   1  34
ATOM     33  N   UNL     1      23.486  21.886  34.659  0.00  0.00    +0.000 NA
ATOM     34  C   UNL     1      23.863  20.937  35.218  0.00  0.00    +0.000 C 
ENDBRANCH   1  34
TORSDOF 6
ENDMDL
MODEL 5
REMARK VINA RESULT:      -7.6      3.378      6.201
REMARK  Name = 
REMARK  6 active torsions:
REMARK  status: ('A' for Active; 'I' for Inactive)
REMARK    1  A    between atoms: C_2  and  C_3
REMARK    2  A    between atoms: C_6  and  N_7
REMARK    3  A    between atoms: N_10  and  C_11
REMARK    4  A    between atoms: C_11  and  C_12
REMARK    5  A    between atoms: C_12  and  O_13
REMARK    6  A    between atoms: O_13  and  C_14
REMARK                            x       y       z     vdW  Elec       q    Type
REMARK                         _______ _______ _______ _____ _____    ______ ____
ROOT
ATOM      1  C   UNL     1      40.729  -1.589  10.416  0.00  0.00    +0.000 A 
ATOM      2  C   UNL     1      40.158  -0.562   9.710  0.00  0.00    +0.000 A 
ATOM      3  C   UNL     1      39.284   0.249  10.400  0.00  0.00    +0.000 A 
ATOM      4  C   UNL     1      39.010   0.022  11.735  0.00  0.00    +0.000 A 
ATOM      5  N   UNL     1      39.567  -0.981  12.428  0.00  0.00    +0.000 N 
ATOM      6  C   UNL     1      40.437  -1.792  11.753  0.00  0.00    +0.000 A 
ATOM      7  N   UNL     1      40.850  -2.701  12.644  0.00  0.00    +0.000 NA
ATOM      8  C   UNL     1      40.295  -2.511  13.838  0.00  0.00    +0.000 A 
ATOM      9  C   UNL     1      40.395  -3.164  15.060  0.00  0.00    +0.000 A 
ATOM     10  C   UNL     1      39.675  -2.726  16.170  0.00  0.00    +0.000 A 
ATOM     11  C   UNL     1      38.852  -1.621  16.030  0.00  0.00    +0.000 A 
ATOM     12  C   UNL     1      38.767  -0.989  14.811  0.00  0.00    +0.000 A 
ATOM     13  C   UNL     1      39.479  -1.421  13.709  0.00  0.00    +0.000 A 
ATOM     14  C   UNL     1      38.668   1.359   9.635  0.00  0.00    +0.000 C 
ATOM     15  C   UNL     1      39.773   2.098   8.930  0.00  0.00    +0.000 C 
ATOM     16  C   UNL     1      40.766   1.230   8.236  0.00  0.00    +0.000 C 
ATOM     17  C   UNL     1      40.415  -0.257   8.276  0.00  0.00    +0.000 C 
ENDROOT
BRANCH   4  18
ATOM     18  N   UNL     1      38.101   0.891  12.426  0.00  0.00    +0.000 N 
ATOM     19  C   UNL     1      36.702   0.594  12.375  0.00  0.00    +0.000 C 
ATOM     20  C   UNL     1      36.057   0.905  13.696  0.00  0.00    +0.000 C 
ATOM     21  N   UNL     1      36.470   2.137  14.267  0.00  0.00    +0.000 NA
ATOM     22  C   UNL     1      37.369   2.901  13.472  0.00  0.00    +0.000 C 
ATOM     23  C   UNL     1      38.612   2.059  13.140  0.00  0.00    +0.000 C 
BRANCH  21  24
ATOM     24  C   UNL     1      35.432   2.896  14.813  0.00  0.00    +0.000 C 
BRANCH  24  25
ATOM     25  C   UNL     1      35.375   2.839  16.307  0.00  0.00    +0.000 C 
BRANCH  25  26
ATOM     26  O   UNL     1      34.562   1.770  16.715  0.00  0.00    +0.000 OA
BRANCH  26  27
ATOM     27  C   UNL     1      35.102   0.633  17.292  0.00  0.00    +0.000 A 
ATOM     28  C   UNL     1      34.770  -0.629  16.838  0.00  0.00    +0.000 A 
ATOM     29  C   UNL     1      35.317  -1.751  17.424  0.00  0.00    +0.000 A 
ATOM     30  C   UNL     1      36.199  -1.666  18.468  0.00  0.00    +0.000 A 
ATOM     31  C   UNL     1      36.542  -0.414  18.933  0.00  0.00    +0.000 A 
ATOM     32  C   UNL     1      35.993   0.702  18.343  0.00  0.00    +0.000 A 
ENDBRANCH  26  27
ENDBRANCH  25  26
ENDBRANCH  24  25
ENDBRANCH  21  24
ENDBRANCH   4  18
BRANCH   1  34
ATOM     33  N   UNL     1      42.382  -3.152   9.130  0.00  0.00    +0.000 NA
ATOM     34  C   UNL     1      41.652  -2.446   9.700  0.00  0.00    +0.000 C 
ENDBRANCH   1  34
TORSDOF 6
ENDMDL
MODEL 6
REMARK VINA RESULT:      -7.6     26.366     30.213
REMARK  Name = 
REMARK  6 active torsions:
REMARK  status: ('A' for Active; 'I' for Inactive)
REMARK    1  A    between atoms: C_2  and  C_3
REMARK    2  A    between atoms: C_6  and  N_7
REMARK    3  A    between atoms: N_10  and  C_11
REMARK    4  A    between atoms: C_11  and  C_12
REMARK    5  A    between atoms: C_12  and  O_13
REMARK    6  A    between atoms: O_13  and  C_14
REMARK                            x       y       z     vdW  Elec       q    Type
REMARK                         _______ _______ _______ _____ _____    ______ ____
ROOT
ATOM      1  C   UNL     1      23.937  20.028  33.929  0.00  0.00    +0.000 A 
ATOM      2  C   UNL     1      23.969  20.636  35.157  0.00  0.00    +0.000 A 
ATOM      3  C   UNL     1      24.432  19.877  36.209  0.00  0.00    +0.000 A 
ATOM      4  C   UNL     1      24.839  18.571  36.016  0.00  0.00    +0.000 A 
ATOM      5  N   UNL     1      24.808  17.974  34.816  0.00  0.00    +0.000 N 
ATOM      6  C   UNL     1      24.351  18.718  33.765  0.00  0.00    +0.000 A 
ATOM      7  N   UNL     1      24.415  17.914  32.697  0.00  0.00    +0.000 NA
ATOM      8  C   UNL     1      24.885  16.710  33.012  0.00  0.00    +0.000 A 
ATOM      9  C   UNL     1      25.135  15.554  32.282  0.00  0.00    +0.000 A 
ATOM     10  C   UNL     1      25.645  14.413  32.898  0.00  0.00    +0.000 A 
ATOM     11  C   UNL     1      25.897  14.452  34.259  0.00  0.00    +0.000 A 
ATOM     12  C   UNL     1      25.643  15.606  34.963  0.00  0.00    +0.000 A 
ATOM     13  C   UNL     1      25.137  16.739  34.356  0.00  0.00    +0.000 A 
ATOM     14  C   UNL     1      24.468  20.537  37.536  0.00  0.00    +0.000 C 
ATOM     15  C   UNL     1      25.166  21.860  37.371  0.00  0.00    +0.000 C 
ATOM     16  C   UNL     1      24.725  22.662  36.197  0.00  0.00    +0.000 C 
ATOM     17  C   UNL     1      23.556  22.039  35.432  0.00  0.00    +0.000 C 
ENDROOT
BRANCH   4  18
ATOM     18  N   UNL     1      25.323  17.811  37.132  0.00  0.00    +0.000 N 
ATOM     19  C   UNL     1      24.374  17.122  37.952  0.00  0.00    +0.000 C 
ATOM     20  C   UNL     1      24.933  15.799  38.393  0.00  0.00    +0.000 C 
ATOM     21  N   UNL     1      26.285  15.854  38.819  0.00  0.00    +0.000 NA
ATOM     22  C   UNL     1      26.867  17.152  38.822  0.00  0.00    +0.000 C 
ATOM     23  C   UNL     1      26.756  17.773  37.420  0.00  0.00    +0.000 C 
BRANCH  21  24
ATOM     24  C   UNL     1      26.554  15.125  39.981  0.00  0.00    +0.000 C 
BRANCH  24  25
ATOM     25  C   UNL     1      26.162  13.685  39.883  0.00  0.00    +0.000 C 
BRANCH  25  26
ATOM     26  O   UNL     1      26.621  12.986  41.010  0.00  0.00    +0.000 OA
BRANCH  26  27
ATOM     27  C   UNL     1      27.453  11.885  40.887  0.00  0.00    +0.000 A 
ATOM     28  C   UNL     1      28.796  12.028  40.598  0.00  0.00    +0.000 A 
ATOM     29  C   UNL     1      29.609  10.920  40.480  0.00  0.00    +0.000 A 
ATOM     30  C   UNL     1      29.129   9.648  40.641  0.00  0.00    +0.000 A 
ATOM     31  C   UNL     1      27.790   9.488  40.932  0.00  0.00    +0.000 A 
ATOM     32  C   UNL     1      26.984  10.597  41.049  0.00  0.00    +0.000 A 
ENDBRANCH  26  27
ENDBRANCH  25  26
ENDBRANCH  24  25
ENDBRANCH  21  24
ENDBRANCH   4  18
BRANCH   1  34
ATOM     33  N   UNL     1      23.055  21.438  31.914  0.00  0.00    +0.000 NA
ATOM     34  C   UNL     1      23.455  20.819  32.816  0.00  0.00    +0.000 C 
ENDBRANCH   1  34
TORSDOF 6
ENDMDL
MODEL 7
REMARK VINA RESULT:      -7.6     26.587     30.259
REMARK  Name = 
REMARK  6 active torsions:
REMARK  status: ('A' for Active; 'I' for Inactive)
REMARK    1  A    between atoms: C_2  and  C_3
REMARK    2  A    between atoms: C_6  and  N_7
REMARK    3  A    between atoms: N_10  and  C_11
REMARK    4  A    between atoms: C_11  and  C_12
REMARK    5  A    between atoms: C_12  and  O_13
REMARK    6  A    between atoms: O_13  and  C_14
REMARK                            x       y       z     vdW  Elec       q    Type
REMARK                         _______ _______ _______ _____ _____    ______ ____
ROOT
ATOM      1  C   UNL     1      24.653  18.049  33.554  0.00  0.00    +0.000 A 
ATOM      2  C   UNL     1      25.186  16.787  33.536  0.00  0.00    +0.000 A 
ATOM      3  C   UNL     1      25.477  16.222  34.759  0.00  0.00    +0.000 A 
ATOM      4  C   UNL     1      25.235  16.910  35.932  0.00  0.00    +0.000 A 
ATOM      5  N   UNL     1      24.713  18.145  35.953  0.00  0.00    +0.000 N 
ATOM      6  C   UNL     1      24.421  18.714  34.745  0.00  0.00    +0.000 A 
ATOM      7  N   UNL     1      23.922  19.924  35.027  0.00  0.00    +0.000 NA
ATOM      8  C   UNL     1      23.882  20.150  36.336  0.00  0.00    +0.000 A 
ATOM      9  C   UNL     1      23.463  21.221  37.116  0.00  0.00    +0.000 A 
ATOM     10  C   UNL     1      23.541  21.172  38.506  0.00  0.00    +0.000 A 
ATOM     11  C   UNL     1      24.048  20.029  39.100  0.00  0.00    +0.000 A 
ATOM     12  C   UNL     1      24.458  18.980  38.311  0.00  0.00    +0.000 A 
ATOM     13  C   UNL     1      24.383  19.025  36.933  0.00  0.00    +0.000 A 
ATOM     14  C   UNL     1      26.052  14.856  34.737  0.00  0.00    +0.000 C 
ATOM     15  C   UNL     1      25.181  14.006  33.853  0.00  0.00    +0.000 C 
ATOM     16  C   UNL     1      24.801  14.631  32.555  0.00  0.00    +0.000 C 
ATOM     17  C   UNL     1      25.463  15.988  32.311  0.00  0.00    +0.000 C 
ENDROOT
BRANCH   4  18
ATOM     18  N   UNL     1      25.541  16.290  37.189  0.00  0.00    +0.000 N 
ATOM     19  C   UNL     1      24.492  15.618  37.892  0.00  0.00    +0.000 C 
ATOM     20  C   UNL     1      25.024  14.382  38.561  0.00  0.00    +0.000 C 
ATOM     21  N   UNL     1      26.270  14.568  39.215  0.00  0.00    +0.000 NA
ATOM     22  C   UNL     1      26.775  15.897  39.188  0.00  0.00    +0.000 C 
ATOM     23  C   UNL     1      26.896  16.376  37.732  0.00  0.00    +0.000 C 
BRANCH  21  24
ATOM     24  C   UNL     1      26.354  13.970  40.475  0.00  0.00    +0.000 C 
BRANCH  24  25
ATOM     25  C   UNL     1      27.412  12.916  40.564  0.00  0.00    +0.000 C 
BRANCH  25  26
ATOM     26  O   UNL     1      26.822  11.643  40.551  0.00  0.00    +0.000 OA
BRANCH  26  27
ATOM     27  C   UNL     1      27.533  10.514  40.925  0.00  0.00    +0.000 A 
ATOM     28  C   UNL     1      28.851  10.338  40.551  0.00  0.00    +0.000 A 
ATOM     29  C   UNL     1      29.543   9.208  40.933  0.00  0.00    +0.000 A 
ATOM     30  C   UNL     1      28.964   8.224  41.688  0.00  0.00    +0.000 A 
ATOM     31  C   UNL     1      27.649   8.385  42.072  0.00  0.00    +0.000 A 
ATOM     32  C   UNL     1      26.963   9.516  41.688  0.00  0.00    +0.000 A 
ENDBRANCH  26  27
ENDBRANCH  25  26
ENDBRANCH  24  25
ENDBRANCH  21  24
ENDBRANCH   4  18
BRANCH   1  34
ATOM     33  N   UNL     1      24.104  19.120  31.234  0.00  0.00    +0.000 NA
ATOM     34  C   UNL     1      24.341  18.650  32.274  0.00  0.00    +0.000 C 
ENDBRANCH   1  34
TORSDOF 6
ENDMDL
MODEL 8
REMARK VINA RESULT:      -7.6      1.539      2.035
REMARK  Name = 
REMARK  6 active torsions:
REMARK  status: ('A' for Active; 'I' for Inactive)
REMARK    1  A    between atoms: C_2  and  C_3
REMARK    2  A    between atoms: C_6  and  N_7
REMARK    3  A    between atoms: N_10  and  C_11
REMARK    4  A    between atoms: C_11  and  C_12
REMARK    5  A    between atoms: C_12  and  O_13
REMARK    6  A    between atoms: O_13  and  C_14
REMARK                            x       y       z     vdW  Elec       q    Type
REMARK                         _______ _______ _______ _____ _____    ______ ____
ROOT
ATOM      1  C   UNL     1      37.154  -1.559  14.566  0.00  0.00    +0.000 A 
ATOM      2  C   UNL     1      36.626  -0.865  15.623  0.00  0.00    +0.000 A 
ATOM      3  C   UNL     1      36.764   0.505  15.592  0.00  0.00    +0.000 A 
ATOM      4  C   UNL     1      37.405   1.129  14.540  0.00  0.00    +0.000 A 
ATOM      5  N   UNL     1      37.923   0.453  13.504  0.00  0.00    +0.000 N 
ATOM      6  C   UNL     1      37.792  -0.908  13.525  0.00  0.00    +0.000 A 
ATOM      7  N   UNL     1      38.379  -1.345  12.405  0.00  0.00    +0.000 NA
ATOM      8  C   UNL     1      38.871  -0.344  11.681  0.00  0.00    +0.000 A 
ATOM      9  C   UNL     1      39.553  -0.275  10.472  0.00  0.00    +0.000 A 
ATOM     10  C   UNL     1      39.954   0.950   9.943  0.00  0.00    +0.000 A 
ATOM     11  C   UNL     1      39.660   2.104  10.649  0.00  0.00    +0.000 A 
ATOM     12  C   UNL     1      38.985   2.014  11.844  0.00  0.00    +0.000 A 
ATOM     13  C   UNL     1      38.587   0.802  12.372  0.00  0.00    +0.000 A 
ATOM     14  C   UNL     1      36.191   1.254  16.736  0.00  0.00    +0.000 C 
ATOM     15  C   UNL     1      34.777   0.778  16.933  0.00  0.00    +0.000 C 
ATOM     16  C   UNL     1      34.601  -0.701  16.900  0.00  0.00    +0.000 C 
ATOM     17  C   UNL     1      35.916  -1.473  16.782  0.00  0.00    +0.000 C 
ENDROOT
BRANCH   4  18
ATOM     18  N   UNL     1      37.525   2.558  14.534  0.00  0.00    +0.000 N 
ATOM     19  C   UNL     1      36.474   3.329  13.943  0.00  0.00    +0.000 C 
ATOM     20  C   UNL     1      36.249   4.589  14.731  0.00  0.00    +0.000 C 
ATOM     21  N   UNL     1      37.442   5.252  15.117  0.00  0.00    +0.000 NA
ATOM     22  C   UNL     1      38.645   4.658  14.645  0.00  0.00    +0.000 C 
ATOM     23  C   UNL     1      38.714   3.192  15.103  0.00  0.00    +0.000 C 
BRANCH  21  24
ATOM     24  C   UNL     1      37.409   6.639  14.954  0.00  0.00    +0.000 C 
BRANCH  24  25
ATOM     25  C   UNL     1      38.143   7.382  16.025  0.00  0.00    +0.000 C 
BRANCH  25  26
ATOM     26  O   UNL     1      38.050   6.686  17.240  0.00  0.00    +0.000 OA
BRANCH  26  27
ATOM     27  C   UNL     1      38.209   7.331  18.456  0.00  0.00    +0.000 A 
ATOM     28  C   UNL     1      37.364   8.354  18.842  0.00  0.00    +0.000 A 
ATOM     29  C   UNL     1      37.537   8.984  20.056  0.00  0.00    +0.000 A 
ATOM     30  C   UNL     1      38.537   8.630  20.921  0.00  0.00    +0.000 A 
ATOM     31  C   UNL     1      39.388   7.610  20.552  0.00  0.00    +0.000 A 
ATOM     32  C   UNL     1      39.211   6.984  19.338  0.00  0.00    +0.000 A 
ENDBRANCH  26  27
ENDBRANCH  25  26
ENDBRANCH  24  25
ENDBRANCH  21  24
ENDBRANCH   4  18
BRANCH   1  34
ATOM     33  N   UNL     1      36.906  -4.160  14.625  0.00  0.00    +0.000 NA
ATOM     34  C   UNL     1      37.012  -3.001  14.588  0.00  0.00    +0.000 C 
ENDBRANCH   1  34
TORSDOF 6
ENDMDL
MODEL 9
REMARK VINA RESULT:      -7.5      3.116      9.136
REMARK  Name = 
REMARK  6 active torsions:
REMARK  status: ('A' for Active; 'I' for Inactive)
REMARK    1  A    between atoms: C_2  and  C_3
REMARK    2  A    between atoms: C_6  and  N_7
REMARK    3  A    between atoms: N_10  and  C_11
REMARK    4  A    between atoms: C_11  and  C_12
REMARK    5  A    between atoms: C_12  and  O_13
REMARK    6  A    between atoms: O_13  and  C_14
REMARK                            x       y       z     vdW  Elec       q    Type
REMARK                         _______ _______ _______ _____ _____    ______ ____
ROOT
ATOM      1  C   UNL     1      37.931   8.809  18.370  0.00  0.00    +0.000 A 
ATOM      2  C   UNL     1      38.517   7.716  18.953  0.00  0.00    +0.000 A 
ATOM      3  C   UNL     1      38.613   6.581  18.178  0.00  0.00    +0.000 A 
ATOM      4  C   UNL     1      38.137   6.566  16.882  0.00  0.00    +0.000 A 
ATOM      5  N   UNL     1      37.563   7.634  16.309  0.00  0.00    +0.000 N 
ATOM      6  C   UNL     1      37.463   8.765  17.069  0.00  0.00    +0.000 A 
ATOM      7  N   UNL     1      36.864   9.674  16.289  0.00  0.00    +0.000 NA
ATOM      8  C   UNL     1      36.583   9.184  15.086  0.00  0.00    +0.000 A 
ATOM      9  C   UNL     1      35.981   9.710  13.949  0.00  0.00    +0.000 A 
ATOM     10  C   UNL     1      35.818   8.938  12.800  0.00  0.00    +0.000 A 
ATOM     11  C   UNL     1      36.267   7.629  12.814  0.00  0.00    +0.000 A 
ATOM     12  C   UNL     1      36.859   7.127  13.949  0.00  0.00    +0.000 A 
ATOM     13  C   UNL     1      37.022   7.888  15.089  0.00  0.00    +0.000 A 
ATOM     14  C   UNL     1      39.248   5.400  18.810  0.00  0.00    +0.000 C 
ATOM     15  C   UNL     1      40.551   5.849  19.415  0.00  0.00    +0.000 C 
ATOM     16  C   UNL     1      40.477   7.114  20.199  0.00  0.00    +0.000 C 
ATOM     17  C   UNL     1      39.058   7.667  20.339  0.00  0.00    +0.000 C 
ENDROOT
BRANCH   4  18
ATOM     18  N   UNL     1      38.259   5.370  16.099  0.00  0.00    +0.000 N 
ATOM     19  C   UNL     1      37.256   4.359  16.236  0.00  0.00    +0.000 C 
ATOM     20  C   UNL     1      36.976   3.722  14.903  0.00  0.00    +0.000 C 
ATOM     21  N   UNL     1      38.138   3.428  14.146  0.00  0.00    +0.000 NA
ATOM     22  C   UNL     1      39.371   3.719  14.791  0.00  0.00    +0.000 C 
ATOM     23  C   UNL     1      39.403   5.200  15.205  0.00  0.00    +0.000 C 
BRANCH  21  24
ATOM     24  C   UNL     1      38.120   2.175  13.526  0.00  0.00    +0.000 C 
BRANCH  24  25
ATOM     25  C   UNL     1      36.891   1.379  13.830  0.00  0.00    +0.000 C 
BRANCH  25  26
ATOM     26  O   UNL     1      37.231   0.238  14.574  0.00  0.00    +0.000 OA
BRANCH  26  27
ATOM     27  C   UNL     1      36.314  -0.379  15.409  0.00  0.00    +0.000 A 
ATOM     28  C   UNL     1      36.083  -1.739  15.342  0.00  0.00    +0.000 A 
ATOM     29  C   UNL     1      35.167  -2.336  16.181  0.00  0.00    +0.000 A 
ATOM     30  C   UNL     1      34.455  -1.619  17.105  0.00  0.00    +0.000 A 
ATOM     31  C   UNL     1      34.675  -0.260  17.187  0.00  0.00    +0.000 A 
ATOM     32  C   UNL     1      35.591   0.330  16.346  0.00  0.00    +0.000 A 
ENDBRANCH  26  27
ENDBRANCH  25  26
ENDBRANCH  24  25
ENDBRANCH  21  24
ENDBRANCH   4  18
BRANCH   1  34
ATOM     33  N   UNL     1      37.749  10.984  19.807  0.00  0.00    +0.000 NA
ATOM     34  C   UNL     1      37.828  10.008  19.176  0.00  0.00    +0.000 C 
ENDBRANCH   1  34
TORSDOF 6
ENDMDL
MODEL 10
REMARK VINA RESULT:      -7.5      2.611      4.503
REMARK  Name = 
REMARK  6 active torsions:
REMARK  status: ('A' for Active; 'I' for Inactive)
REMARK    1  A    between atoms: C_2  and  C_3
REMARK    2  A    between atoms: C_6  and  N_7
REMARK    3  A    between atoms: N_10  and  C_11
REMARK    4  A    between atoms: C_11  and  C_12
REMARK    5  A    between atoms: C_12  and  O_13
REMARK    6  A    between atoms: O_13  and  C_14
REMARK                            x       y       z     vdW  Elec       q    Type
REMARK                         _______ _______ _______ _____ _____    ______ ____
ROOT
ATOM      1  C   UNL     1      37.362  -2.601  15.685  0.00  0.00    +0.000 A 
ATOM      2  C   UNL     1      36.770  -1.626  16.444  0.00  0.00    +0.000 A 
ATOM      3  C   UNL     1      36.868  -0.335  15.975  0.00  0.00    +0.000 A 
ATOM      4  C   UNL     1      37.534  -0.057  14.797  0.00  0.00    +0.000 A 
ATOM      5  N   UNL     1      38.115  -1.009  14.052  0.00  0.00    +0.000 N 
ATOM      6  C   UNL     1      38.023  -2.295  14.508  0.00  0.00    +0.000 A 
ATOM      7  N   UNL     1      38.670  -3.045  13.608  0.00  0.00    +0.000 NA
ATOM      8  C   UNL     1      39.162  -2.312  12.614  0.00  0.00    +0.000 A 
ATOM      9  C   UNL     1      39.890  -2.608  11.469  0.00  0.00    +0.000 A 
ATOM     10  C   UNL     1      40.276  -1.604  10.584  0.00  0.00    +0.000 A 
ATOM     11  C   UNL     1      39.919  -0.297  10.869  0.00  0.00    +0.000 A 
ATOM     12  C   UNL     1      39.198  -0.025  12.008  0.00  0.00    +0.000 A 
ATOM     13  C   UNL     1      38.814  -1.017  12.888  0.00  0.00    +0.000 A 
ATOM     14  C   UNL     1      36.226   0.718  16.796  0.00  0.00    +0.000 C 
ATOM     15  C   UNL     1      34.820   0.273  17.095  0.00  0.00    +0.000 C 
ATOM     16  C   UNL     1      34.690  -1.144  17.538  0.00  0.00    +0.000 C 
ATOM     17  C   UNL     1      36.031  -1.856  17.715  0.00  0.00    +0.000 C 
ENDROOT
BRANCH   4  18
ATOM     18  N   UNL     1      37.611   1.298  14.332  0.00  0.00    +0.000 N 
ATOM     19  C   UNL     1      36.537   1.808  13.535  0.00  0.00    +0.000 C 
ATOM     20  C   UNL     1      36.275   3.247  13.879  0.00  0.00    +0.000 C 
ATOM     21  N   UNL     1      37.448   4.032  14.020  0.00  0.00    +0.000 NA
ATOM     22  C   UNL     1      38.668   3.352  13.752  0.00  0.00    +0.000 C 
ATOM     23  C   UNL     1      38.780   2.113  14.656  0.00  0.00    +0.000 C 
BRANCH  21  24
ATOM     24  C   UNL     1      37.374   5.292  13.421  0.00  0.00    +0.000 C 
BRANCH  24  25
ATOM     25  C   UNL     1      36.376   5.364  12.309  0.00  0.00    +0.000 C 
BRANCH  25  26
ATOM     26  O   UNL     1      37.038   5.365  11.071  0.00  0.00    +0.000 OA
BRANCH  26  27
ATOM     27  C   UNL     1      36.847   4.349  10.149  0.00  0.00    +0.000 A 
ATOM     28  C   UNL     1      36.072   4.538   9.022  0.00  0.00    +0.000 A 
ATOM     29  C   UNL     1      35.893   3.515   8.115  0.00  0.00    +0.000 A 
ATOM     30  C   UNL     1      36.467   2.284   8.288  0.00  0.00    +0.000 A 
ATOM     31  C   UNL     1      37.246   2.079   9.408  0.00  0.00    +0.000 A 
ATOM     32  C   UNL     1      37.420   3.105  10.310  0.00  0.00    +0.000 A 
ENDBRANCH  26  27
ENDBRANCH  25  26
ENDBRANCH  24  25
ENDBRANCH  21  24
ENDBRANCH   4  18
BRANCH   1  34
ATOM     33  N   UNL     1      37.197  -5.054  16.573  0.00  0.00    +0.000 NA
ATOM     34  C   UNL     1      37.263  -3.963  16.169  0.00  0.00    +0.000 C 
ENDBRANCH   1  34
TORSDOF 6
ENDMDL
