MODEL 1
REMARK VINA RESULT:      -7.7      0.000      0.000
REMARK  Name = 
REMARK  1 active torsions:
REMARK  status: ('A' for Active; 'I' for Inactive)
REMARK    1  A    between atoms: C_2  and  C_3
REMARK                            x       y       z     vdW  Elec       q    Type
REMARK                         _______ _______ _______ _____ _____    ______ ____
ROOT
ATOM      1  C   UNL     1      14.234  11.653  35.676  0.00  0.00    +0.000 C 
ATOM      2  O   UNL     1      15.109  11.877  36.882  0.00  0.00    +0.000 OA
ATOM      3  C   UNL     1      16.111  11.040  37.214  0.00  0.00    +0.000 A 
ATOM      4  C   UNL     1      16.529  10.813  38.540  0.00  0.00    +0.000 A 
ATOM      5  C   UNL     1      17.543   9.960  38.823  0.00  0.00    +0.000 A 
ATOM      6  O   UNL     1      17.963   9.728  40.120  0.00  0.00    +0.000 OA
ATOM      7  C   UNL     1      18.209   9.278  37.820  0.00  0.00    +0.000 A 
ATOM      8  C   UNL     1      17.831   9.471  36.504  0.00  0.00    +0.000 A 
ATOM      9  C   UNL     1      18.484   8.786  35.369  0.00  0.00    +0.000 C 
ATOM     10  C   UNL     1      16.794  10.346  36.266  0.00  0.00    +0.000 A 
ATOM     11  N   UNL     1      16.396  10.547  34.898  0.00  0.00    +0.000 NA
ATOM     12  C   UNL     1      15.339  11.421  34.587  0.00  0.00    +0.000 C 
ATOM     13  C   UNL     1      15.276  11.998  33.415  0.00  0.00    +0.000 C 
ATOM     14  C   UNL     1      16.319  11.783  32.382  0.00  0.00    +0.000 C 
ATOM     15  C   UNL     1      16.288  12.329  31.202  0.00  0.00    +0.000 C 
ATOM     16  C   UNL     1      15.144  13.195  30.919  0.00  0.00    +0.000 C 
ATOM     17  O   UNL     1      15.083  13.739  29.790  0.00  0.00    +0.000 OA
ATOM     18  C   UNL     1      14.098  13.432  31.908  0.00  0.00    +0.000 C 
ATOM     19  C   UNL     1      14.176  12.865  33.068  0.00  0.00    +0.000 C 
ENDROOT
BRANCH   1  21
ATOM     20  C   UNL     1      12.794  13.670  36.077  0.00  0.00    +0.000 C 
ATOM     21  C   UNL     1      14.003  13.239  35.335  0.00  0.00    +0.000 C 
ENDBRANCH   1  21
TORSDOF 1
ENDMDL
MODEL 2
REMARK VINA RESULT:      -7.5     17.436     19.341
REMARK  Name = 
REMARK  1 active torsions:
REMARK  status: ('A' for Active; 'I' for Inactive)
REMARK    1  A    between atoms: C_2  and  C_3
REMARK                            x       y       z     vdW  Elec       q    Type
REMARK                         _______ _______ _______ _____ _____    ______ ____
ROOT
ATOM      1  C   UNL     1      25.714  23.449  25.564  0.00  0.00    +0.000 C 
ATOM      2  O   UNL     1      25.514  24.279  26.805  0.00  0.00    +0.000 OA
ATOM      3  C   UNL     1      26.215  24.070  27.936  0.00  0.00    +0.000 A 
ATOM      4  C   UNL     1      25.709  24.325  29.226  0.00  0.00    +0.000 A 
ATOM      5  C   UNL     1      26.454  24.097  30.334  0.00  0.00    +0.000 A 
ATOM      6  O   UNL     1      25.968  24.344  31.605  0.00  0.00    +0.000 OA
ATOM      7  C   UNL     1      27.743  23.604  30.244  0.00  0.00    +0.000 A 
ATOM      8  C   UNL     1      28.281  23.340  28.997  0.00  0.00    +0.000 A 
ATOM      9  C   UNL     1      29.648  22.813  28.805  0.00  0.00    +0.000 C 
ATOM     10  C   UNL     1      27.485  23.586  27.900  0.00  0.00    +0.000 A 
ATOM     11  N   UNL     1      28.040  23.308  26.602  0.00  0.00    +0.000 NA
ATOM     12  C   UNL     1      27.276  23.529  25.441  0.00  0.00    +0.000 C 
ATOM     13  C   UNL     1      27.861  23.769  24.297  0.00  0.00    +0.000 C 
ATOM     14  C   UNL     1      29.337  23.847  24.176  0.00  0.00    +0.000 C 
ATOM     15  C   UNL     1      29.959  24.073  23.055  0.00  0.00    +0.000 C 
ATOM     16  C   UNL     1      29.115  24.254  21.874  0.00  0.00    +0.000 C 
ATOM     17  O   UNL     1      29.681  24.474  20.776  0.00  0.00    +0.000 OA
ATOM     18  C   UNL     1      27.660  24.185  21.951  0.00  0.00    +0.000 C 
ATOM     19  C   UNL     1      27.092  23.958  23.090  0.00  0.00    +0.000 C 
ENDROOT
BRANCH   1  21
ATOM     20  C   UNL     1      24.607  25.677  25.219  0.00  0.00    +0.000 C 
ATOM     21  C   UNL     1      25.408  24.657  24.499  0.00  0.00    +0.000 C 
ENDBRANCH   1  21
TORSDOF 1
ENDMDL
MODEL 3
REMARK VINA RESULT:      -7.4     17.495     20.432
REMARK  Name = 
REMARK  1 active torsions:
REMARK  status: ('A' for Active; 'I' for Inactive)
REMARK    1  A    between atoms: C_2  and  C_3
REMARK                            x       y       z     vdW  Elec       q    Type
REMARK                         _______ _______ _______ _____ _____    ______ ____
ROOT
ATOM      1  C   UNL     1      27.309  22.424  26.076  0.00  0.00    +0.000 C 
ATOM      2  O   UNL     1      28.477  22.801  25.203  0.00  0.00    +0.000 OA
ATOM      3  C   UNL     1      28.375  23.705  24.210  0.00  0.00    +0.000 A 
ATOM      4  C   UNL     1      29.148  23.661  23.033  0.00  0.00    +0.000 A 
ATOM      5  C   UNL     1      29.009  24.594  22.062  0.00  0.00    +0.000 A 
ATOM      6  O   UNL     1      29.762  24.561  20.902  0.00  0.00    +0.000 OA
ATOM      7  C   UNL     1      28.101  25.630  22.187  0.00  0.00    +0.000 A 
ATOM      8  C   UNL     1      27.321  25.713  23.326  0.00  0.00    +0.000 A 
ATOM      9  C   UNL     1      26.326  26.784  23.545  0.00  0.00    +0.000 C 
ATOM     10  C   UNL     1      27.498  24.741  24.285  0.00  0.00    +0.000 A 
ATOM     11  N   UNL     1      26.685  24.822  25.469  0.00  0.00    +0.000 NA
ATOM     12  C   UNL     1      26.810  23.855  26.484  0.00  0.00    +0.000 C 
ATOM     13  C   UNL     1      26.494  24.143  27.720  0.00  0.00    +0.000 C 
ATOM     14  C   UNL     1      26.024  25.495  28.110  0.00  0.00    +0.000 C 
ATOM     15  C   UNL     1      25.690  25.820  29.325  0.00  0.00    +0.000 C 
ATOM     16  C   UNL     1      25.801  24.763  30.330  0.00  0.00    +0.000 C 
ATOM     17  O   UNL     1      25.487  25.041  31.513  0.00  0.00    +0.000 OA
ATOM     18  C   UNL     1      26.259  23.421  29.986  0.00  0.00    +0.000 C 
ATOM     19  C   UNL     1      26.579  23.150  28.763  0.00  0.00    +0.000 C 
ENDROOT
BRANCH   1  21
ATOM     20  C   UNL     1      29.607  22.071  27.023  0.00  0.00    +0.000 C 
ATOM     21  C   UNL     1      28.187  22.167  27.437  0.00  0.00    +0.000 C 
ENDBRANCH   1  21
TORSDOF 1
ENDMDL
MODEL 4
REMARK VINA RESULT:      -7.4     17.353     19.891
REMARK  Name = 
REMARK  1 active torsions:
REMARK  status: ('A' for Active; 'I' for Inactive)
REMARK    1  A    between atoms: C_2  and  C_3
REMARK                            x       y       z     vdW  Elec       q    Type
REMARK                         _______ _______ _______ _____ _____    ______ ____
ROOT
ATOM      1  C   UNL     1      28.101  23.546  28.650  0.00  0.00    +0.000 C 
ATOM      2  O   UNL     1      27.211  22.901  27.620  0.00  0.00    +0.000 OA
ATOM      3  C   UNL     1      27.458  22.982  26.299  0.00  0.00    +0.000 A 
ATOM      4  C   UNL     1      26.450  22.977  25.315  0.00  0.00    +0.000 A 
ATOM      5  C   UNL     1      26.750  23.061  23.997  0.00  0.00    +0.000 A 
ATOM      6  O   UNL     1      25.768  23.057  23.022  0.00  0.00    +0.000 OA
ATOM      7  C   UNL     1      28.059  23.155  23.563  0.00  0.00    +0.000 A 
ATOM      8  C   UNL     1      29.082  23.163  24.494  0.00  0.00    +0.000 A 
ATOM      9  C   UNL     1      30.509  23.261  24.123  0.00  0.00    +0.000 C 
ATOM     10  C   UNL     1      28.728  23.077  25.823  0.00  0.00    +0.000 A 
ATOM     11  N   UNL     1      29.789  23.089  26.794  0.00  0.00    +0.000 NA
ATOM     12  C   UNL     1      29.495  23.013  28.168  0.00  0.00    +0.000 C 
ATOM     13  C   UNL     1      30.373  22.533  29.010  0.00  0.00    +0.000 C 
ATOM     14  C   UNL     1      31.692  22.026  28.558  0.00  0.00    +0.000 C 
ATOM     15  C   UNL     1      32.597  21.551  29.363  0.00  0.00    +0.000 C 
ATOM     16  C   UNL     1      32.252  21.534  30.785  0.00  0.00    +0.000 C 
ATOM     17  O   UNL     1      33.101  21.082  31.590  0.00  0.00    +0.000 OA
ATOM     18  C   UNL     1      30.966  22.023  31.269  0.00  0.00    +0.000 C 
ATOM     19  C   UNL     1      30.101  22.485  30.426  0.00  0.00    +0.000 C 
ENDROOT
BRANCH   1  21
ATOM     20  C   UNL     1      26.432  22.360  30.103  0.00  0.00    +0.000 C 
ATOM     21  C   UNL     1      27.883  22.403  29.805  0.00  0.00    +0.000 C 
ENDBRANCH   1  21
TORSDOF 1
ENDMDL
MODEL 5
REMARK VINA RESULT:      -7.4      2.902      4.880
REMARK  Name = 
REMARK  1 active torsions:
REMARK  status: ('A' for Active; 'I' for Inactive)
REMARK    1  A    between atoms: C_2  and  C_3
REMARK                            x       y       z     vdW  Elec       q    Type
REMARK                         _______ _______ _______ _____ _____    ______ ____
ROOT
ATOM      1  C   UNL     1      16.401  12.379  36.813  0.00  0.00    +0.000 C 
ATOM      2  O   UNL     1      17.506  11.450  36.383  0.00  0.00    +0.000 OA
ATOM      3  C   UNL     1      18.257  10.762  37.266  0.00  0.00    +0.000 A 
ATOM      4  C   UNL     1      19.600  10.407  37.036  0.00  0.00    +0.000 A 
ATOM      5  C   UNL     1      20.314   9.715  37.957  0.00  0.00    +0.000 A 
ATOM      6  O   UNL     1      21.634   9.360  37.742  0.00  0.00    +0.000 OA
ATOM      7  C   UNL     1      19.751   9.329  39.160  0.00  0.00    +0.000 A 
ATOM      8  C   UNL     1      18.435   9.657  39.428  0.00  0.00    +0.000 A 
ATOM      9  C   UNL     1      17.752   9.287  40.685  0.00  0.00    +0.000 C 
ATOM     10  C   UNL     1      17.750  10.362  38.462  0.00  0.00    +0.000 A 
ATOM     11  N   UNL     1      16.381  10.708  38.739  0.00  0.00    +0.000 NA
ATOM     12  C   UNL     1      15.629  11.435  37.799  0.00  0.00    +0.000 C 
ATOM     13  C   UNL     1      14.325  11.338  37.773  0.00  0.00    +0.000 C 
ATOM     14  C   UNL     1      13.590  10.445  38.702  0.00  0.00    +0.000 C 
ATOM     15  C   UNL     1      12.294  10.328  38.716  0.00  0.00    +0.000 C 
ATOM     16  C   UNL     1      11.561  11.138  37.744  0.00  0.00    +0.000 C 
ATOM     17  O   UNL     1      10.309  11.049  37.729  0.00  0.00    +0.000 OA
ATOM     18  C   UNL     1      12.247  12.028  36.813  0.00  0.00    +0.000 C 
ATOM     19  C   UNL     1      13.537  12.108  36.840  0.00  0.00    +0.000 C 
ENDROOT
BRANCH   1  21
ATOM     20  C   UNL     1      16.280  11.517  34.458  0.00  0.00    +0.000 C 
ATOM     21  C   UNL     1      15.428  12.096  35.524  0.00  0.00    +0.000 C 
ENDBRANCH   1  21
TORSDOF 1
ENDMDL
MODEL 6
REMARK VINA RESULT:      -7.2     17.405     19.383
REMARK  Name = 
REMARK  1 active torsions:
REMARK  status: ('A' for Active; 'I' for Inactive)
REMARK    1  A    between atoms: C_2  and  C_3
REMARK                            x       y       z     vdW  Elec       q    Type
REMARK                         _______ _______ _______ _____ _____    ______ ____
ROOT
ATOM      1  C   UNL     1      30.016  24.009  26.176  0.00  0.00    +0.000 C 
ATOM      2  O   UNL     1      30.634  23.041  27.151  0.00  0.00    +0.000 OA
ATOM      3  C   UNL     1      30.171  22.885  28.406  0.00  0.00    +0.000 A 
ATOM      4  C   UNL     1      30.985  22.528  29.498  0.00  0.00    +0.000 A 
ATOM      5  C   UNL     1      30.472  22.383  30.744  0.00  0.00    +0.000 A 
ATOM      6  O   UNL     1      31.262  22.033  31.824  0.00  0.00    +0.000 OA
ATOM      7  C   UNL     1      29.126  22.579  30.992  0.00  0.00    +0.000 A 
ATOM      8  C   UNL     1      28.289  22.930  29.949  0.00  0.00    +0.000 A 
ATOM      9  C   UNL     1      26.839  23.159  30.121  0.00  0.00    +0.000 C 
ATOM     10  C   UNL     1      28.857  23.067  28.701  0.00  0.00    +0.000 A 
ATOM     11  N   UNL     1      27.989  23.436  27.614  0.00  0.00    +0.000 NA
ATOM     12  C   UNL     1      28.508  23.601  26.317  0.00  0.00    +0.000 C 
ATOM     13  C   UNL     1      27.742  23.439  25.269  0.00  0.00    +0.000 C 
ATOM     14  C   UNL     1      26.316  23.052  25.397  0.00  0.00    +0.000 C 
ATOM     15  C   UNL     1      25.517  22.892  24.383  0.00  0.00    +0.000 C 
ATOM     16  C   UNL     1      26.100  23.116  23.060  0.00  0.00    +0.000 C 
ATOM     17  O   UNL     1      25.359  22.970  22.058  0.00  0.00    +0.000 OA
ATOM     18  C   UNL     1      27.498  23.498  22.892  0.00  0.00    +0.000 C 
ATOM     19  C   UNL     1      28.250  23.644  23.934  0.00  0.00    +0.000 C 
ENDROOT
BRANCH   1  21
ATOM     20  C   UNL     1      31.721  23.322  24.465  0.00  0.00    +0.000 C 
ATOM     21  C   UNL     1      30.301  23.108  24.836  0.00  0.00    +0.000 C 
ENDBRANCH   1  21
TORSDOF 1
ENDMDL
MODEL 7
REMARK VINA RESULT:      -7.1      3.143      5.601
REMARK  Name = 
REMARK  1 active torsions:
REMARK  status: ('A' for Active; 'I' for Inactive)
REMARK    1  A    between atoms: C_2  and  C_3
REMARK                            x       y       z     vdW  Elec       q    Type
REMARK                         _______ _______ _______ _____ _____    ______ ____
ROOT
ATOM      1  C   UNL     1      18.905  10.252  38.759  0.00  0.00    +0.000 C 
ATOM      2  O   UNL     1      19.190   8.776  38.865  0.00  0.00    +0.000 OA
ATOM      3  C   UNL     1      18.647   8.002  39.824  0.00  0.00    +0.000 A 
ATOM      4  C   UNL     1      19.283   6.866  40.362  0.00  0.00    +0.000 A 
ATOM      5  C   UNL     1      18.695   6.119  41.327  0.00  0.00    +0.000 A 
ATOM      6  O   UNL     1      19.310   5.002  41.863  0.00  0.00    +0.000 OA
ATOM      7  C   UNL     1      17.445   6.442  41.823  0.00  0.00    +0.000 A 
ATOM      8  C   UNL     1      16.783   7.548  41.323  0.00  0.00    +0.000 A 
ATOM      9  C   UNL     1      15.447   7.968  41.793  0.00  0.00    +0.000 C 
ATOM     10  C   UNL     1      17.421   8.278  40.344  0.00  0.00    +0.000 A 
ATOM     11  N   UNL     1      16.738   9.432  39.825  0.00  0.00    +0.000 NA
ATOM     12  C   UNL     1      17.338  10.225  38.830  0.00  0.00    +0.000 C 
ATOM     13  C   UNL     1      16.604  10.932  38.011  0.00  0.00    +0.000 C 
ATOM     14  C   UNL     1      15.122  10.909  38.072  0.00  0.00    +0.000 C 
ATOM     15  C   UNL     1      14.356  11.605  37.284  0.00  0.00    +0.000 C 
ATOM     16  C   UNL     1      15.036  12.443  36.296  0.00  0.00    +0.000 C 
ATOM     17  O   UNL     1      14.328  13.127  35.519  0.00  0.00    +0.000 OA
ATOM     18  C   UNL     1      16.491  12.493  36.203  0.00  0.00    +0.000 C 
ATOM     19  C   UNL     1      17.207  11.781  37.011  0.00  0.00    +0.000 C 
ENDROOT
BRANCH   1  21
ATOM     20  C   UNL     1      20.336   9.836  36.738  0.00  0.00    +0.000 C 
ATOM     21  C   UNL     1      18.991  10.326  37.124  0.00  0.00    +0.000 C 
ENDBRANCH   1  21
TORSDOF 1
ENDMDL
MODEL 8
REMARK VINA RESULT:      -6.8     21.047     23.394
REMARK  Name = 
REMARK  1 active torsions:
REMARK  status: ('A' for Active; 'I' for Inactive)
REMARK    1  A    between atoms: C_2  and  C_3
REMARK                            x       y       z     vdW  Elec       q    Type
REMARK                         _______ _______ _______ _____ _____    ______ ____
ROOT
ATOM      1  C   UNL     1      21.104 -10.170  26.010  0.00  0.00    +0.000 C 
ATOM      2  O   UNL     1      22.536 -10.417  26.406  0.00  0.00    +0.000 OA
ATOM      3  C   UNL     1      23.573 -10.070  25.620  0.00  0.00    +0.000 A 
ATOM      4  C   UNL     1      24.797 -10.768  25.593  0.00  0.00    +0.000 A 
ATOM      5  C   UNL     1      25.812 -10.380  24.784  0.00  0.00    +0.000 A 
ATOM      6  O   UNL     1      27.018 -11.056  24.748  0.00  0.00    +0.000 OA
ATOM      7  C   UNL     1      25.687  -9.283  23.951  0.00  0.00    +0.000 A 
ATOM      8  C   UNL     1      24.503  -8.568  23.945  0.00  0.00    +0.000 A 
ATOM      9  C   UNL     1      24.280  -7.385  23.089  0.00  0.00    +0.000 C 
ATOM     10  C   UNL     1      23.500  -9.001  24.784  0.00  0.00    +0.000 A 
ATOM     11  N   UNL     1      22.265  -8.263  24.778  0.00  0.00    +0.000 NA
ATOM     12  C   UNL     1      21.197  -8.658  25.605  0.00  0.00    +0.000 C 
ATOM     13  C   UNL     1      20.303  -7.788  25.997  0.00  0.00    +0.000 C 
ATOM     14  C   UNL     1      20.388  -6.356  25.618  0.00  0.00    +0.000 C 
ATOM     15  C   UNL     1      19.515  -5.461  25.978  0.00  0.00    +0.000 C 
ATOM     16  C   UNL     1      18.404  -5.937  26.802  0.00  0.00    +0.000 C 
ATOM     17  O   UNL     1      17.544  -5.100  27.168  0.00  0.00    +0.000 OA
ATOM     18  C   UNL     1      18.285  -7.336  27.197  0.00  0.00    +0.000 C 
ATOM     19  C   UNL     1      19.181  -8.186  26.812  0.00  0.00    +0.000 C 
ENDROOT
BRANCH   1  21
ATOM     20  C   UNL     1      21.409 -10.676  28.450  0.00  0.00    +0.000 C 
ATOM     21  C   UNL     1      20.550  -9.895  27.528  0.00  0.00    +0.000 C 
ENDBRANCH   1  21
TORSDOF 1
ENDMDL
MODEL 9
REMARK VINA RESULT:      -6.7     20.769     23.176
REMARK  Name = 
REMARK  1 active torsions:
REMARK  status: ('A' for Active; 'I' for Inactive)
REMARK    1  A    between atoms: C_2  and  C_3
REMARK                            x       y       z     vdW  Elec       q    Type
REMARK                         _______ _______ _______ _____ _____    ______ ____
ROOT
ATOM      1  C   UNL     1      21.321  -9.748  25.632  0.00  0.00    +0.000 C 
ATOM      2  O   UNL     1      19.891  -9.714  25.163  0.00  0.00    +0.000 OA
ATOM      3  C   UNL     1      19.028  -8.750  25.541  0.00  0.00    +0.000 A 
ATOM      4  C   UNL     1      17.642  -8.955  25.678  0.00  0.00    +0.000 A 
ATOM      5  C   UNL     1      16.815  -7.953  26.062  0.00  0.00    +0.000 A 
ATOM      6  O   UNL     1      15.451  -8.142  26.199  0.00  0.00    +0.000 OA
ATOM      7  C   UNL     1      17.300  -6.687  26.336  0.00  0.00    +0.000 A 
ATOM      8  C   UNL     1      18.656  -6.441  26.214  0.00  0.00    +0.000 A 
ATOM      9  C   UNL     1      19.263  -5.121  26.486  0.00  0.00    +0.000 C 
ATOM     10  C   UNL     1      19.456  -7.491  25.822  0.00  0.00    +0.000 A 
ATOM     11  N   UNL     1      20.868  -7.240  25.699  0.00  0.00    +0.000 NA
ATOM     12  C   UNL     1      21.741  -8.272  25.311  0.00  0.00    +0.000 C 
ATOM     13  C   UNL     1      22.876  -7.995  24.723  0.00  0.00    +0.000 C 
ATOM     14  C   UNL     1      23.277  -6.601  24.415  0.00  0.00    +0.000 C 
ATOM     15  C   UNL     1      24.401  -6.282  23.842  0.00  0.00    +0.000 C 
ATOM     16  C   UNL     1      25.288  -7.393  23.498  0.00  0.00    +0.000 C 
ATOM     17  O   UNL     1      26.381  -7.123  22.943  0.00  0.00    +0.000 OA
ATOM     18  C   UNL     1      24.930  -8.778  23.783  0.00  0.00    +0.000 C 
ATOM     19  C   UNL     1      23.801  -9.041  24.355  0.00  0.00    +0.000 C 
ENDROOT
BRANCH   1  21
ATOM     20  C   UNL     1      20.955 -11.390  23.767  0.00  0.00    +0.000 C 
ATOM     21  C   UNL     1      21.937 -10.393  24.256  0.00  0.00    +0.000 C 
ENDBRANCH   1  21
TORSDOF 1
ENDMDL
MODEL 10
REMARK VINA RESULT:      -6.7     17.797     19.228
REMARK  Name = 
REMARK  1 active torsions:
REMARK  status: ('A' for Active; 'I' for Inactive)
REMARK    1  A    between atoms: C_2  and  C_3
REMARK                            x       y       z     vdW  Elec       q    Type
REMARK                         _______ _______ _______ _____ _____    ______ ____
ROOT
ATOM      1  C   UNL     1      27.934  22.263  28.120  0.00  0.00    +0.000 C 
ATOM      2  O   UNL     1      28.242  22.996  29.400  0.00  0.00    +0.000 OA
ATOM      3  C   UNL     1      29.359  22.762  30.116  0.00  0.00    +0.000 A 
ATOM      4  C   UNL     1      29.430  22.899  31.516  0.00  0.00    +0.000 A 
ATOM      5  C   UNL     1      30.578  22.651  32.192  0.00  0.00    +0.000 A 
ATOM      6  O   UNL     1      30.660  22.782  33.566  0.00  0.00    +0.000 OA
ATOM      7  C   UNL     1      31.727  22.254  31.533  0.00  0.00    +0.000 A 
ATOM      8  C   UNL     1      31.703  22.107  30.158  0.00  0.00    +0.000 A 
ATOM      9  C   UNL     1      32.882  21.688  29.372  0.00  0.00    +0.000 C 
ATOM     10  C   UNL     1      30.514  22.369  29.515  0.00  0.00    +0.000 A 
ATOM     11  N   UNL     1      30.484  22.213  28.085  0.00  0.00    +0.000 NA
ATOM     12  C   UNL     1      29.297  22.456  27.369  0.00  0.00    +0.000 C 
ATOM     13  C   UNL     1      29.341  22.809  26.110  0.00  0.00    +0.000 C 
ATOM     14  C   UNL     1      30.628  22.995  25.396  0.00  0.00    +0.000 C 
ATOM     15  C   UNL     1      30.715  23.333  24.143  0.00  0.00    +0.000 C 
ATOM     16  C   UNL     1      29.449  23.533  23.437  0.00  0.00    +0.000 C 
ATOM     17  O   UNL     1      29.496  23.861  22.227  0.00  0.00    +0.000 OA
ATOM     18  C   UNL     1      28.164  23.360  24.104  0.00  0.00    +0.000 C 
ATOM     19  C   UNL     1      28.132  23.022  25.352  0.00  0.00    +0.000 C 
ENDROOT
BRANCH   1  21
ATOM     20  C   UNL     1      26.033  23.897  28.260  0.00  0.00    +0.000 C 
ATOM     21  C   UNL     1      27.168  23.513  27.387  0.00  0.00    +0.000 C 
ENDBRANCH   1  21
TORSDOF 1
ENDMDL
