MODEL 1
REMARK VINA RESULT:      -6.7      0.000      0.000
REMARK  Name = 
REMARK  2 active torsions:
REMARK  status: ('A' for Active; 'I' for Inactive)
REMARK    1  A    between atoms: C_2  and  C_3
REMARK    2  A    between atoms: C_8  and  C_9
REMARK                            x       y       z     vdW  Elec       q    Type
REMARK                         _______ _______ _______ _____ _____    ______ ____
ROOT
ATOM      1  C   UNL     1      28.693  22.444  27.326  0.00  0.00    +0.000 A 
ATOM      2  C   UNL     1      30.038  22.352  27.549  0.00  0.00    +0.000 A 
ATOM      3  C   UNL     1      30.911  22.517  26.490  0.00  0.00    +0.000 A 
ATOM      4  C   UNL     1      30.448  22.775  25.219  0.00  0.00    +0.000 A 
ATOM      5  C   UNL     1      29.091  22.866  25.016  0.00  0.00    +0.000 A 
ATOM      6  C   UNL     1      28.348  23.118  23.886  0.00  0.00    +0.000 A 
ATOM      7  C   UNL     1      27.033  23.098  24.285  0.00  0.00    +0.000 A 
ATOM      8  N   UNL     1      26.939  22.851  25.573  0.00  0.00    +0.000 NA
ATOM      9  C   UNL     1      28.192  22.701  26.071  0.00  0.00    +0.000 A 
ENDROOT
BRANCH   6  10
ATOM     10  C   UNL     1      28.828  23.314  22.504  0.00  0.00    +0.000 C 
ATOM     11  C   UNL     1      28.997  24.551  22.035  0.00  0.00    +0.000 C 
ATOM     12  N   UNL     1      29.446  24.905  20.710  0.00  0.00    +0.000 NA
ATOM     13  C   UNL     1      29.562  26.312  20.590  0.00  0.00    +0.000 C 
ATOM     14  S   UNL     1      30.026  27.211  19.309  0.00  0.00    +0.000 S 
ATOM     15  N   UNL     1      29.186  26.850  21.843  0.00  0.00    +0.000 N 
ATOM     16  C   UNL     1      29.146  28.250  22.234  0.00  0.00    +0.000 C 
ATOM     17  C   UNL     1      28.832  25.797  22.756  0.00  0.00    +0.000 C 
ATOM     18  O   UNL     1      28.461  25.948  23.943  0.00  0.00    +0.000 OA
ENDBRANCH   6  10
BRANCH   1  20
ATOM     19  C   UNL     1      27.532  23.609  29.137  0.00  0.00    +0.000 C 
ATOM     20  C   UNL     1      27.732  22.269  28.431  0.00  0.00    +0.000 C 
ENDBRANCH   1  20
TORSDOF 2
ENDMDL
MODEL 2
REMARK VINA RESULT:      -6.0      1.602      2.572
REMARK  Name = 
REMARK  2 active torsions:
REMARK  status: ('A' for Active; 'I' for Inactive)
REMARK    1  A    between atoms: C_2  and  C_3
REMARK    2  A    between atoms: C_8  and  C_9
REMARK                            x       y       z     vdW  Elec       q    Type
REMARK                         _______ _______ _______ _____ _____    ______ ____
ROOT
ATOM      1  C   UNL     1      26.940  23.180  25.703  0.00  0.00    +0.000 A 
ATOM      2  C   UNL     1      25.683  23.136  25.171  0.00  0.00    +0.000 A 
ATOM      3  C   UNL     1      25.517  23.338  23.813  0.00  0.00    +0.000 A 
ATOM      4  C   UNL     1      26.596  23.578  22.992  0.00  0.00    +0.000 A 
ATOM      5  C   UNL     1      27.853  23.617  23.548  0.00  0.00    +0.000 A 
ATOM      6  C   UNL     1      29.094  23.821  22.992  0.00  0.00    +0.000 A 
ATOM      7  C   UNL     1      29.992  23.741  24.029  0.00  0.00    +0.000 A 
ATOM      8  N   UNL     1      29.373  23.504  25.166  0.00  0.00    +0.000 NA
ATOM      9  C   UNL     1      28.042  23.417  24.916  0.00  0.00    +0.000 A 
ENDROOT
BRANCH   6  10
ATOM     10  C   UNL     1      29.425  24.126  21.585  0.00  0.00    +0.000 C 
ATOM     11  C   UNL     1      29.419  25.391  21.167  0.00  0.00    +0.000 C 
ATOM     12  N   UNL     1      29.708  25.846  19.828  0.00  0.00    +0.000 NA
ATOM     13  C   UNL     1      29.662  27.262  19.769  0.00  0.00    +0.000 C 
ATOM     14  S   UNL     1      29.912  28.258  18.500  0.00  0.00    +0.000 S 
ATOM     15  N   UNL     1      29.345  27.704  21.075  0.00  0.00    +0.000 N 
ATOM     16  C   UNL     1      29.190  29.074  21.537  0.00  0.00    +0.000 C 
ATOM     17  C   UNL     1      29.188  26.581  21.961  0.00  0.00    +0.000 C 
ATOM     18  O   UNL     1      28.909  26.643  23.181  0.00  0.00    +0.000 OA
ENDBRANCH   6  10
BRANCH   1  20
ATOM     19  C   UNL     1      26.111  23.774  27.927  0.00  0.00    +0.000 C 
ATOM     20  C   UNL     1      27.154  22.975  27.148  0.00  0.00    +0.000 C 
ENDBRANCH   1  20
TORSDOF 2
ENDMDL
MODEL 3
REMARK VINA RESULT:      -5.9      3.939      6.440
REMARK  Name = 
REMARK  2 active torsions:
REMARK  status: ('A' for Active; 'I' for Inactive)
REMARK    1  A    between atoms: C_2  and  C_3
REMARK    2  A    between atoms: C_8  and  C_9
REMARK                            x       y       z     vdW  Elec       q    Type
REMARK                         _______ _______ _______ _____ _____    ______ ____
ROOT
ATOM      1  C   UNL     1      27.782  23.450  23.357  0.00  0.00    +0.000 A 
ATOM      2  C   UNL     1      26.551  23.327  23.935  0.00  0.00    +0.000 A 
ATOM      3  C   UNL     1      26.459  22.881  25.240  0.00  0.00    +0.000 A 
ATOM      4  C   UNL     1      27.586  22.564  25.965  0.00  0.00    +0.000 A 
ATOM      5  C   UNL     1      28.816  22.696  25.365  0.00  0.00    +0.000 A 
ATOM      6  C   UNL     1      30.091  22.469  25.829  0.00  0.00    +0.000 A 
ATOM      7  C   UNL     1      30.934  22.781  24.790  0.00  0.00    +0.000 A 
ATOM      8  N   UNL     1      30.251  23.177  23.737  0.00  0.00    +0.000 NA
ATOM      9  C   UNL     1      28.931  23.143  24.048  0.00  0.00    +0.000 A 
ENDROOT
BRANCH   6  10
ATOM     10  C   UNL     1      30.503  21.942  27.146  0.00  0.00    +0.000 C 
ATOM     11  C   UNL     1      30.747  22.789  28.146  0.00  0.00    +0.000 C 
ATOM     12  N   UNL     1      31.167  22.431  29.480  0.00  0.00    +0.000 NA
ATOM     13  C   UNL     1      31.273  23.591  30.289  0.00  0.00    +0.000 C 
ATOM     14  S   UNL     1      31.706  23.728  31.857  0.00  0.00    +0.000 S 
ATOM     15  N   UNL     1      30.918  24.684  29.465  0.00  0.00    +0.000 N 
ATOM     16  C   UNL     1      30.861  26.091  29.829  0.00  0.00    +0.000 C 
ATOM     17  C   UNL     1      30.589  24.229  28.140  0.00  0.00    +0.000 C 
ATOM     18  O   UNL     1      30.233  24.954  27.182  0.00  0.00    +0.000 OA
ENDBRANCH   6  10
BRANCH   1  20
ATOM     19  C   UNL     1      27.471  25.376  21.881  0.00  0.00    +0.000 C 
ATOM     20  C   UNL     1      27.918  23.917  21.965  0.00  0.00    +0.000 C 
ENDBRANCH   1  20
TORSDOF 2
ENDMDL
MODEL 4
REMARK VINA RESULT:      -5.9      4.169      6.744
REMARK  Name = 
REMARK  2 active torsions:
REMARK  status: ('A' for Active; 'I' for Inactive)
REMARK    1  A    between atoms: C_2  and  C_3
REMARK    2  A    between atoms: C_8  and  C_9
REMARK                            x       y       z     vdW  Elec       q    Type
REMARK                         _______ _______ _______ _____ _____    ______ ____
ROOT
ATOM      1  C   UNL     1      28.965  22.917  24.815  0.00  0.00    +0.000 A 
ATOM      2  C   UNL     1      30.091  22.373  25.365  0.00  0.00    +0.000 A 
ATOM      3  C   UNL     1      30.110  22.083  26.716  0.00  0.00    +0.000 A 
ATOM      4  C   UNL     1      29.014  22.329  27.513  0.00  0.00    +0.000 A 
ATOM      5  C   UNL     1      27.890  22.875  26.940  0.00  0.00    +0.000 A 
ATOM      6  C   UNL     1      26.666  23.216  27.467  0.00  0.00    +0.000 A 
ATOM      7  C   UNL     1      25.927  23.712  26.420  0.00  0.00    +0.000 A 
ATOM      8  N   UNL     1      26.625  23.691  25.305  0.00  0.00    +0.000 NA
ATOM      9  C   UNL     1      27.850  23.177  25.578  0.00  0.00    +0.000 A 
ENDROOT
BRANCH   6  10
ATOM     10  C   UNL     1      26.224  23.136  28.874  0.00  0.00    +0.000 C 
ATOM     11  C   UNL     1      26.437  24.168  29.690  0.00  0.00    +0.000 C 
ATOM     12  N   UNL     1      26.076  24.238  31.086  0.00  0.00    +0.000 NA
ATOM     13  C   UNL     1      26.406  25.510  31.616  0.00  0.00    +0.000 C 
ATOM     14  S   UNL     1      26.204  26.090  33.129  0.00  0.00    +0.000 S 
ATOM     15  N   UNL     1      26.976  26.248  30.553  0.00  0.00    +0.000 N 
ATOM     16  C   UNL     1      27.469  27.616  30.584  0.00  0.00    +0.000 C 
ATOM     17  C   UNL     1      27.012  25.455  29.353  0.00  0.00    +0.000 C 
ATOM     18  O   UNL     1      27.454  25.826  28.241  0.00  0.00    +0.000 OA
ENDBRANCH   6  10
BRANCH   1  20
ATOM     19  C   UNL     1      29.724  24.513  23.124  0.00  0.00    +0.000 C 
ATOM     20  C   UNL     1      28.910  23.245  23.378  0.00  0.00    +0.000 C 
ENDBRANCH   1  20
TORSDOF 2
ENDMDL
MODEL 5
REMARK VINA RESULT:      -5.7      2.417      3.573
REMARK  Name = 
REMARK  2 active torsions:
REMARK  status: ('A' for Active; 'I' for Inactive)
REMARK    1  A    between atoms: C_2  and  C_3
REMARK    2  A    between atoms: C_8  and  C_9
REMARK                            x       y       z     vdW  Elec       q    Type
REMARK                         _______ _______ _______ _____ _____    ______ ____
ROOT
ATOM      1  C   UNL     1      29.286  22.819  30.239  0.00  0.00    +0.000 A 
ATOM      2  C   UNL     1      27.941  22.583  30.196  0.00  0.00    +0.000 A 
ATOM      3  C   UNL     1      27.339  22.321  28.980  0.00  0.00    +0.000 A 
ATOM      4  C   UNL     1      28.072  22.290  27.815  0.00  0.00    +0.000 A 
ATOM      5  C   UNL     1      29.425  22.529  27.879  0.00  0.00    +0.000 A 
ATOM      6  C   UNL     1      30.397  22.555  26.907  0.00  0.00    +0.000 A 
ATOM      7  C   UNL     1      31.575  22.836  27.557  0.00  0.00    +0.000 A 
ATOM      8  N   UNL     1      31.373  22.981  28.849  0.00  0.00    +0.000 NA
ATOM      9  C   UNL     1      30.052  22.796  29.097  0.00  0.00    +0.000 A 
ENDROOT
BRANCH   6  10
ATOM     10  C   UNL     1      30.236  22.381  25.449  0.00  0.00    +0.000 C 
ATOM     11  C   UNL     1      29.937  23.434  24.690  0.00  0.00    +0.000 C 
ATOM     12  N   UNL     1      29.737  23.423  23.261  0.00  0.00    +0.000 NA
ATOM     13  C   UNL     1      29.491  24.737  22.789  0.00  0.00    +0.000 C 
ATOM     14  S   UNL     1      29.205  25.259  21.268  0.00  0.00    +0.000 S 
ATOM     15  N   UNL     1      29.537  25.582  23.922  0.00  0.00    +0.000 N 
ATOM     16  C   UNL     1      29.355  27.024  23.965  0.00  0.00    +0.000 C 
ATOM     17  C   UNL     1      29.808  24.815  25.109  0.00  0.00    +0.000 C 
ATOM     18  O   UNL     1      29.914  25.274  26.271  0.00  0.00    +0.000 OA
ENDBRANCH   6  10
BRANCH   1  20
ATOM     19  C   UNL     1      30.266  21.790  32.230  0.00  0.00    +0.000 C 
ATOM     20  C   UNL     1      29.961  23.107  31.518  0.00  0.00    +0.000 C 
ENDBRANCH   1  20
TORSDOF 2
ENDMDL
MODEL 6
REMARK VINA RESULT:      -5.6      4.282      7.111
REMARK  Name = 
REMARK  2 active torsions:
REMARK  status: ('A' for Active; 'I' for Inactive)
REMARK    1  A    between atoms: C_2  and  C_3
REMARK    2  A    between atoms: C_8  and  C_9
REMARK                            x       y       z     vdW  Elec       q    Type
REMARK                         _______ _______ _______ _____ _____    ______ ____
ROOT
ATOM      1  C   UNL     1      27.659  23.427  24.288  0.00  0.00    +0.000 A 
ATOM      2  C   UNL     1      26.532  24.052  23.837  0.00  0.00    +0.000 A 
ATOM      3  C   UNL     1      25.523  24.356  24.732  0.00  0.00    +0.000 A 
ATOM      4  C   UNL     1      25.638  24.041  26.067  0.00  0.00    +0.000 A 
ATOM      5  C   UNL     1      26.781  23.413  26.502  0.00  0.00    +0.000 A 
ATOM      6  C   UNL     1      27.177  22.992  27.750  0.00  0.00    +0.000 A 
ATOM      7  C   UNL     1      28.424  22.437  27.585  0.00  0.00    +0.000 A 
ATOM      8  N   UNL     1      28.799  22.497  26.325  0.00  0.00    +0.000 NA
ATOM      9  C   UNL     1      27.811  23.097  25.615  0.00  0.00    +0.000 A 
ENDROOT
BRANCH   6  10
ATOM     10  C   UNL     1      26.421  23.053  29.017  0.00  0.00    +0.000 C 
ATOM     11  C   UNL     1      26.534  24.126  29.799  0.00  0.00    +0.000 C 
ATOM     12  N   UNL     1      25.872  24.329  31.066  0.00  0.00    +0.000 NA
ATOM     13  C   UNL     1      26.185  25.611  31.584  0.00  0.00    +0.000 C 
ATOM     14  S   UNL     1      25.697  26.318  32.972  0.00  0.00    +0.000 S 
ATOM     15  N   UNL     1      27.047  26.220  30.642  0.00  0.00    +0.000 N 
ATOM     16  C   UNL     1      27.641  27.546  30.709  0.00  0.00    +0.000 C 
ATOM     17  C   UNL     1      27.284  25.337  29.532  0.00  0.00    +0.000 C 
ATOM     18  O   UNL     1      27.999  25.587  28.535  0.00  0.00    +0.000 OA
ENDBRANCH   6  10
BRANCH   1  20
ATOM     19  C   UNL     1      29.726  24.259  23.279  0.00  0.00    +0.000 C 
ATOM     20  C   UNL     1      28.754  23.083  23.361  0.00  0.00    +0.000 C 
ENDBRANCH   1  20
TORSDOF 2
ENDMDL
MODEL 7
REMARK VINA RESULT:      -5.5     32.332     33.830
REMARK  Name = 
REMARK  2 active torsions:
REMARK  status: ('A' for Active; 'I' for Inactive)
REMARK    1  A    between atoms: C_2  and  C_3
REMARK    2  A    between atoms: C_8  and  C_9
REMARK                            x       y       z     vdW  Elec       q    Type
REMARK                         _______ _______ _______ _____ _____    ______ ____
ROOT
ATOM      1  C   UNL     1      18.345  -7.128  26.749  0.00  0.00    +0.000 A 
ATOM      2  C   UNL     1      18.575  -5.814  26.454  0.00  0.00    +0.000 A 
ATOM      3  C   UNL     1      19.771  -5.455  25.861  0.00  0.00    +0.000 A 
ATOM      4  C   UNL     1      20.729  -6.397  25.561  0.00  0.00    +0.000 A 
ATOM      5  C   UNL     1      20.477  -7.714  25.865  0.00  0.00    +0.000 A 
ATOM      6  C   UNL     1      21.222  -8.856  25.680  0.00  0.00    +0.000 A 
ATOM      7  C   UNL     1      20.460  -9.889  26.169  0.00  0.00    +0.000 A 
ATOM      8  N   UNL     1      19.313  -9.444  26.634  0.00  0.00    +0.000 NA
ATOM      9  C   UNL     1      19.277  -8.099  26.465  0.00  0.00    +0.000 A 
ENDROOT
BRANCH   6  10
ATOM     10  C   UNL     1      22.587  -8.976  25.128  0.00  0.00    +0.000 C 
ATOM     11  C   UNL     1      22.751  -9.210  23.826  0.00  0.00    +0.000 C 
ATOM     12  N   UNL     1      24.013  -9.363  23.142  0.00  0.00    +0.000 NA
ATOM     13  C   UNL     1      23.800  -9.543  21.752  0.00  0.00    +0.000 C 
ATOM     14  S   UNL     1      24.887  -9.758  20.554  0.00  0.00    +0.000 S 
ATOM     15  N   UNL     1      22.400  -9.501  21.556  0.00  0.00    +0.000 N 
ATOM     16  C   UNL     1      21.673  -9.629  20.303  0.00  0.00    +0.000 C 
ATOM     17  C   UNL     1      21.723  -9.299  22.809  0.00  0.00    +0.000 C 
ATOM     18  O   UNL     1      20.483  -9.213  22.968  0.00  0.00    +0.000 OA
ENDBRANCH   6  10
BRANCH   1  20
ATOM     19  C   UNL     1      16.076  -7.923  26.302  0.00  0.00    +0.000 C 
ATOM     20  C   UNL     1      17.083  -7.548  27.387  0.00  0.00    +0.000 C 
ENDBRANCH   1  20
TORSDOF 2
ENDMDL
MODEL 8
REMARK VINA RESULT:      -5.5      2.480      3.850
REMARK  Name = 
REMARK  2 active torsions:
REMARK  status: ('A' for Active; 'I' for Inactive)
REMARK    1  A    between atoms: C_2  and  C_3
REMARK    2  A    between atoms: C_8  and  C_9
REMARK                            x       y       z     vdW  Elec       q    Type
REMARK                         _______ _______ _______ _____ _____    ______ ____
ROOT
ATOM      1  C   UNL     1      30.143  23.915  24.225  0.00  0.00    +0.000 A 
ATOM      2  C   UNL     1      30.961  24.791  24.882  0.00  0.00    +0.000 A 
ATOM      3  C   UNL     1      30.862  26.142  24.608  0.00  0.00    +0.000 A 
ATOM      4  C   UNL     1      29.954  26.618  23.689  0.00  0.00    +0.000 A 
ATOM      5  C   UNL     1      29.139  25.720  23.040  0.00  0.00    +0.000 A 
ATOM      6  C   UNL     1      28.151  25.894  22.099  0.00  0.00    +0.000 A 
ATOM      7  C   UNL     1      27.670  24.638  21.818  0.00  0.00    +0.000 A 
ATOM      8  N   UNL     1      28.302  23.726  22.525  0.00  0.00    +0.000 NA
ATOM      9  C   UNL     1      29.223  24.352  23.301  0.00  0.00    +0.000 A 
ENDROOT
BRANCH   6  10
ATOM     10  C   UNL     1      27.713  27.150  21.457  0.00  0.00    +0.000 C 
ATOM     11  C   UNL     1      28.362  27.601  20.384  0.00  0.00    +0.000 C 
ATOM     12  N   UNL     1      28.063  28.811  19.655  0.00  0.00    +0.000 NA
ATOM     13  C   UNL     1      28.926  28.937  18.537  0.00  0.00    +0.000 C 
ATOM     14  S   UNL     1      28.997  30.113  17.407  0.00  0.00    +0.000 S 
ATOM     15  N   UNL     1      29.771  27.803  18.558  0.00  0.00    +0.000 N 
ATOM     16  C   UNL     1      30.825  27.463  17.615  0.00  0.00    +0.000 C 
ATOM     17  C   UNL     1      29.454  26.960  19.679  0.00  0.00    +0.000 C 
ATOM     18  O   UNL     1      30.021  25.881  19.970  0.00  0.00    +0.000 OA
ENDBRANCH   6  10
BRANCH   1  20
ATOM     19  C   UNL     1      30.207  22.230  25.997  0.00  0.00    +0.000 C 
ATOM     20  C   UNL     1      30.224  22.466  24.488  0.00  0.00    +0.000 C 
ENDBRANCH   1  20
TORSDOF 2
ENDMDL
MODEL 9
REMARK VINA RESULT:      -5.4      2.878      6.648
REMARK  Name = 
REMARK  2 active torsions:
REMARK  status: ('A' for Active; 'I' for Inactive)
REMARK    1  A    between atoms: C_2  and  C_3
REMARK    2  A    between atoms: C_8  and  C_9
REMARK                            x       y       z     vdW  Elec       q    Type
REMARK                         _______ _______ _______ _____ _____    ______ ____
ROOT
ATOM      1  C   UNL     1      28.934  26.759  20.793  0.00  0.00    +0.000 A 
ATOM      2  C   UNL     1      28.252  27.868  21.208  0.00  0.00    +0.000 A 
ATOM      3  C   UNL     1      27.373  27.762  22.269  0.00  0.00    +0.000 A 
ATOM      4  C   UNL     1      27.177  26.562  22.915  0.00  0.00    +0.000 A 
ATOM      5  C   UNL     1      27.874  25.458  22.482  0.00  0.00    +0.000 A 
ATOM      6  C   UNL     1      27.894  24.156  22.925  0.00  0.00    +0.000 A 
ATOM      7  C   UNL     1      28.788  23.495  22.118  0.00  0.00    +0.000 A 
ATOM      8  N   UNL     1      29.302  24.311  21.223  0.00  0.00    +0.000 NA
ATOM      9  C   UNL     1      28.765  25.543  21.412  0.00  0.00    +0.000 A 
ENDROOT
BRANCH   6  10
ATOM     10  C   UNL     1      27.091  23.546  24.004  0.00  0.00    +0.000 C 
ATOM     11  C   UNL     1      27.589  23.479  25.238  0.00  0.00    +0.000 C 
ATOM     12  N   UNL     1      26.935  22.906  26.390  0.00  0.00    +0.000 NA
ATOM     13  C   UNL     1      27.743  23.066  27.544  0.00  0.00    +0.000 C 
ATOM     14  S   UNL     1      27.461  22.597  29.082  0.00  0.00    +0.000 S 
ATOM     15  N   UNL     1      28.910  23.743  27.121  0.00  0.00    +0.000 N 
ATOM     16  C   UNL     1      30.045  24.151  27.934  0.00  0.00    +0.000 C 
ATOM     17  C   UNL     1      28.851  24.013  25.710  0.00  0.00    +0.000 C 
ATOM     18  O   UNL     1      29.729  24.602  25.038  0.00  0.00    +0.000 OA
ENDBRANCH   6  10
BRANCH   1  20
ATOM     19  C   UNL     1      30.092  28.299  19.285  0.00  0.00    +0.000 C 
ATOM     20  C   UNL     1      29.876  26.834  19.661  0.00  0.00    +0.000 C 
ENDBRANCH   1  20
TORSDOF 2
ENDMDL
MODEL 10
REMARK VINA RESULT:      -5.4      3.140      4.734
REMARK  Name = 
REMARK  2 active torsions:
REMARK  status: ('A' for Active; 'I' for Inactive)
REMARK    1  A    between atoms: C_2  and  C_3
REMARK    2  A    between atoms: C_8  and  C_9
REMARK                            x       y       z     vdW  Elec       q    Type
REMARK                         _______ _______ _______ _____ _____    ______ ____
ROOT
ATOM      1  C   UNL     1      24.908  25.642  29.844  0.00  0.00    +0.000 A 
ATOM      2  C   UNL     1      23.956  26.427  29.258  0.00  0.00    +0.000 A 
ATOM      3  C   UNL     1      23.725  26.309  27.901  0.00  0.00    +0.000 A 
ATOM      4  C   UNL     1      24.435  25.413  27.133  0.00  0.00    +0.000 A 
ATOM      5  C   UNL     1      25.388  24.631  27.742  0.00  0.00    +0.000 A 
ATOM      6  C   UNL     1      26.230  23.662  27.249  0.00  0.00    +0.000 A 
ATOM      7  C   UNL     1      26.960  23.212  28.322  0.00  0.00    +0.000 A 
ATOM      8  N   UNL     1      26.613  23.845  29.422  0.00  0.00    +0.000 NA
ATOM      9  C   UNL     1      25.637  24.736  29.111  0.00  0.00    +0.000 A 
ENDROOT
BRANCH   6  10
ATOM     10  C   UNL     1      26.387  23.215  25.850  0.00  0.00    +0.000 C 
ATOM     11  C   UNL     1      27.201  23.883  25.033  0.00  0.00    +0.000 C 
ATOM     12  N   UNL     1      27.450  23.579  23.644  0.00  0.00    +0.000 NA
ATOM     13  C   UNL     1      28.417  24.468  23.112  0.00  0.00    +0.000 C 
ATOM     14  S   UNL     1      29.040  24.546  21.605  0.00  0.00    +0.000 S 
ATOM     15  N   UNL     1      28.781  25.337  24.167  0.00  0.00    +0.000 N 
ATOM     16  C   UNL     1      29.748  26.423  24.131  0.00  0.00    +0.000 C 
ATOM     17  C   UNL     1      28.054  25.007  25.363  0.00  0.00    +0.000 C 
ATOM     18  O   UNL     1      28.156  25.589  26.468  0.00  0.00    +0.000 OA
ENDBRANCH   6  10
BRANCH   1  20
ATOM     19  C   UNL     1      24.011  26.442  31.975  0.00  0.00    +0.000 C 
ATOM     20  C   UNL     1      25.185  25.744  31.289  0.00  0.00    +0.000 C 
ENDBRANCH   1  20
TORSDOF 2
ENDMDL
