MODEL 1
REMARK VINA RESULT:      -7.5      0.000      0.000
REMARK  Name = 
REMARK  7 active torsions:
REMARK  status: ('A' for Active; 'I' for Inactive)
REMARK    1  A    between atoms: C_2  and  C_3
REMARK    2  A    between atoms: C_3  and  C_4
REMARK    3  A    between atoms: C_4  and  C_5
REMARK    4  A    between atoms: C_8  and  N_9
REMARK    5  A    between atoms: C_10  and  C_12
REMARK    6  A    between atoms: C_13  and  N_14
REMARK    7  A    between atoms: C_15  and  C_17
REMARK                            x       y       z     vdW  Elec       q    Type
REMARK                         _______ _______ _______ _____ _____    ______ ____
ROOT
ATOM      1  C   UNL     1      37.359   5.261  15.263  0.00  0.00    +0.000 A 
ATOM      2  C   UNL     1      38.074   6.166  15.972  0.00  0.00    +0.000 A 
ATOM      3  S   UNL     1      37.551   7.679  15.205  0.00  0.00    +0.000 S 
ATOM      4  C   UNL     1      36.494   7.061  14.061  0.00  0.00    +0.000 A 
ATOM      5  C   UNL     1      35.663   7.800  13.021  0.00  0.00    +0.000 C 
ATOM      6  C   UNL     1      36.542   5.723  14.270  0.00  0.00    +0.000 A 
ATOM      7  C   UNL     1      35.679   4.824  13.374  0.00  0.00    +0.000 C 
ENDROOT
BRANCH   1   9
ATOM      8  N   UNL     1      36.074   3.177  16.002  0.00  0.00    +0.000 NA
ATOM      9  C   UNL     1      37.297   3.818  15.637  0.00  0.00    +0.000 C 
ATOM     10  O   UNL     1      38.302   3.124  15.644  0.00  0.00    +0.000 OA
BRANCH   8  14
ATOM     11  C   UNL     1      36.045  -0.879  17.126  0.00  0.00    +0.000 A 
ATOM     12  C   UNL     1      36.122   0.118  18.078  0.00  0.00    +0.000 A 
ATOM     13  C   UNL     1      36.131   1.461  17.690  0.00  0.00    +0.000 A 
ATOM     14  C   UNL     1      36.063   1.777  16.355  0.00  0.00    +0.000 A 
ATOM     15  C   UNL     1      35.984   0.814  15.387  0.00  0.00    +0.000 A 
ATOM     16  C   UNL     1      35.979  -0.508  15.804  0.00  0.00    +0.000 A 
BRANCH  11  17
ATOM     17  C   UNL     1      36.036  -2.309  17.548  0.00  0.00    +0.000 C 
BRANCH  17  18
ATOM     18  C   UNL     1      37.439  -2.766  17.872  0.00  0.00    +0.000 C 
BRANCH  18  20
ATOM     19  C   UNL     1      39.330  -2.875  16.346  0.00  0.00    +0.000 C 
ATOM     20  C   UNL     1      38.010  -3.551  16.725  0.00  0.00    +0.000 C 
ENDBRANCH  18  20
ENDBRANCH  17  18
ENDBRANCH  11  17
ENDBRANCH   8  14
ENDBRANCH   1   9
BRANCH   2  21
ATOM     21  N   UNL     1      39.103   6.177  16.914  0.00  0.00    +0.000 NA
ATOM     22  C   UNL     1      39.494   5.656  18.082  0.00  0.00    +0.000 C 
ATOM     23  O   UNL     1      38.791   4.802  18.663  0.00  0.00    +0.000 OA
BRANCH  22  24
ATOM     24  C   UNL     1      40.771   6.094  18.686  0.00  0.00    +0.000 A 
ATOM     25  C   UNL     1      41.847   6.411  17.898  0.00  0.00    +0.000 A 
ATOM     26  C   UNL     1      43.051   6.823  18.425  0.00  0.00    +0.000 A 
ATOM     27  C   UNL     1      43.188   6.923  19.789  0.00  0.00    +0.000 A 
ATOM     28  C   UNL     1      42.121   6.611  20.597  0.00  0.00    +0.000 A 
ATOM     29  C   UNL     1      40.920   6.199  20.045  0.00  0.00    +0.000 A 
ENDBRANCH  22  24
ENDBRANCH   2  21
TORSDOF 7
ENDMDL
MODEL 2
REMARK VINA RESULT:      -7.5      3.591      6.314
REMARK  Name = 
REMARK  7 active torsions:
REMARK  status: ('A' for Active; 'I' for Inactive)
REMARK    1  A    between atoms: C_2  and  C_3
REMARK    2  A    between atoms: C_3  and  C_4
REMARK    3  A    between atoms: C_4  and  C_5
REMARK    4  A    between atoms: C_8  and  N_9
REMARK    5  A    between atoms: C_10  and  C_12
REMARK    6  A    between atoms: C_13  and  N_14
REMARK    7  A    between atoms: C_15  and  C_17
REMARK                            x       y       z     vdW  Elec       q    Type
REMARK                         _______ _______ _______ _____ _____    ______ ____
ROOT
ATOM      1  C   UNL     1      36.510  -0.276  16.018  0.00  0.00    +0.000 A 
ATOM      2  C   UNL     1      36.460   0.863  16.749  0.00  0.00    +0.000 A 
ATOM      3  S   UNL     1      34.975   0.595  17.684  0.00  0.00    +0.000 S 
ATOM      4  C   UNL     1      34.534  -0.907  17.084  0.00  0.00    +0.000 A 
ATOM      5  C   UNL     1      33.332  -1.769  17.439  0.00  0.00    +0.000 C 
ATOM      6  C   UNL     1      35.511  -1.193  16.188  0.00  0.00    +0.000 A 
ATOM      7  C   UNL     1      35.422  -2.523  15.428  0.00  0.00    +0.000 C 
ENDROOT
BRANCH   1   9
ATOM      8  N   UNL     1      38.965  -0.936  15.747  0.00  0.00    +0.000 NA
ATOM      9  C   UNL     1      37.689  -0.639  15.179  0.00  0.00    +0.000 C 
ATOM     10  O   UNL     1      37.604  -0.697  13.963  0.00  0.00    +0.000 OA
BRANCH   8  14
ATOM     11  C   UNL     1      42.188  -2.044  13.276  0.00  0.00    +0.000 A 
ATOM     12  C   UNL     1      41.373  -3.001  13.847  0.00  0.00    +0.000 A 
ATOM     13  C   UNL     1      40.306  -2.619  14.666  0.00  0.00    +0.000 A 
ATOM     14  C   UNL     1      40.078  -1.284  14.896  0.00  0.00    +0.000 A 
ATOM     15  C   UNL     1      40.866  -0.311  14.345  0.00  0.00    +0.000 A 
ATOM     16  C   UNL     1      41.916  -0.723  13.539  0.00  0.00    +0.000 A 
BRANCH  11  17
ATOM     17  C   UNL     1      43.323  -2.461  12.405  0.00  0.00    +0.000 C 
BRANCH  17  18
ATOM     18  C   UNL     1      42.818  -3.315  11.265  0.00  0.00    +0.000 C 
BRANCH  18  20
ATOM     19  C   UNL     1      40.747  -3.007  10.027  0.00  0.00    +0.000 C 
ATOM     20  C   UNL     1      42.162  -2.456  10.221  0.00  0.00    +0.000 C 
ENDBRANCH  18  20
ENDBRANCH  17  18
ENDBRANCH  11  17
ENDBRANCH   8  14
ENDBRANCH   1   9
BRANCH   2  21
ATOM     21  N   UNL     1      37.112   2.094  16.809  0.00  0.00    +0.000 NA
ATOM     22  C   UNL     1      37.089   3.346  16.336  0.00  0.00    +0.000 C 
ATOM     23  O   UNL     1      36.189   3.710  15.551  0.00  0.00    +0.000 OA
BRANCH  22  24
ATOM     24  C   UNL     1      38.140   4.301  16.749  0.00  0.00    +0.000 A 
ATOM     25  C   UNL     1      38.335   4.600  18.072  0.00  0.00    +0.000 A 
ATOM     26  C   UNL     1      39.302   5.484  18.494  0.00  0.00    +0.000 A 
ATOM     27  C   UNL     1      40.107   6.095  17.561  0.00  0.00    +0.000 A 
ATOM     28  C   UNL     1      39.928   5.809  16.229  0.00  0.00    +0.000 A 
ATOM     29  C   UNL     1      38.949   4.916  15.828  0.00  0.00    +0.000 A 
ENDBRANCH  22  24
ENDBRANCH   2  21
TORSDOF 7
ENDMDL
MODEL 3
REMARK VINA RESULT:      -7.5      3.563      6.306
REMARK  Name = 
REMARK  7 active torsions:
REMARK  status: ('A' for Active; 'I' for Inactive)
REMARK    1  A    between atoms: C_2  and  C_3
REMARK    2  A    between atoms: C_3  and  C_4
REMARK    3  A    between atoms: C_4  and  C_5
REMARK    4  A    between atoms: C_8  and  N_9
REMARK    5  A    between atoms: C_10  and  C_12
REMARK    6  A    between atoms: C_13  and  N_14
REMARK    7  A    between atoms: C_15  and  C_17
REMARK                            x       y       z     vdW  Elec       q    Type
REMARK                         _______ _______ _______ _____ _____    ______ ____
ROOT
ATOM      1  C   UNL     1      36.512  -0.279  16.025  0.00  0.00    +0.000 A 
ATOM      2  C   UNL     1      36.444   0.861  16.754  0.00  0.00    +0.000 A 
ATOM      3  S   UNL     1      34.944   0.586  17.663  0.00  0.00    +0.000 S 
ATOM      4  C   UNL     1      34.521  -0.918  17.057  0.00  0.00    +0.000 A 
ATOM      5  C   UNL     1      33.317  -1.787  17.391  0.00  0.00    +0.000 C 
ATOM      6  C   UNL     1      35.515  -1.201  16.178  0.00  0.00    +0.000 A 
ATOM      7  C   UNL     1      35.446  -2.532  15.418  0.00  0.00    +0.000 C 
ENDROOT
BRANCH   1   9
ATOM      8  N   UNL     1      38.976  -0.928  15.798  0.00  0.00    +0.000 NA
ATOM      9  C   UNL     1      37.708  -0.637  15.208  0.00  0.00    +0.000 C 
ATOM     10  O   UNL     1      37.645  -0.697  13.990  0.00  0.00    +0.000 OA
BRANCH   8  14
ATOM     11  C   UNL     1      42.284  -1.833  13.359  0.00  0.00    +0.000 A 
ATOM     12  C   UNL     1      41.897  -0.525  13.568  0.00  0.00    +0.000 A 
ATOM     13  C   UNL     1      40.796  -0.238  14.381  0.00  0.00    +0.000 A 
ATOM     14  C   UNL     1      40.105  -1.271  14.967  0.00  0.00    +0.000 A 
ATOM     15  C   UNL     1      40.463  -2.578  14.781  0.00  0.00    +0.000 A 
ATOM     16  C   UNL     1      41.558  -2.828  13.970  0.00  0.00    +0.000 A 
BRANCH  11  17
ATOM     17  C   UNL     1      43.459  -2.130  12.491  0.00  0.00    +0.000 C 
BRANCH  17  18
ATOM     18  C   UNL     1      44.695  -1.453  13.039  0.00  0.00    +0.000 C 
BRANCH  18  20
ATOM     19  C   UNL     1      45.138  -1.010  15.389  0.00  0.00    +0.000 C 
ATOM     20  C   UNL     1      45.123  -2.108  14.322  0.00  0.00    +0.000 C 
ENDBRANCH  18  20
ENDBRANCH  17  18
ENDBRANCH  11  17
ENDBRANCH   8  14
ENDBRANCH   1   9
BRANCH   2  21
ATOM     21  N   UNL     1      37.090   2.095  16.824  0.00  0.00    +0.000 NA
ATOM     22  C   UNL     1      37.066   3.347  16.354  0.00  0.00    +0.000 C 
ATOM     23  O   UNL     1      36.172   3.709  15.559  0.00  0.00    +0.000 OA
BRANCH  22  24
ATOM     24  C   UNL     1      38.106   4.307  16.781  0.00  0.00    +0.000 A 
ATOM     25  C   UNL     1      38.288   4.599  18.107  0.00  0.00    +0.000 A 
ATOM     26  C   UNL     1      39.247   5.488  18.542  0.00  0.00    +0.000 A 
ATOM     27  C   UNL     1      40.055   6.109  17.620  0.00  0.00    +0.000 A 
ATOM     28  C   UNL     1      39.889   5.829  16.284  0.00  0.00    +0.000 A 
ATOM     29  C   UNL     1      38.919   4.933  15.870  0.00  0.00    +0.000 A 
ENDBRANCH  22  24
ENDBRANCH   2  21
TORSDOF 7
ENDMDL
MODEL 4
REMARK VINA RESULT:      -7.4      2.627      7.597
REMARK  Name = 
REMARK  7 active torsions:
REMARK  status: ('A' for Active; 'I' for Inactive)
REMARK    1  A    between atoms: C_2  and  C_3
REMARK    2  A    between atoms: C_3  and  C_4
REMARK    3  A    between atoms: C_4  and  C_5
REMARK    4  A    between atoms: C_8  and  N_9
REMARK    5  A    between atoms: C_10  and  C_12
REMARK    6  A    between atoms: C_13  and  N_14
REMARK    7  A    between atoms: C_15  and  C_17
REMARK                            x       y       z     vdW  Elec       q    Type
REMARK                         _______ _______ _______ _____ _____    ______ ____
ROOT
ATOM      1  C   UNL     1      37.926   2.101  13.438  0.00  0.00    +0.000 A 
ATOM      2  C   UNL     1      37.907   0.759  13.619  0.00  0.00    +0.000 A 
ATOM      3  S   UNL     1      37.502   0.207  11.981  0.00  0.00    +0.000 S 
ATOM      4  C   UNL     1      37.381   1.689  11.208  0.00  0.00    +0.000 A 
ATOM      5  C   UNL     1      37.050   1.991   9.754  0.00  0.00    +0.000 C 
ATOM      6  C   UNL     1      37.650   2.585  12.190  0.00  0.00    +0.000 A 
ATOM      7  C   UNL     1      37.622   4.076  11.829  0.00  0.00    +0.000 C 
ENDROOT
BRANCH   1   9
ATOM      8  N   UNL     1      37.502   3.729  15.363  0.00  0.00    +0.000 NA
ATOM      9  C   UNL     1      38.402   3.045  14.490  0.00  0.00    +0.000 C 
ATOM     10  O   UNL     1      39.592   3.268  14.647  0.00  0.00    +0.000 OA
BRANCH   8  14
ATOM     11  C   UNL     1      38.971   6.436  18.232  0.00  0.00    +0.000 A 
ATOM     12  C   UNL     1      38.644   6.862  16.960  0.00  0.00    +0.000 A 
ATOM     13  C   UNL     1      38.157   5.952  16.017  0.00  0.00    +0.000 A 
ATOM     14  C   UNL     1      38.009   4.632  16.369  0.00  0.00    +0.000 A 
ATOM     15  C   UNL     1      38.323   4.178  17.620  0.00  0.00    +0.000 A 
ATOM     16  C   UNL     1      38.804   5.105  18.531  0.00  0.00    +0.000 A 
BRANCH  11  17
ATOM     17  C   UNL     1      39.490   7.414  19.231  0.00  0.00    +0.000 C 
BRANCH  17  18
ATOM     18  C   UNL     1      40.390   6.716  20.224  0.00  0.00    +0.000 C 
BRANCH  18  20
ATOM     19  C   UNL     1      42.696   6.276  20.860  0.00  0.00    +0.000 C 
ATOM     20  C   UNL     1      41.783   6.601  19.674  0.00  0.00    +0.000 C 
ENDBRANCH  18  20
ENDBRANCH  17  18
ENDBRANCH  11  17
ENDBRANCH   8  14
ENDBRANCH   1   9
BRANCH   2  21
ATOM     21  N   UNL     1      37.957  -0.153  14.674  0.00  0.00    +0.000 NA
ATOM     22  C   UNL     1      37.583  -0.347  15.943  0.00  0.00    +0.000 C 
ATOM     23  O   UNL     1      36.905   0.514  16.543  0.00  0.00    +0.000 OA
BRANCH  22  24
ATOM     24  C   UNL     1      37.976  -1.592  16.638  0.00  0.00    +0.000 A 
ATOM     25  C   UNL     1      37.776  -1.735  17.986  0.00  0.00    +0.000 A 
ATOM     26  C   UNL     1      38.129  -2.879  18.667  0.00  0.00    +0.000 A 
ATOM     27  C   UNL     1      38.704  -3.920  17.977  0.00  0.00    +0.000 A 
ATOM     28  C   UNL     1      38.913  -3.797  16.624  0.00  0.00    +0.000 A 
ATOM     29  C   UNL     1      38.550  -2.638  15.961  0.00  0.00    +0.000 A 
ENDBRANCH  22  24
ENDBRANCH   2  21
TORSDOF 7
ENDMDL
MODEL 5
REMARK VINA RESULT:      -7.4      2.988      8.116
REMARK  Name = 
REMARK  7 active torsions:
REMARK  status: ('A' for Active; 'I' for Inactive)
REMARK    1  A    between atoms: C_2  and  C_3
REMARK    2  A    between atoms: C_3  and  C_4
REMARK    3  A    between atoms: C_4  and  C_5
REMARK    4  A    between atoms: C_8  and  N_9
REMARK    5  A    between atoms: C_10  and  C_12
REMARK    6  A    between atoms: C_13  and  N_14
REMARK    7  A    between atoms: C_15  and  C_17
REMARK                            x       y       z     vdW  Elec       q    Type
REMARK                         _______ _______ _______ _____ _____    ______ ____
ROOT
ATOM      1  C   UNL     1      38.099   2.658  12.859  0.00  0.00    +0.000 A 
ATOM      2  C   UNL     1      37.464   1.461  12.840  0.00  0.00    +0.000 A 
ATOM      3  S   UNL     1      37.208   1.247  11.097  0.00  0.00    +0.000 S 
ATOM      4  C   UNL     1      37.902   2.665  10.535  0.00  0.00    +0.000 A 
ATOM      5  C   UNL     1      38.042   3.168   9.105  0.00  0.00    +0.000 C 
ATOM      6  C   UNL     1      38.323   3.285  11.666  0.00  0.00    +0.000 A 
ATOM      7  C   UNL     1      39.017   4.646  11.523  0.00  0.00    +0.000 C 
ENDROOT
BRANCH   1   9
ATOM      8  N   UNL     1      38.110   4.302  14.817  0.00  0.00    +0.000 NA
ATOM      9  C   UNL     1      38.707   3.223  14.098  0.00  0.00    +0.000 C 
ATOM     10  O   UNL     1      39.750   2.775  14.549  0.00  0.00    +0.000 OA
BRANCH   8  14
ATOM     11  C   UNL     1      39.993   5.848  18.249  0.00  0.00    +0.000 A 
ATOM     12  C   UNL     1      40.447   6.173  16.987  0.00  0.00    +0.000 A 
ATOM     13  C   UNL     1      39.812   5.653  15.855  0.00  0.00    +0.000 A 
ATOM     14  C   UNL     1      38.734   4.815  16.013  0.00  0.00    +0.000 A 
ATOM     15  C   UNL     1      38.259   4.474  17.249  0.00  0.00    +0.000 A 
ATOM     16  C   UNL     1      38.911   5.006  18.350  0.00  0.00    +0.000 A 
BRANCH  11  17
ATOM     17  C   UNL     1      40.676   6.407  19.450  0.00  0.00    +0.000 C 
BRANCH  17  18
ATOM     18  C   UNL     1      39.679   7.128  20.328  0.00  0.00    +0.000 C 
BRANCH  18  20
ATOM     19  C   UNL     1      37.883   8.761  20.176  0.00  0.00    +0.000 C 
ATOM     20  C   UNL     1      39.313   8.453  19.723  0.00  0.00    +0.000 C 
ENDBRANCH  18  20
ENDBRANCH  17  18
ENDBRANCH  11  17
ENDBRANCH   8  14
ENDBRANCH   1   9
BRANCH   2  21
ATOM     21  N   UNL     1      36.897   0.566  13.747  0.00  0.00    +0.000 NA
ATOM     22  C   UNL     1      36.912  -0.711  14.147  0.00  0.00    +0.000 C 
ATOM     23  O   UNL     1      37.695  -1.531  13.621  0.00  0.00    +0.000 OA
BRANCH  22  24
ATOM     24  C   UNL     1      35.994  -1.150  15.220  0.00  0.00    +0.000 A 
ATOM     25  C   UNL     1      35.492  -0.252  16.124  0.00  0.00    +0.000 A 
ATOM     26  C   UNL     1      34.635  -0.624  17.136  0.00  0.00    +0.000 A 
ATOM     27  C   UNL     1      34.265  -1.943  17.251  0.00  0.00    +0.000 A 
ATOM     28  C   UNL     1      34.757  -2.861  16.353  0.00  0.00    +0.000 A 
ATOM     29  C   UNL     1      35.617  -2.463  15.344  0.00  0.00    +0.000 A 
ENDBRANCH  22  24
ENDBRANCH   2  21
TORSDOF 7
ENDMDL
MODEL 6
REMARK VINA RESULT:      -7.3     26.718     28.625
REMARK  Name = 
REMARK  7 active torsions:
REMARK  status: ('A' for Active; 'I' for Inactive)
REMARK    1  A    between atoms: C_2  and  C_3
REMARK    2  A    between atoms: C_3  and  C_4
REMARK    3  A    between atoms: C_4  and  C_5
REMARK    4  A    between atoms: C_8  and  N_9
REMARK    5  A    between atoms: C_10  and  C_12
REMARK    6  A    between atoms: C_13  and  N_14
REMARK    7  A    between atoms: C_15  and  C_17
REMARK                            x       y       z     vdW  Elec       q    Type
REMARK                         _______ _______ _______ _____ _____    ______ ____
ROOT
ATOM      1  C   UNL     1      23.835  16.976  39.564  0.00  0.00    +0.000 A 
ATOM      2  C   UNL     1      24.184  17.424  38.334  0.00  0.00    +0.000 A 
ATOM      3  S   UNL     1      23.742  19.138  38.465  0.00  0.00    +0.000 S 
ATOM      4  C   UNL     1      23.151  19.155  40.034  0.00  0.00    +0.000 A 
ATOM      5  C   UNL     1      22.582  20.318  40.835  0.00  0.00    +0.000 C 
ATOM      6  C   UNL     1      23.296  17.871  40.445  0.00  0.00    +0.000 A 
ATOM      7  C   UNL     1      22.841  17.516  41.866  0.00  0.00    +0.000 C 
ENDROOT
BRANCH   1   9
ATOM      8  N   UNL     1      25.368  15.327  40.776  0.00  0.00    +0.000 NA
ATOM      9  C   UNL     1      24.174  15.604  40.043  0.00  0.00    +0.000 C 
ATOM     10  O   UNL     1      23.432  14.659  39.826  0.00  0.00    +0.000 OA
BRANCH   8  14
ATOM     11  C   UNL     1      26.152  11.429  42.157  0.00  0.00    +0.000 A 
ATOM     12  C   UNL     1      25.436  12.322  42.929  0.00  0.00    +0.000 A 
ATOM     13  C   UNL     1      25.182  13.614  42.458  0.00  0.00    +0.000 A 
ATOM     14  C   UNL     1      25.653  13.984  41.221  0.00  0.00    +0.000 A 
ATOM     15  C   UNL     1      26.365  13.123  40.431  0.00  0.00    +0.000 A 
ATOM     16  C   UNL     1      26.600  11.851  40.928  0.00  0.00    +0.000 A 
BRANCH  11  17
ATOM     17  C   UNL     1      26.417  10.054  42.667  0.00  0.00    +0.000 C 
BRANCH  17  18
ATOM     18  C   UNL     1      26.840   9.150  41.532  0.00  0.00    +0.000 C 
BRANCH  18  20
ATOM     19  C   UNL     1      28.102   7.506  42.806  0.00  0.00    +0.000 C 
ATOM     20  C   UNL     1      26.831   7.715  41.978  0.00  0.00    +0.000 C 
ENDBRANCH  18  20
ENDBRANCH  17  18
ENDBRANCH  11  17
ENDBRANCH   8  14
ENDBRANCH   1   9
BRANCH   2  21
ATOM     21  N   UNL     1      24.593  16.898  37.109  0.00  0.00    +0.000 NA
ATOM     22  C   UNL     1      25.649  16.403  36.452  0.00  0.00    +0.000 C 
ATOM     23  O   UNL     1      26.752  16.280  37.026  0.00  0.00    +0.000 OA
BRANCH  22  24
ATOM     24  C   UNL     1      25.504  16.000  35.037  0.00  0.00    +0.000 A 
ATOM     25  C   UNL     1      25.028  16.881  34.102  0.00  0.00    +0.000 A 
ATOM     26  C   UNL     1      24.880  16.541  32.776  0.00  0.00    +0.000 A 
ATOM     27  C   UNL     1      25.220  15.274  32.365  0.00  0.00    +0.000 A 
ATOM     28  C   UNL     1      25.701  14.374  33.287  0.00  0.00    +0.000 A 
ATOM     29  C   UNL     1      25.841  14.739  34.615  0.00  0.00    +0.000 A 
ENDBRANCH  22  24
ENDBRANCH   2  21
TORSDOF 7
ENDMDL
MODEL 7
REMARK VINA RESULT:      -7.1      1.700      7.518
REMARK  Name = 
REMARK  7 active torsions:
REMARK  status: ('A' for Active; 'I' for Inactive)
REMARK    1  A    between atoms: C_2  and  C_3
REMARK    2  A    between atoms: C_3  and  C_4
REMARK    3  A    between atoms: C_4  and  C_5
REMARK    4  A    between atoms: C_8  and  N_9
REMARK    5  A    between atoms: C_10  and  C_12
REMARK    6  A    between atoms: C_13  and  N_14
REMARK    7  A    between atoms: C_15  and  C_17
REMARK                            x       y       z     vdW  Elec       q    Type
REMARK                         _______ _______ _______ _____ _____    ______ ____
ROOT
ATOM      1  C   UNL     1      37.239   5.147  15.357  0.00  0.00    +0.000 A 
ATOM      2  C   UNL     1      36.550   3.983  15.283  0.00  0.00    +0.000 A 
ATOM      3  S   UNL     1      35.348   4.387  14.040  0.00  0.00    +0.000 S 
ATOM      4  C   UNL     1      35.796   5.970  13.721  0.00  0.00    +0.000 A 
ATOM      5  C   UNL     1      35.188   6.963  12.741  0.00  0.00    +0.000 C 
ATOM      6  C   UNL     1      36.848   6.179  14.551  0.00  0.00    +0.000 A 
ATOM      7  C   UNL     1      37.519   7.558  14.527  0.00  0.00    +0.000 C 
ENDROOT
BRANCH   1   9
ATOM      8  N   UNL     1      38.649   6.255  17.181  0.00  0.00    +0.000 NA
ATOM      9  C   UNL     1      38.499   5.283  16.145  0.00  0.00    +0.000 C 
ATOM     10  O   UNL     1      39.457   4.558  15.932  0.00  0.00    +0.000 OA
BRANCH   8  14
ATOM     11  C   UNL     1      42.208   6.506  19.413  0.00  0.00    +0.000 A 
ATOM     12  C   UNL     1      41.008   6.202  20.026  0.00  0.00    +0.000 A 
ATOM     13  C   UNL     1      39.833   6.122  19.273  0.00  0.00    +0.000 A 
ATOM     14  C   UNL     1      39.885   6.349  17.918  0.00  0.00    +0.000 A 
ATOM     15  C   UNL     1      41.057   6.650  17.280  0.00  0.00    +0.000 A 
ATOM     16  C   UNL     1      42.203   6.723  18.056  0.00  0.00    +0.000 A 
BRANCH  11  17
ATOM     17  C   UNL     1      43.455   6.589  20.225  0.00  0.00    +0.000 C 
BRANCH  17  18
ATOM     18  C   UNL     1      43.164   6.238  21.666  0.00  0.00    +0.000 C 
BRANCH  18  20
ATOM     19  C   UNL     1      44.392   6.210  23.765  0.00  0.00    +0.000 C 
ATOM     20  C   UNL     1      44.395   5.685  22.327  0.00  0.00    +0.000 C 
ENDBRANCH  18  20
ENDBRANCH  17  18
ENDBRANCH  11  17
ENDBRANCH   8  14
ENDBRANCH   1   9
BRANCH   2  21
ATOM     21  N   UNL     1      36.465   2.774  15.973  0.00  0.00    +0.000 NA
ATOM     22  C   UNL     1      35.613   1.948  16.590  0.00  0.00    +0.000 C 
ATOM     23  O   UNL     1      34.392   2.207  16.626  0.00  0.00    +0.000 OA
BRANCH  22  24
ATOM     24  C   UNL     1      36.125   0.717  17.231  0.00  0.00    +0.000 A 
ATOM     25  C   UNL     1      35.894   0.472  18.560  0.00  0.00    +0.000 A 
ATOM     26  C   UNL     1      36.355  -0.662  19.191  0.00  0.00    +0.000 A 
ATOM     27  C   UNL     1      37.074  -1.587  18.471  0.00  0.00    +0.000 A 
ATOM     28  C   UNL     1      37.316  -1.360  17.137  0.00  0.00    +0.000 A 
ATOM     29  C   UNL     1      36.843  -0.213  16.524  0.00  0.00    +0.000 A 
ENDBRANCH  22  24
ENDBRANCH   2  21
TORSDOF 7
ENDMDL
MODEL 8
REMARK VINA RESULT:      -7.1      2.470      7.592
REMARK  Name = 
REMARK  7 active torsions:
REMARK  status: ('A' for Active; 'I' for Inactive)
REMARK    1  A    between atoms: C_2  and  C_3
REMARK    2  A    between atoms: C_3  and  C_4
REMARK    3  A    between atoms: C_4  and  C_5
REMARK    4  A    between atoms: C_8  and  N_9
REMARK    5  A    between atoms: C_10  and  C_12
REMARK    6  A    between atoms: C_13  and  N_14
REMARK    7  A    between atoms: C_15  and  C_17
REMARK                            x       y       z     vdW  Elec       q    Type
REMARK                         _______ _______ _______ _____ _____    ______ ____
ROOT
ATOM      1  C   UNL     1      38.011   4.317  14.701  0.00  0.00    +0.000 A 
ATOM      2  C   UNL     1      38.239   3.175  14.008  0.00  0.00    +0.000 A 
ATOM      3  S   UNL     1      37.304   3.489  12.532  0.00  0.00    +0.000 S 
ATOM      4  C   UNL     1      36.699   5.008  12.901  0.00  0.00    +0.000 A 
ATOM      5  C   UNL     1      35.792   5.909  12.076  0.00  0.00    +0.000 C 
ATOM      6  C   UNL     1      37.211   5.266  14.131  0.00  0.00    +0.000 A 
ATOM      7  C   UNL     1      36.850   6.602  14.793  0.00  0.00    +0.000 C 
ENDROOT
BRANCH   1   9
ATOM      8  N   UNL     1      39.604   5.770  16.076  0.00  0.00    +0.000 NA
ATOM      9  C   UNL     1      38.732   4.644  15.965  0.00  0.00    +0.000 C 
ATOM     10  O   UNL     1      38.600   3.953  16.963  0.00  0.00    +0.000 OA
BRANCH   8  14
ATOM     11  C   UNL     1      41.657   6.592  19.657  0.00  0.00    +0.000 A 
ATOM     12  C   UNL     1      42.326   6.562  18.450  0.00  0.00    +0.000 A 
ATOM     13  C   UNL     1      41.631   6.288  17.267  0.00  0.00    +0.000 A 
ATOM     14  C   UNL     1      40.279   6.048  17.321  0.00  0.00    +0.000 A 
ATOM     15  C   UNL     1      39.587   6.071  18.501  0.00  0.00    +0.000 A 
ATOM     16  C   UNL     1      40.305   6.346  19.654  0.00  0.00    +0.000 A 
BRANCH  11  17
ATOM     17  C   UNL     1      42.406   6.886  20.912  0.00  0.00    +0.000 C 
BRANCH  17  18
ATOM     18  C   UNL     1      43.880   6.622  20.714  0.00  0.00    +0.000 C 
BRANCH  18  20
ATOM     19  C   UNL     1      44.145   6.221  23.098  0.00  0.00    +0.000 C 
ATOM     20  C   UNL     1      44.368   5.610  21.711  0.00  0.00    +0.000 C 
ENDBRANCH  18  20
ENDBRANCH  17  18
ENDBRANCH  11  17
ENDBRANCH   8  14
ENDBRANCH   1   9
BRANCH   2  21
ATOM     21  N   UNL     1      38.815   1.923  14.219  0.00  0.00    +0.000 NA
ATOM     22  C   UNL     1      38.687   0.787  14.914  0.00  0.00    +0.000 C 
ATOM     23  O   UNL     1      37.724   0.625  15.694  0.00  0.00    +0.000 OA
BRANCH  22  24
ATOM     24  C   UNL     1      39.695  -0.284  14.755  0.00  0.00    +0.000 A 
ATOM     25  C   UNL     1      39.467  -1.540  15.252  0.00  0.00    +0.000 A 
ATOM     26  C   UNL     1      40.381  -2.562  15.122  0.00  0.00    +0.000 A 
ATOM     27  C   UNL     1      41.569  -2.321  14.472  0.00  0.00    +0.000 A 
ATOM     28  C   UNL     1      41.817  -1.068  13.966  0.00  0.00    +0.000 A 
ATOM     29  C   UNL     1      40.883  -0.057  14.108  0.00  0.00    +0.000 A 
ENDBRANCH  22  24
ENDBRANCH   2  21
TORSDOF 7
ENDMDL
MODEL 9
REMARK VINA RESULT:      -6.9      4.623      9.558
REMARK  Name = 
REMARK  7 active torsions:
REMARK  status: ('A' for Active; 'I' for Inactive)
REMARK    1  A    between atoms: C_2  and  C_3
REMARK    2  A    between atoms: C_3  and  C_4
REMARK    3  A    between atoms: C_4  and  C_5
REMARK    4  A    between atoms: C_8  and  N_9
REMARK    5  A    between atoms: C_10  and  C_12
REMARK    6  A    between atoms: C_13  and  N_14
REMARK    7  A    between atoms: C_15  and  C_17
REMARK                            x       y       z     vdW  Elec       q    Type
REMARK                         _______ _______ _______ _____ _____    ______ ____
ROOT
ATOM      1  C   UNL     1      39.462  -0.869  14.387  0.00  0.00    +0.000 A 
ATOM      2  C   UNL     1      39.071  -2.064  14.890  0.00  0.00    +0.000 A 
ATOM      3  S   UNL     1      40.643  -2.855  15.129  0.00  0.00    +0.000 S 
ATOM      4  C   UNL     1      41.654  -1.638  14.576  0.00  0.00    +0.000 A 
ATOM      5  C   UNL     1      43.174  -1.619  14.483  0.00  0.00    +0.000 C 
ATOM      6  C   UNL     1      40.800  -0.647  14.221  0.00  0.00    +0.000 A 
ATOM      7  C   UNL     1      41.397   0.647  13.654  0.00  0.00    +0.000 C 
ENDROOT
BRANCH   1   9
ATOM      8  N   UNL     1      38.108   1.125  15.241  0.00  0.00    +0.000 NA
ATOM      9  C   UNL     1      38.511   0.261  14.178  0.00  0.00    +0.000 C 
ATOM     10  O   UNL     1      38.038   0.492  13.076  0.00  0.00    +0.000 OA
BRANCH   8  14
ATOM     11  C   UNL     1      35.346   4.222  14.536  0.00  0.00    +0.000 A 
ATOM     12  C   UNL     1      34.918   2.967  14.920  0.00  0.00    +0.000 A 
ATOM     13  C   UNL     1      35.847   1.948  15.152  0.00  0.00    +0.000 A 
ATOM     14  C   UNL     1      37.186   2.208  14.992  0.00  0.00    +0.000 A 
ATOM     15  C   UNL     1      37.643   3.440  14.612  0.00  0.00    +0.000 A 
ATOM     16  C   UNL     1      36.698   4.428  14.390  0.00  0.00    +0.000 A 
BRANCH  11  17
ATOM     17  C   UNL     1      34.350   5.304  14.292  0.00  0.00    +0.000 C 
BRANCH  17  18
ATOM     18  C   UNL     1      35.021   6.496  13.650  0.00  0.00    +0.000 C 
BRANCH  18  20
ATOM     19  C   UNL     1      33.759   7.156  11.678  0.00  0.00    +0.000 C 
ATOM     20  C   UNL     1      33.990   7.472  13.159  0.00  0.00    +0.000 C 
ENDBRANCH  18  20
ENDBRANCH  17  18
ENDBRANCH  11  17
ENDBRANCH   8  14
ENDBRANCH   1   9
BRANCH   2  21
ATOM     21  N   UNL     1      37.890  -2.782  15.080  0.00  0.00    +0.000 NA
ATOM     22  C   UNL     1      36.758  -2.817  15.792  0.00  0.00    +0.000 C 
ATOM     23  O   UNL     1      36.508  -1.924  16.629  0.00  0.00    +0.000 OA
BRANCH  22  24
ATOM     24  C   UNL     1      35.798  -3.922  15.584  0.00  0.00    +0.000 A 
ATOM     25  C   UNL     1      34.666  -3.735  14.836  0.00  0.00    +0.000 A 
ATOM     26  C   UNL     1      33.750  -4.740  14.620  0.00  0.00    +0.000 A 
ATOM     27  C   UNL     1      33.971  -5.980  15.171  0.00  0.00    +0.000 A 
ATOM     28  C   UNL     1      35.102  -6.190  15.924  0.00  0.00    +0.000 A 
ATOM     29  C   UNL     1      36.009  -5.164  16.127  0.00  0.00    +0.000 A 
ENDBRANCH  22  24
ENDBRANCH   2  21
TORSDOF 7
ENDMDL
MODEL 10
REMARK VINA RESULT:      -6.9     26.958     29.225
REMARK  Name = 
REMARK  7 active torsions:
REMARK  status: ('A' for Active; 'I' for Inactive)
REMARK    1  A    between atoms: C_2  and  C_3
REMARK    2  A    between atoms: C_3  and  C_4
REMARK    3  A    between atoms: C_4  and  C_5
REMARK    4  A    between atoms: C_8  and  N_9
REMARK    5  A    between atoms: C_10  and  C_12
REMARK    6  A    between atoms: C_13  and  N_14
REMARK    7  A    between atoms: C_15  and  C_17
REMARK                            x       y       z     vdW  Elec       q    Type
REMARK                         _______ _______ _______ _____ _____    ______ ____
ROOT
ATOM      1  C   UNL     1      24.053  15.061  41.793  0.00  0.00    +0.000 A 
ATOM      2  C   UNL     1      24.661  13.959  42.294  0.00  0.00    +0.000 A 
ATOM      3  S   UNL     1      24.030  13.954  43.953  0.00  0.00    +0.000 S 
ATOM      4  C   UNL     1      23.070  15.327  43.890  0.00  0.00    +0.000 A 
ATOM      5  C   UNL     1      22.210  15.950  44.981  0.00  0.00    +0.000 C 
ATOM      6  C   UNL     1      23.231  15.773  42.620  0.00  0.00    +0.000 A 
ATOM      7  C   UNL     1      22.483  17.047  42.206  0.00  0.00    +0.000 C 
ENDROOT
BRANCH   1   9
ATOM      8  N   UNL     1      25.077  16.332  39.824  0.00  0.00    +0.000 NA
ATOM      9  C   UNL     1      24.110  15.420  40.346  0.00  0.00    +0.000 C 
ATOM     10  O   UNL     1      23.323  14.939  39.546  0.00  0.00    +0.000 OA
BRANCH   8  14
ATOM     11  C   UNL     1      25.081  17.335  35.736  0.00  0.00    +0.000 A 
ATOM     12  C   UNL     1      24.474  18.156  36.665  0.00  0.00    +0.000 A 
ATOM     13  C   UNL     1      24.481  17.811  38.020  0.00  0.00    +0.000 A 
ATOM     14  C   UNL     1      25.095  16.647  38.416  0.00  0.00    +0.000 A 
ATOM     15  C   UNL     1      25.705  15.812  37.521  0.00  0.00    +0.000 A 
ATOM     16  C   UNL     1      25.681  16.183  36.186  0.00  0.00    +0.000 A 
BRANCH  11  17
ATOM     17  C   UNL     1      25.069  17.711  34.294  0.00  0.00    +0.000 C 
BRANCH  17  18
ATOM     18  C   UNL     1      25.771  16.653  33.474  0.00  0.00    +0.000 C 
BRANCH  18  20
ATOM     19  C   UNL     1      25.195  14.493  32.517  0.00  0.00    +0.000 C 
ATOM     20  C   UNL     1      24.796  15.970  32.558  0.00  0.00    +0.000 C 
ENDBRANCH  18  20
ENDBRANCH  17  18
ENDBRANCH  11  17
ENDBRANCH   8  14
ENDBRANCH   1   9
BRANCH   2  21
ATOM     21  N   UNL     1      25.654  13.053  41.919  0.00  0.00    +0.000 NA
ATOM     22  C   UNL     1      25.978  11.755  41.922  0.00  0.00    +0.000 C 
ATOM     23  O   UNL     1      25.185  10.904  42.378  0.00  0.00    +0.000 OA
BRANCH  22  24
ATOM     24  C   UNL     1      27.287  11.329  41.381  0.00  0.00    +0.000 A 
ATOM     25  C   UNL     1      28.308  12.230  41.225  0.00  0.00    +0.000 A 
ATOM     26  C   UNL     1      29.539  11.870  40.724  0.00  0.00    +0.000 A 
ATOM     27  C   UNL     1      29.762  10.562  40.365  0.00  0.00    +0.000 A 
ATOM     28  C   UNL     1      28.751   9.642  40.515  0.00  0.00    +0.000 A 
ATOM     29  C   UNL     1      27.522  10.027  41.020  0.00  0.00    +0.000 A 
ENDBRANCH  22  24
ENDBRANCH   2  21
TORSDOF 7
ENDMDL
