MODEL 1
REMARK VINA RESULT:      -7.3      0.000      0.000
REMARK  Name = 
REMARK  2 active torsions:
REMARK  status: ('A' for Active; 'I' for Inactive)
REMARK    1  A    between atoms: C_2  and  C_3
REMARK    2  A    between atoms: C_13  and  C_14
REMARK                            x       y       z     vdW  Elec       q    Type
REMARK                         _______ _______ _______ _____ _____    ______ ____
ROOT
ATOM      1  C   UNL     1      15.990  11.418  35.602  0.00  0.00    +0.000 C 
ATOM      2  C   UNL     1      15.973  11.088  34.344  0.00  0.00    +0.000 C 
ATOM      3  N   UNL     1      16.759   9.939  33.922  0.00  0.00    +0.000 NA
ATOM      4  O   UNL     1      15.237  11.797  33.425  0.00  0.00    +0.000 OA
ATOM      5  C   UNL     1      14.486  12.903  33.853  0.00  0.00    +0.000 C 
ATOM      6  C   UNL     1      14.464  13.274  35.074  0.00  0.00    +0.000 C 
ATOM      7  C   UNL     1      13.641  14.477  35.514  0.00  0.00    +0.000 C 
ATOM      8  C   UNL     1      12.649  14.890  34.517  0.00  0.00    +0.000 C 
ATOM      9  C   UNL     1      13.390  14.980  33.178  0.00  0.00    +0.000 C 
ATOM     10  C   UNL     1      13.727  13.585  32.729  0.00  0.00    +0.000 C 
ATOM     11  C   UNL     1      15.228  12.584  36.199  0.00  0.00    +0.000 C 
ENDROOT
BRANCH  11  12
ATOM     12  C   UNL     1      14.079  11.835  36.949  0.00  0.00    +0.000 A 
ATOM     13  C   UNL     1      14.283  11.399  38.222  0.00  0.00    +0.000 A 
ATOM     14  C   UNL     1      13.263  10.720  38.922  0.00  0.00    +0.000 A 
ATOM     15  C   UNL     1      12.076  10.515  38.298  0.00  0.00    +0.000 A 
ATOM     16  C   UNL     1      11.845  10.940  37.027  0.00  0.00    +0.000 A 
ATOM     17  C   UNL     1      12.871  11.602  36.374  0.00  0.00    +0.000 A 
ENDBRANCH  11  12
BRANCH   1  19
ATOM     18  N   UNL     1      17.424   9.991  37.279  0.00  0.00    +0.000 NA
ATOM     19  C   UNL     1      16.793  10.627  36.549  0.00  0.00    +0.000 C 
ENDBRANCH   1  19
TORSDOF 2
ENDMDL
MODEL 2
REMARK VINA RESULT:      -6.9     20.253     21.802
REMARK  Name = 
REMARK  2 active torsions:
REMARK  status: ('A' for Active; 'I' for Inactive)
REMARK    1  A    between atoms: C_2  and  C_3
REMARK    2  A    between atoms: C_13  and  C_14
REMARK                            x       y       z     vdW  Elec       q    Type
REMARK                         _______ _______ _______ _____ _____    ______ ____
ROOT
ATOM      1  C   UNL     1      27.974  23.551  22.883  0.00  0.00    +0.000 C 
ATOM      2  C   UNL     1      29.191  23.831  22.520  0.00  0.00    +0.000 C 
ATOM      3  N   UNL     1      29.424  24.235  21.142  0.00  0.00    +0.000 NA
ATOM      4  O   UNL     1      30.240  23.753  23.405  0.00  0.00    +0.000 OA
ATOM      5  C   UNL     1      29.994  23.361  24.730  0.00  0.00    +0.000 C 
ATOM      6  C   UNL     1      28.822  23.074  25.142  0.00  0.00    +0.000 C 
ATOM      7  C   UNL     1      28.579  22.651  26.585  0.00  0.00    +0.000 C 
ATOM      8  C   UNL     1      29.703  22.965  27.472  0.00  0.00    +0.000 C 
ATOM      9  C   UNL     1      30.966  22.444  26.776  0.00  0.00    +0.000 C 
ATOM     10  C   UNL     1      31.246  23.321  25.586  0.00  0.00    +0.000 C 
ATOM     11  C   UNL     1      27.567  23.117  24.276  0.00  0.00    +0.000 C 
ENDROOT
BRANCH  11  12
ATOM     12  C   UNL     1      26.867  24.414  24.799  0.00  0.00    +0.000 A 
ATOM     13  C   UNL     1      25.562  24.362  25.183  0.00  0.00    +0.000 A 
ATOM     14  C   UNL     1      24.906  25.518  25.658  0.00  0.00    +0.000 A 
ATOM     15  C   UNL     1      25.605  26.678  25.723  0.00  0.00    +0.000 A 
ATOM     16  C   UNL     1      26.909  26.758  25.346  0.00  0.00    +0.000 A 
ATOM     17  C   UNL     1      27.517  25.603  24.885  0.00  0.00    +0.000 A 
ENDBRANCH  11  12
BRANCH   1  19
ATOM     18  N   UNL     1      26.017  23.713  21.137  0.00  0.00    +0.000 NA
ATOM     19  C   UNL     1      26.883  23.650  21.900  0.00  0.00    +0.000 C 
ENDBRANCH   1  19
TORSDOF 2
ENDMDL
MODEL 3
REMARK VINA RESULT:      -6.8      2.665      5.521
REMARK  Name = 
REMARK  2 active torsions:
REMARK  status: ('A' for Active; 'I' for Inactive)
REMARK    1  A    between atoms: C_2  and  C_3
REMARK    2  A    between atoms: C_13  and  C_14
REMARK                            x       y       z     vdW  Elec       q    Type
REMARK                         _______ _______ _______ _____ _____    ______ ____
ROOT
ATOM      1  C   UNL     1      14.447  13.029  35.143  0.00  0.00    +0.000 C 
ATOM      2  C   UNL     1      13.999  12.441  36.214  0.00  0.00    +0.000 C 
ATOM      3  N   UNL     1      12.710  12.860  36.741  0.00  0.00    +0.000 NA
ATOM      4  O   UNL     1      14.713  11.447  36.840  0.00  0.00    +0.000 OA
ATOM      5  C   UNL     1      15.955  11.058  36.314  0.00  0.00    +0.000 C 
ATOM      6  C   UNL     1      16.445  11.600  35.268  0.00  0.00    +0.000 C 
ATOM      7  C   UNL     1      17.794  11.160  34.716  0.00  0.00    +0.000 C 
ATOM      8  C   UNL     1      18.247   9.877  35.260  0.00  0.00    +0.000 C 
ATOM      9  C   UNL     1      18.092   9.970  36.782  0.00  0.00    +0.000 C 
ATOM     10  C   UNL     1      16.624   9.953  37.110  0.00  0.00    +0.000 C 
ATOM     11  C   UNL     1      15.766  12.709  34.471  0.00  0.00    +0.000 C 
ENDROOT
BRANCH  11  12
ATOM     12  C   UNL     1      15.275  11.934  33.205  0.00  0.00    +0.000 A 
ATOM     13  C   UNL     1      15.273  12.560  31.997  0.00  0.00    +0.000 A 
ATOM     14  C   UNL     1      14.833  11.884  30.838  0.00  0.00    +0.000 A 
ATOM     15  C   UNL     1      14.416  10.598  30.957  0.00  0.00    +0.000 A 
ATOM     16  C   UNL     1      14.408   9.950  32.153  0.00  0.00    +0.000 A 
ATOM     17  C   UNL     1      14.846  10.647  33.266  0.00  0.00    +0.000 A 
ENDBRANCH  11  12
BRANCH   1  19
ATOM     18  N   UNL     1      13.029  14.932  34.015  0.00  0.00    +0.000 NA
ATOM     19  C   UNL     1      13.645  14.088  34.508  0.00  0.00    +0.000 C 
ENDBRANCH   1  19
TORSDOF 2
ENDMDL
MODEL 4
REMARK VINA RESULT:      -6.8      1.634      2.610
REMARK  Name = 
REMARK  2 active torsions:
REMARK  status: ('A' for Active; 'I' for Inactive)
REMARK    1  A    between atoms: C_2  and  C_3
REMARK    2  A    between atoms: C_13  and  C_14
REMARK                            x       y       z     vdW  Elec       q    Type
REMARK                         _______ _______ _______ _____ _____    ______ ____
ROOT
ATOM      1  C   UNL     1      16.653  11.258  35.141  0.00  0.00    +0.000 C 
ATOM      2  C   UNL     1      16.800  10.117  34.534  0.00  0.00    +0.000 C 
ATOM      3  N   UNL     1      17.550   9.069  35.209  0.00  0.00    +0.000 NA
ATOM      4  O   UNL     1      16.267   9.892  33.288  0.00  0.00    +0.000 OA
ATOM      5  C   UNL     1      15.547  10.917  32.653  0.00  0.00    +0.000 C 
ATOM      6  C   UNL     1      15.371  12.056  33.200  0.00  0.00    +0.000 C 
ATOM      7  C   UNL     1      14.586  13.153  32.492  0.00  0.00    +0.000 C 
ATOM      8  C   UNL     1      13.789  12.654  31.367  0.00  0.00    +0.000 C 
ATOM      9  C   UNL     1      14.727  11.785  30.521  0.00  0.00    +0.000 C 
ATOM     10  C   UNL     1      15.020  10.523  31.286  0.00  0.00    +0.000 C 
ATOM     11  C   UNL     1      15.902  12.446  34.575  0.00  0.00    +0.000 C 
ENDROOT
BRANCH  11  12
ATOM     12  C   UNL     1      14.599  12.413  35.439  0.00  0.00    +0.000 A 
ATOM     13  C   UNL     1      13.756  13.481  35.420  0.00  0.00    +0.000 A 
ATOM     14  C   UNL     1      12.574  13.477  36.191  0.00  0.00    +0.000 A 
ATOM     15  C   UNL     1      12.297  12.386  36.948  0.00  0.00    +0.000 A 
ATOM     16  C   UNL     1      13.122  11.305  36.985  0.00  0.00    +0.000 A 
ATOM     17  C   UNL     1      14.272  11.347  36.215  0.00  0.00    +0.000 A 
ENDBRANCH  11  12
BRANCH   1  19
ATOM     18  N   UNL     1      17.687  11.599  37.533  0.00  0.00    +0.000 NA
ATOM     19  C   UNL     1      17.242  11.450  36.476  0.00  0.00    +0.000 C 
ENDBRANCH   1  19
TORSDOF 2
ENDMDL
MODEL 5
REMARK VINA RESULT:      -6.6     21.584     23.606
REMARK  Name = 
REMARK  2 active torsions:
REMARK  status: ('A' for Active; 'I' for Inactive)
REMARK    1  A    between atoms: C_2  and  C_3
REMARK    2  A    between atoms: C_13  and  C_14
REMARK                            x       y       z     vdW  Elec       q    Type
REMARK                         _______ _______ _______ _____ _____    ______ ____
ROOT
ATOM      1  C   UNL     1      16.881  -9.465  26.177  0.00  0.00    +0.000 C 
ATOM      2  C   UNL     1      17.339 -10.585  25.700  0.00  0.00    +0.000 C 
ATOM      3  N   UNL     1      16.804 -11.067  24.437  0.00  0.00    +0.000 NA
ATOM      4  O   UNL     1      18.305 -11.305  26.362  0.00  0.00    +0.000 OA
ATOM      5  C   UNL     1      18.808 -10.823  27.580  0.00  0.00    +0.000 C 
ATOM      6  C   UNL     1      18.397  -9.731  28.096  0.00  0.00    +0.000 C 
ATOM      7  C   UNL     1      18.958  -9.228  29.419  0.00  0.00    +0.000 C 
ATOM      8  C   UNL     1      20.206  -9.894  29.804  0.00  0.00    +0.000 C 
ATOM      9  C   UNL     1      19.959 -11.400  29.658  0.00  0.00    +0.000 C 
ATOM     10  C   UNL     1      19.866 -11.724  28.191  0.00  0.00    +0.000 C 
ATOM     11  C   UNL     1      17.334  -8.830  27.476  0.00  0.00    +0.000 C 
ENDROOT
BRANCH  11  12
ATOM     12  C   UNL     1      18.199  -7.643  26.941  0.00  0.00    +0.000 A 
ATOM     13  C   UNL     1      17.836  -6.365  27.233  0.00  0.00    +0.000 A 
ATOM     14  C   UNL     1      18.599  -5.274  26.762  0.00  0.00    +0.000 A 
ATOM     15  C   UNL     1      19.701  -5.530  26.014  0.00  0.00    +0.000 A 
ATOM     16  C   UNL     1      20.087  -6.798  25.707  0.00  0.00    +0.000 A 
ATOM     17  C   UNL     1      19.312  -7.840  26.188  0.00  0.00    +0.000 A 
ENDBRANCH  11  12
BRANCH   1  19
ATOM     18  N   UNL     1      15.021  -8.161  24.855  0.00  0.00    +0.000 NA
ATOM     19  C   UNL     1      15.847  -8.728  25.432  0.00  0.00    +0.000 C 
ENDBRANCH   1  19
TORSDOF 2
ENDMDL
MODEL 6
REMARK VINA RESULT:      -6.5      3.432      6.062
REMARK  Name = 
REMARK  2 active torsions:
REMARK  status: ('A' for Active; 'I' for Inactive)
REMARK    1  A    between atoms: C_2  and  C_3
REMARK    2  A    between atoms: C_13  and  C_14
REMARK                            x       y       z     vdW  Elec       q    Type
REMARK                         _______ _______ _______ _____ _____    ______ ____
ROOT
ATOM      1  C   UNL     1      17.808   9.194  39.021  0.00  0.00    +0.000 C 
ATOM      2  C   UNL     1      16.777   9.740  39.597  0.00  0.00    +0.000 C 
ATOM      3  N   UNL     1      16.535   9.446  41.000  0.00  0.00    +0.000 NA
ATOM      4  O   UNL     1      15.931  10.577  38.909  0.00  0.00    +0.000 OA
ATOM      5  C   UNL     1      16.183  10.848  37.555  0.00  0.00    +0.000 C 
ATOM      6  C   UNL     1      17.178  10.341  36.939  0.00  0.00    +0.000 C 
ATOM      7  C   UNL     1      17.431  10.650  35.469  0.00  0.00    +0.000 C 
ATOM      8  C   UNL     1      16.680  11.814  34.990  0.00  0.00    +0.000 C 
ATOM      9  C   UNL     1      15.228  11.611  35.439  0.00  0.00    +0.000 C 
ATOM     10  C   UNL     1      15.166  11.787  36.932  0.00  0.00    +0.000 C 
ATOM     11  C   UNL     1      18.197   9.400  37.572  0.00  0.00    +0.000 C 
ENDROOT
BRANCH  11  12
ATOM     12  C   UNL     1      19.439  10.337  37.727  0.00  0.00    +0.000 A 
ATOM     13  C   UNL     1      20.646   9.933  37.247  0.00  0.00    +0.000 A 
ATOM     14  C   UNL     1      21.784  10.759  37.375  0.00  0.00    +0.000 A 
ATOM     15  C   UNL     1      21.645  11.962  37.985  0.00  0.00    +0.000 A 
ATOM     16  C   UNL     1      20.450  12.391  38.474  0.00  0.00    +0.000 A 
ATOM     17  C   UNL     1      19.358  11.551  38.329  0.00  0.00    +0.000 A 
ENDBRANCH  11  12
BRANCH   1  19
ATOM     18  N   UNL     1      19.377   7.595  40.395  0.00  0.00    +0.000 NA
ATOM     19  C   UNL     1      18.686   8.305  39.799  0.00  0.00    +0.000 C 
ENDBRANCH   1  19
TORSDOF 2
ENDMDL
MODEL 7
REMARK VINA RESULT:      -6.4     20.102     21.938
REMARK  Name = 
REMARK  2 active torsions:
REMARK  status: ('A' for Active; 'I' for Inactive)
REMARK    1  A    between atoms: C_2  and  C_3
REMARK    2  A    between atoms: C_13  and  C_14
REMARK                            x       y       z     vdW  Elec       q    Type
REMARK                         _______ _______ _______ _____ _____    ______ ____
ROOT
ATOM      1  C   UNL     1      29.870  22.442  27.033  0.00  0.00    +0.000 C 
ATOM      2  C   UNL     1      28.763  22.766  27.633  0.00  0.00    +0.000 C 
ATOM      3  N   UNL     1      28.716  22.680  29.084  0.00  0.00    +0.000 NA
ATOM      4  O   UNL     1      27.659  23.181  26.928  0.00  0.00    +0.000 OA
ATOM      5  C   UNL     1      27.725  23.256  25.528  0.00  0.00    +0.000 C 
ATOM      6  C   UNL     1      28.784  22.950  24.885  0.00  0.00    +0.000 C 
ATOM      7  C   UNL     1      28.832  23.040  23.366  0.00  0.00    +0.000 C 
ATOM      8  C   UNL     1      27.733  23.829  22.802  0.00  0.00    +0.000 C 
ATOM      9  C   UNL     1      26.445  23.303  23.447  0.00  0.00    +0.000 C 
ATOM     10  C   UNL     1      26.432  23.729  24.890  0.00  0.00    +0.000 C 
ATOM     11  C   UNL     1      30.081  22.477  25.533  0.00  0.00    +0.000 C 
ENDROOT
BRANCH  11  12
ATOM     12  C   UNL     1      30.987  23.743  25.390  0.00  0.00    +0.000 A 
ATOM     13  C   UNL     1      32.224  23.622  24.836  0.00  0.00    +0.000 A 
ATOM     14  C   UNL     1      33.062  24.749  24.696  0.00  0.00    +0.000 A 
ATOM     15  C   UNL     1      32.606  25.953  25.123  0.00  0.00    +0.000 A 
ATOM     16  C   UNL     1      31.374  26.102  25.680  0.00  0.00    +0.000 A 
ATOM     17  C   UNL     1      30.582  24.973  25.801  0.00  0.00    +0.000 A 
ENDBRANCH  11  12
BRANCH   1  19
ATOM     18  N   UNL     1      31.935  21.677  28.468  0.00  0.00    +0.000 NA
ATOM     19  C   UNL     1      31.027  22.004  27.831  0.00  0.00    +0.000 C 
ENDBRANCH   1  19
TORSDOF 2
ENDMDL
MODEL 8
REMARK VINA RESULT:      -6.2     18.658     20.290
REMARK  Name = 
REMARK  2 active torsions:
REMARK  status: ('A' for Active; 'I' for Inactive)
REMARK    1  A    between atoms: C_2  and  C_3
REMARK    2  A    between atoms: C_13  and  C_14
REMARK                            x       y       z     vdW  Elec       q    Type
REMARK                         _______ _______ _______ _____ _____    ______ ____
ROOT
ATOM      1  C   UNL     1      27.024  23.180  28.234  0.00  0.00    +0.000 C 
ATOM      2  C   UNL     1      26.406  23.936  27.375  0.00  0.00    +0.000 C 
ATOM      3  N   UNL     1      25.154  24.557  27.778  0.00  0.00    +0.000 NA
ATOM      4  O   UNL     1      26.912  24.153  26.115  0.00  0.00    +0.000 OA
ATOM      5  C   UNL     1      28.121  23.544  25.746  0.00  0.00    +0.000 C 
ATOM      6  C   UNL     1      28.771  22.792  26.546  0.00  0.00    +0.000 C 
ATOM      7  C   UNL     1      30.082  22.143  26.123  0.00  0.00    +0.000 C 
ATOM      8  C   UNL     1      30.660  22.748  24.920  0.00  0.00    +0.000 C 
ATOM      9  C   UNL     1      29.531  22.822  23.885  0.00  0.00    +0.000 C 
ATOM     10  C   UNL     1      28.552  23.875  24.329  0.00  0.00    +0.000 C 
ATOM     11  C   UNL     1      28.333  22.465  27.970  0.00  0.00    +0.000 C 
ENDROOT
BRANCH  11  12
ATOM     12  C   UNL     1      29.323  23.334  28.813  0.00  0.00    +0.000 A 
ATOM     13  C   UNL     1      30.049  22.750  29.804  0.00  0.00    +0.000 A 
ATOM     14  C   UNL     1      30.949  23.512  30.581  0.00  0.00    +0.000 A 
ATOM     15  C   UNL     1      31.073  24.836  30.315  0.00  0.00    +0.000 A 
ATOM     16  C   UNL     1      30.359  25.445  29.330  0.00  0.00    +0.000 A 
ATOM     17  C   UNL     1      29.487  24.664  28.591  0.00  0.00    +0.000 A 
ENDBRANCH  11  12
BRANCH   1  19
ATOM     18  N   UNL     1      25.990  22.802  30.620  0.00  0.00    +0.000 NA
ATOM     19  C   UNL     1      26.444  22.979  29.572  0.00  0.00    +0.000 C 
ENDBRANCH   1  19
TORSDOF 2
ENDMDL
MODEL 9
REMARK VINA RESULT:      -6.1     21.597     23.550
REMARK  Name = 
REMARK  2 active torsions:
REMARK  status: ('A' for Active; 'I' for Inactive)
REMARK    1  A    between atoms: C_2  and  C_3
REMARK    2  A    between atoms: C_13  and  C_14
REMARK                            x       y       z     vdW  Elec       q    Type
REMARK                         _______ _______ _______ _____ _____    ______ ____
ROOT
ATOM      1  C   UNL     1      18.471  -7.499  25.851  0.00  0.00    +0.000 C 
ATOM      2  C   UNL     1      18.996  -6.327  26.063  0.00  0.00    +0.000 C 
ATOM      3  N   UNL     1      18.145  -5.278  26.600  0.00  0.00    +0.000 NA
ATOM      4  O   UNL     1      20.319  -6.074  25.792  0.00  0.00    +0.000 OA
ATOM      5  C   UNL     1      21.124  -7.101  25.274  0.00  0.00    +0.000 C 
ATOM      6  C   UNL     1      20.664  -8.269  25.045  0.00  0.00    +0.000 C 
ATOM      7  C   UNL     1      21.556  -9.367  24.483  0.00  0.00    +0.000 C 
ATOM      8  C   UNL     1      22.985  -9.059  24.593  0.00  0.00    +0.000 C 
ATOM      9  C   UNL     1      23.167  -7.639  24.046  0.00  0.00    +0.000 C 
ATOM     10  C   UNL     1      22.558  -6.673  25.026  0.00  0.00    +0.000 C 
ATOM     11  C   UNL     1      19.221  -8.693  25.298  0.00  0.00    +0.000 C 
ENDROOT
BRANCH  11  12
ATOM     12  C   UNL     1      19.370  -9.572  26.583  0.00  0.00    +0.000 A 
ATOM     13  C   UNL     1      18.856 -10.832  26.595  0.00  0.00    +0.000 A 
ATOM     14  C   UNL     1      18.976 -11.646  27.742  0.00  0.00    +0.000 A 
ATOM     15  C   UNL     1      19.615 -11.144  28.829  0.00  0.00    +0.000 A 
ATOM     16  C   UNL     1      20.138  -9.888  28.843  0.00  0.00    +0.000 A 
ATOM     17  C   UNL     1      20.000  -9.121  27.699  0.00  0.00    +0.000 A 
ENDBRANCH  11  12
BRANCH   1  19
ATOM     18  N   UNL     1      15.928  -7.899  26.379  0.00  0.00    +0.000 NA
ATOM     19  C   UNL     1      17.049  -7.722  26.158  0.00  0.00    +0.000 C 
ENDBRANCH   1  19
TORSDOF 2
ENDMDL
MODEL 10
REMARK VINA RESULT:      -6.0     18.006     19.483
REMARK  Name = 
REMARK  2 active torsions:
REMARK  status: ('A' for Active; 'I' for Inactive)
REMARK    1  A    between atoms: C_2  and  C_3
REMARK    2  A    between atoms: C_13  and  C_14
REMARK                            x       y       z     vdW  Elec       q    Type
REMARK                         _______ _______ _______ _____ _____    ______ ____
ROOT
ATOM      1  C   UNL     1      10.666  22.111  21.068  0.00  0.00    +0.000 C 
ATOM      2  C   UNL     1      11.396  21.202  20.491  0.00  0.00    +0.000 C 
ATOM      3  N   UNL     1      10.726  20.069  19.873  0.00  0.00    +0.000 NA
ATOM      4  O   UNL     1      12.767  21.297  20.458  0.00  0.00    +0.000 OA
ATOM      5  C   UNL     1      13.394  22.399  21.061  0.00  0.00    +0.000 C 
ATOM      6  C   UNL     1      12.729  23.320  21.642  0.00  0.00    +0.000 C 
ATOM      7  C   UNL     1      13.432  24.506  22.289  0.00  0.00    +0.000 C 
ATOM      8  C   UNL     1      14.826  24.651  21.860  0.00  0.00    +0.000 C 
ATOM      9  C   UNL     1      15.472  23.268  22.007  0.00  0.00    +0.000 C 
ATOM     10  C   UNL     1      14.907  22.366  20.944  0.00  0.00    +0.000 C 
ATOM     11  C   UNL     1      11.209  23.347  21.755  0.00  0.00    +0.000 C 
ENDROOT
BRANCH  11  12
ATOM     12  C   UNL     1      10.834  24.453  20.715  0.00  0.00    +0.000 A 
ATOM     13  C   UNL     1      10.035  25.487  21.096  0.00  0.00    +0.000 A 
ATOM     14  C   UNL     1       9.681  26.498  20.177  0.00  0.00    +0.000 A 
ATOM     15  C   UNL     1      10.156  26.416  18.909  0.00  0.00    +0.000 A 
ATOM     16  C   UNL     1      10.956  25.394  18.502  0.00  0.00    +0.000 A 
ATOM     17  C   UNL     1      11.280  24.422  19.432  0.00  0.00    +0.000 A 
ENDBRANCH  11  12
BRANCH   1  19
ATOM     18  N   UNL     1       8.050  21.860  21.101  0.00  0.00    +0.000 NA
ATOM     19  C   UNL     1       9.200  21.965  21.077  0.00  0.00    +0.000 C 
ENDBRANCH   1  19
TORSDOF 2
ENDMDL
