MODEL 1
REMARK VINA RESULT:      -8.5      0.000      0.000
REMARK  Name = 
REMARK  2 active torsions:
REMARK  status: ('A' for Active; 'I' for Inactive)
REMARK    1  A    between atoms: O_2  and  C_3
REMARK    2  A    between atoms: C_6  and  C_7
REMARK                            x       y       z     vdW  Elec       q    Type
REMARK                         _______ _______ _______ _____ _____    ______ ____
ROOT
ATOM      1  C   UNL     1      17.530  11.185  36.683  0.00  0.00    +0.000 C 
ATOM      2  N   UNL     1      17.395   9.995  35.640  0.00  0.00    +0.000 NA
ATOM      3  C   UNL     1      17.015  10.452  34.360  0.00  0.00    +0.000 C 
ATOM      4  O   UNL     1      17.569   9.972  33.297  0.00  0.00    +0.000 OA
ATOM      5  C   UNL     1      15.967  11.502  34.206  0.00  0.00    +0.000 A 
ATOM      6  C   UNL     1      15.484  11.910  35.404  0.00  0.00    +0.000 A 
ATOM      7  S   UNL     1      14.320  13.072  34.978  0.00  0.00    +0.000 S 
ATOM      8  C   UNL     1      14.475  13.011  33.261  0.00  0.00    +0.000 A 
ATOM      9  C   UNL     1      15.437  12.079  33.099  0.00  0.00    +0.000 A 
ATOM     10  C   UNL     1      15.791  11.808  31.644  0.00  0.00    +0.000 C 
ATOM     11  C   UNL     1      14.542  11.977  30.834  0.00  0.00    +0.000 C 
ATOM     12  C   UNL     1      14.200  13.472  30.857  0.00  0.00    +0.000 C 
ATOM     13  C   UNL     1      13.747  13.775  32.245  0.00  0.00    +0.000 C 
ATOM     14  N   UNL     1      15.906  11.422  36.667  0.00  0.00    +0.000 NA
ENDROOT
BRANCH   1  18
ATOM     15  C   UNL     1      17.614   8.585  40.161  0.00  0.00    +0.000 A 
ATOM     16  C   UNL     1      18.592   8.492  39.198  0.00  0.00    +0.000 A 
ATOM     17  C   UNL     1      18.544   9.342  38.084  0.00  0.00    +0.000 A 
ATOM     18  C   UNL     1      17.507  10.246  38.000  0.00  0.00    +0.000 A 
ATOM     19  C   UNL     1      16.572  10.331  38.924  0.00  0.00    +0.000 A 
ATOM     20  C   UNL     1      16.611   9.504  40.018  0.00  0.00    +0.000 A 
BRANCH  15  22
ATOM     21  C   UNL     1      17.004   6.476  41.224  0.00  0.00    +0.000 C 
ATOM     22  O   UNL     1      17.659   7.725  41.292  0.00  0.00    +0.000 OA
ENDBRANCH  15  22
ENDBRANCH   1  18
TORSDOF 2
ENDMDL
MODEL 2
REMARK VINA RESULT:      -7.9      2.162      2.941
REMARK  Name = 
REMARK  2 active torsions:
REMARK  status: ('A' for Active; 'I' for Inactive)
REMARK    1  A    between atoms: O_2  and  C_3
REMARK    2  A    between atoms: C_6  and  C_7
REMARK                            x       y       z     vdW  Elec       q    Type
REMARK                         _______ _______ _______ _____ _____    ______ ____
ROOT
ATOM      1  C   UNL     1      16.489  10.247  36.337  0.00  0.00    +0.000 C 
ATOM      2  N   UNL     1      16.360  11.806  36.611  0.00  0.00    +0.000 NA
ATOM      3  C   UNL     1      15.507  12.440  35.682  0.00  0.00    +0.000 C 
ATOM      4  O   UNL     1      14.657  13.331  36.068  0.00  0.00    +0.000 OA
ATOM      5  C   UNL     1      15.567  12.093  34.233  0.00  0.00    +0.000 A 
ATOM      6  C   UNL     1      16.500  11.142  33.981  0.00  0.00    +0.000 A 
ATOM      7  S   UNL     1      16.393  10.928  32.299  0.00  0.00    +0.000 S 
ATOM      8  C   UNL     1      15.148  12.069  31.948  0.00  0.00    +0.000 A 
ATOM      9  C   UNL     1      14.871  12.568  33.171  0.00  0.00    +0.000 A 
ATOM     10  C   UNL     1      13.778  13.627  33.169  0.00  0.00    +0.000 C 
ATOM     11  C   UNL     1      13.882  14.383  31.880  0.00  0.00    +0.000 C 
ATOM     12  C   UNL     1      13.458  13.418  30.765  0.00  0.00    +0.000 C 
ATOM     13  C   UNL     1      14.549  12.407  30.654  0.00  0.00    +0.000 C 
ATOM     14  N   UNL     1      17.330  10.530  34.956  0.00  0.00    +0.000 NA
ENDROOT
BRANCH   1  18
ATOM     15  C   UNL     1      20.132   9.663  38.628  0.00  0.00    +0.000 A 
ATOM     16  C   UNL     1      20.172   9.700  37.253  0.00  0.00    +0.000 A 
ATOM     17  C   UNL     1      18.983   9.889  36.535  0.00  0.00    +0.000 A 
ATOM     18  C   UNL     1      17.810  10.034  37.245  0.00  0.00    +0.000 A 
ATOM     19  C   UNL     1      17.776   9.998  38.561  0.00  0.00    +0.000 A 
ATOM     20  C   UNL     1      18.935   9.813  39.273  0.00  0.00    +0.000 A 
BRANCH  15  22
ATOM     21  C   UNL     1      22.558   9.409  38.656  0.00  0.00    +0.000 C 
ATOM     22  O   UNL     1      21.335   9.471  39.360  0.00  0.00    +0.000 OA
ENDBRANCH  15  22
ENDBRANCH   1  18
TORSDOF 2
ENDMDL
MODEL 3
REMARK VINA RESULT:      -7.0      2.391      7.823
REMARK  Name = 
REMARK  2 active torsions:
REMARK  status: ('A' for Active; 'I' for Inactive)
REMARK    1  A    between atoms: O_2  and  C_3
REMARK    2  A    between atoms: C_6  and  C_7
REMARK                            x       y       z     vdW  Elec       q    Type
REMARK                         _______ _______ _______ _____ _____    ______ ____
ROOT
ATOM      1  C   UNL     1      17.243   9.406  35.385  0.00  0.00    +0.000 C 
ATOM      2  N   UNL     1      18.646  10.150  35.413  0.00  0.00    +0.000 NA
ATOM      3  C   UNL     1      19.393   9.831  36.568  0.00  0.00    +0.000 C 
ATOM      4  O   UNL     1      20.660   9.600  36.491  0.00  0.00    +0.000 OA
ATOM      5  C   UNL     1      18.734   9.753  37.903  0.00  0.00    +0.000 A 
ATOM      6  C   UNL     1      17.406  10.014  37.825  0.00  0.00    +0.000 A 
ATOM      7  S   UNL     1      16.889   9.880  39.438  0.00  0.00    +0.000 S 
ATOM      8  C   UNL     1      18.394   9.491  40.186  0.00  0.00    +0.000 A 
ATOM      9  C   UNL     1      19.237   9.483  39.133  0.00  0.00    +0.000 A 
ATOM     10  C   UNL     1      20.678   9.160  39.503  0.00  0.00    +0.000 C 
ATOM     11  C   UNL     1      20.932   9.721  40.868  0.00  0.00    +0.000 C 
ATOM     12  C   UNL     1      20.105   8.884  41.852  0.00  0.00    +0.000 C 
ATOM     13  C   UNL     1      18.678   9.237  41.601  0.00  0.00    +0.000 C 
ATOM     14  N   UNL     1      16.700  10.323  36.634  0.00  0.00    +0.000 NA
ENDROOT
BRANCH   1  18
ATOM     15  C   UNL     1      15.392  12.019  32.452  0.00  0.00    +0.000 A 
ATOM     16  C   UNL     1      15.120  12.172  33.791  0.00  0.00    +0.000 A 
ATOM     17  C   UNL     1      15.729  11.317  34.719  0.00  0.00    +0.000 A 
ATOM     18  C   UNL     1      16.586  10.347  34.245  0.00  0.00    +0.000 A 
ATOM     19  C   UNL     1      16.844  10.203  32.962  0.00  0.00    +0.000 A 
ATOM     20  C   UNL     1      16.252  11.035  32.046  0.00  0.00    +0.000 A 
BRANCH  15  22
ATOM     21  C   UNL     1      13.778  13.780  31.953  0.00  0.00    +0.000 C 
ATOM     22  O   UNL     1      14.776  12.884  31.507  0.00  0.00    +0.000 OA
ENDBRANCH  15  22
ENDBRANCH   1  18
TORSDOF 2
ENDMDL
MODEL 4
REMARK VINA RESULT:      -6.9     18.728     20.205
REMARK  Name = 
REMARK  2 active torsions:
REMARK  status: ('A' for Active; 'I' for Inactive)
REMARK    1  A    between atoms: O_2  and  C_3
REMARK    2  A    between atoms: C_6  and  C_7
REMARK                            x       y       z     vdW  Elec       q    Type
REMARK                         _______ _______ _______ _____ _____    ______ ____
ROOT
ATOM      1  C   UNL     1      33.428   5.095  35.618  0.00  0.00    +0.000 C 
ATOM      2  N   UNL     1      34.146   4.698  34.258  0.00  0.00    +0.000 NA
ATOM      3  C   UNL     1      33.844   3.376  33.864  0.00  0.00    +0.000 C 
ATOM      4  O   UNL     1      33.588   3.099  32.630  0.00  0.00    +0.000 OA
ATOM      5  C   UNL     1      33.811   2.272  34.865  0.00  0.00    +0.000 A 
ATOM      6  C   UNL     1      34.095   2.716  36.114  0.00  0.00    +0.000 A 
ATOM      7  S   UNL     1      34.012   1.304  37.057  0.00  0.00    +0.000 S 
ATOM      8  C   UNL     1      33.615   0.165  35.824  0.00  0.00    +0.000 A 
ATOM      9  C   UNL     1      33.564   0.946  34.725  0.00  0.00    +0.000 A 
ATOM     10  C   UNL     1      33.225   0.189  33.449  0.00  0.00    +0.000 C 
ATOM     11  C   UNL     1      33.816  -1.182  33.564  0.00  0.00    +0.000 C 
ATOM     12  C   UNL     1      33.020  -1.918  34.649  0.00  0.00    +0.000 C 
ATOM     13  C   UNL     1      33.391  -1.278  35.944  0.00  0.00    +0.000 C 
ATOM     14  N   UNL     1      34.385   4.061  36.459  0.00  0.00    +0.000 NA
ENDROOT
BRANCH   1  18
ATOM     15  C   UNL     1      36.023   8.510  36.295  0.00  0.00    +0.000 A 
ATOM     16  C   UNL     1      36.367   7.545  35.377  0.00  0.00    +0.000 A 
ATOM     17  C   UNL     1      35.514   6.452  35.176  0.00  0.00    +0.000 A 
ATOM     18  C   UNL     1      34.351   6.389  35.914  0.00  0.00    +0.000 A 
ATOM     19  C   UNL     1      34.025   7.315  36.792  0.00  0.00    +0.000 A 
ATOM     20  C   UNL     1      34.854   8.389  36.996  0.00  0.00    +0.000 A 
BRANCH  15  22
ATOM     21  C   UNL     1      36.394  10.745  37.200  0.00  0.00    +0.000 C 
ATOM     22  O   UNL     1      36.886   9.621  36.502  0.00  0.00    +0.000 OA
ENDBRANCH  15  22
ENDBRANCH   1  18
TORSDOF 2
ENDMDL
MODEL 5
REMARK VINA RESULT:      -6.6      2.829      4.301
REMARK  Name = 
REMARK  2 active torsions:
REMARK  status: ('A' for Active; 'I' for Inactive)
REMARK    1  A    between atoms: O_2  and  C_3
REMARK    2  A    between atoms: C_6  and  C_7
REMARK                            x       y       z     vdW  Elec       q    Type
REMARK                         _______ _______ _______ _____ _____    ______ ____
ROOT
ATOM      1  C   UNL     1      16.525   9.822  40.892  0.00  0.00    +0.000 C 
ATOM      2  N   UNL     1      17.269   9.342  39.573  0.00  0.00    +0.000 NA
ATOM      3  C   UNL     1      17.027  10.206  38.483  0.00  0.00    +0.000 C 
ATOM      4  O   UNL     1      17.983  10.541  37.683  0.00  0.00    +0.000 OA
ATOM      5  C   UNL     1      15.663  10.753  38.232  0.00  0.00    +0.000 A 
ATOM      6  C   UNL     1      14.769  10.317  39.154  0.00  0.00    +0.000 A 
ATOM      7  S   UNL     1      13.316  11.048  38.661  0.00  0.00    +0.000 S 
ATOM      8  C   UNL     1      13.885  11.900  37.274  0.00  0.00    +0.000 A 
ATOM      9  C   UNL     1      15.194  11.573  37.260  0.00  0.00    +0.000 A 
ATOM     10  C   UNL     1      15.972  12.200  36.112  0.00  0.00    +0.000 C 
ATOM     11  C   UNL     1      15.046  12.299  34.938  0.00  0.00    +0.000 C 
ATOM     12  C   UNL     1      13.996  13.359  35.291  0.00  0.00    +0.000 C 
ATOM     13  C   UNL     1      13.136  12.757  36.350  0.00  0.00    +0.000 C 
ATOM     14  N   UNL     1      15.066   9.453  40.239  0.00  0.00    +0.000 NA
ENDROOT
BRANCH   1  18
ATOM     15  C   UNL     1      16.850   6.126  43.148  0.00  0.00    +0.000 A 
ATOM     16  C   UNL     1      16.349   7.262  43.740  0.00  0.00    +0.000 A 
ATOM     17  C   UNL     1      16.254   8.443  42.992  0.00  0.00    +0.000 A 
ATOM     18  C   UNL     1      16.670   8.416  41.678  0.00  0.00    +0.000 A 
ATOM     19  C   UNL     1      17.149   7.327  41.115  0.00  0.00    +0.000 A 
ATOM     20  C   UNL     1      17.246   6.166  41.839  0.00  0.00    +0.000 A 
BRANCH  15  22
ATOM     21  C   UNL     1      16.191   4.804  45.090  0.00  0.00    +0.000 C 
ATOM     22  O   UNL     1      16.948   4.926  43.904  0.00  0.00    +0.000 OA
ENDBRANCH  15  22
ENDBRANCH   1  18
TORSDOF 2
ENDMDL
MODEL 6
REMARK VINA RESULT:      -6.5      6.676      9.449
REMARK  Name = 
REMARK  2 active torsions:
REMARK  status: ('A' for Active; 'I' for Inactive)
REMARK    1  A    between atoms: O_2  and  C_3
REMARK    2  A    between atoms: C_6  and  C_7
REMARK                            x       y       z     vdW  Elec       q    Type
REMARK                         _______ _______ _______ _____ _____    ______ ____
ROOT
ATOM      1  C   UNL     1      19.676   3.803  40.223  0.00  0.00    +0.000 C 
ATOM      2  N   UNL     1      19.233   3.929  41.743  0.00  0.00    +0.000 NA
ATOM      3  C   UNL     1      18.187   4.861  41.917  0.00  0.00    +0.000 C 
ATOM      4  O   UNL     1      17.199   4.603  42.706  0.00  0.00    +0.000 OA
ATOM      5  C   UNL     1      18.199   6.163  41.190  0.00  0.00    +0.000 A 
ATOM      6  C   UNL     1      19.292   6.287  40.399  0.00  0.00    +0.000 A 
ATOM      7  S   UNL     1      19.092   7.824  39.700  0.00  0.00    +0.000 S 
ATOM      8  C   UNL     1      17.603   8.280  40.442  0.00  0.00    +0.000 A 
ATOM      9  C   UNL     1      17.328   7.202  41.206  0.00  0.00    +0.000 A 
ATOM     10  C   UNL     1      16.035   7.325  41.999  0.00  0.00    +0.000 C 
ATOM     11  C   UNL     1      15.862   8.767  42.364  0.00  0.00    +0.000 C 
ATOM     12  C   UNL     1      15.567   9.521  41.061  0.00  0.00    +0.000 C 
ATOM     13  C   UNL     1      16.838   9.519  40.281  0.00  0.00    +0.000 C 
ATOM     14  N   UNL     1      20.314   5.315  40.253  0.00  0.00    +0.000 NA
ENDROOT
BRANCH   1  18
ATOM     15  C   UNL     1      23.537   1.980  41.012  0.00  0.00    +0.000 A 
ATOM     16  C   UNL     1      23.445   3.325  40.737  0.00  0.00    +0.000 A 
ATOM     17  C   UNL     1      22.188   3.891  40.485  0.00  0.00    +0.000 A 
ATOM     18  C   UNL     1      21.083   3.067  40.526  0.00  0.00    +0.000 A 
ATOM     19  C   UNL     1      21.176   1.780  40.789  0.00  0.00    +0.000 A 
ATOM     20  C   UNL     1      22.402   1.217  41.036  0.00  0.00    +0.000 A 
BRANCH  15  22
ATOM     21  C   UNL     1      25.025   0.049  40.927  0.00  0.00    +0.000 C 
ATOM     22  O   UNL     1      24.810   1.403  41.268  0.00  0.00    +0.000 OA
ENDBRANCH  15  22
ENDBRANCH   1  18
TORSDOF 2
ENDMDL
MODEL 7
REMARK VINA RESULT:      -6.5      2.812      8.064
REMARK  Name = 
REMARK  2 active torsions:
REMARK  status: ('A' for Active; 'I' for Inactive)
REMARK    1  A    between atoms: O_2  and  C_3
REMARK    2  A    between atoms: C_6  and  C_7
REMARK                            x       y       z     vdW  Elec       q    Type
REMARK                         _______ _______ _______ _____ _____    ______ ____
ROOT
ATOM      1  C   UNL     1      17.928   9.499  36.627  0.00  0.00    +0.000 C 
ATOM      2  N   UNL     1      18.932  10.689  36.942  0.00  0.00    +0.000 NA
ATOM      3  C   UNL     1      19.545  10.545  38.206  0.00  0.00    +0.000 C 
ATOM      4  O   UNL     1      20.802  10.792  38.361  0.00  0.00    +0.000 OA
ATOM      5  C   UNL     1      18.754  10.103  39.390  0.00  0.00    +0.000 A 
ATOM      6  C   UNL     1      17.455   9.878  39.072  0.00  0.00    +0.000 A 
ATOM      7  S   UNL     1      16.769   9.407  40.554  0.00  0.00    +0.000 S 
ATOM      8  C   UNL     1      18.168   9.510  41.559  0.00  0.00    +0.000 A 
ATOM      9  C   UNL     1      19.113   9.909  40.683  0.00  0.00    +0.000 A 
ATOM     10  C   UNL     1      20.490  10.088  41.306  0.00  0.00    +0.000 C 
ATOM     11  C   UNL     1      20.293  10.564  42.713  0.00  0.00    +0.000 C 
ATOM     12  C   UNL     1      19.686   9.393  43.495  0.00  0.00    +0.000 C 
ATOM     13  C   UNL     1      18.292   9.234  42.992  0.00  0.00    +0.000 C 
ATOM     14  N   UNL     1      16.889  10.031  37.781  0.00  0.00    +0.000 NA
ENDROOT
BRANCH   1  18
ATOM     15  C   UNL     1      15.779  11.603  33.494  0.00  0.00    +0.000 A 
ATOM     16  C   UNL     1      15.480  11.830  34.817  0.00  0.00    +0.000 A 
ATOM     17  C   UNL     1      16.187  11.139  35.811  0.00  0.00    +0.000 A 
ATOM     18  C   UNL     1      17.165  10.251  35.415  0.00  0.00    +0.000 A 
ATOM     19  C   UNL     1      17.448  10.036  34.148  0.00  0.00    +0.000 A 
ATOM     20  C   UNL     1      16.761  10.708  33.168  0.00  0.00    +0.000 A 
BRANCH  15  22
ATOM     21  C   UNL     1      14.590  11.584  31.363  0.00  0.00    +0.000 C 
ATOM     22  O   UNL     1      15.064  12.302  32.483  0.00  0.00    +0.000 OA
ENDBRANCH  15  22
ENDBRANCH   1  18
TORSDOF 2
ENDMDL
MODEL 8
REMARK VINA RESULT:      -6.3     21.225     22.293
REMARK  Name = 
REMARK  2 active torsions:
REMARK  status: ('A' for Active; 'I' for Inactive)
REMARK    1  A    between atoms: O_2  and  C_3
REMARK    2  A    between atoms: C_6  and  C_7
REMARK                            x       y       z     vdW  Elec       q    Type
REMARK                         _______ _______ _______ _____ _____    ______ ____
ROOT
ATOM      1  C   UNL     1      18.808  -9.547  26.708  0.00  0.00    +0.000 C 
ATOM      2  N   UNL     1      19.038  -8.002  26.996  0.00  0.00    +0.000 NA
ATOM      3  C   UNL     1      19.969  -7.428  26.103  0.00  0.00    +0.000 C 
ATOM      4  O   UNL     1      19.760  -6.263  25.590  0.00  0.00    +0.000 OA
ATOM      5  C   UNL     1      21.216  -8.157  25.732  0.00  0.00    +0.000 A 
ATOM      6  C   UNL     1      21.294  -9.364  26.343  0.00  0.00    +0.000 A 
ATOM      7  S   UNL     1      22.774  -9.987  25.786  0.00  0.00    +0.000 S 
ATOM      8  C   UNL     1      23.268  -8.679  24.775  0.00  0.00    +0.000 A 
ATOM      9  C   UNL     1      22.245  -7.810  24.920  0.00  0.00    +0.000 A 
ATOM     10  C   UNL     1      22.412  -6.526  24.120  0.00  0.00    +0.000 C 
ATOM     11  C   UNL     1      23.875  -6.210  24.071  0.00  0.00    +0.000 C 
ATOM     12  C   UNL     1      24.530  -7.279  23.188  0.00  0.00    +0.000 C 
ATOM     13  C   UNL     1      24.485  -8.549  23.969  0.00  0.00    +0.000 C 
ATOM     14  N   UNL     1      20.324  -9.899  27.229  0.00  0.00    +0.000 NA
ENDROOT
BRANCH   1  18
ATOM     15  C   UNL     1      17.059 -10.328  30.606  0.00  0.00    +0.000 A 
ATOM     16  C   UNL     1      18.206  -9.576  30.494  0.00  0.00    +0.000 A 
ATOM     17  C   UNL     1      18.752  -9.338  29.226  0.00  0.00    +0.000 A 
ATOM     18  C   UNL     1      18.108  -9.871  28.130  0.00  0.00    +0.000 A 
ATOM     19  C   UNL     1      17.011 -10.590  28.240  0.00  0.00    +0.000 A 
ATOM     20  C   UNL     1      16.469 -10.830  29.478  0.00  0.00    +0.000 A 
BRANCH  15  22
ATOM     21  C   UNL     1      15.099 -10.664  32.019  0.00  0.00    +0.000 C 
ATOM     22  O   UNL     1      16.503 -10.572  31.891  0.00  0.00    +0.000 OA
ENDBRANCH  15  22
ENDBRANCH   1  18
TORSDOF 2
ENDMDL
MODEL 9
REMARK VINA RESULT:      -6.3     19.617     20.799
REMARK  Name = 
REMARK  2 active torsions:
REMARK  status: ('A' for Active; 'I' for Inactive)
REMARK    1  A    between atoms: O_2  and  C_3
REMARK    2  A    between atoms: C_6  and  C_7
REMARK                            x       y       z     vdW  Elec       q    Type
REMARK                         _______ _______ _______ _____ _____    ______ ____
ROOT
ATOM      1  C   UNL     1      30.812  23.757  28.153  0.00  0.00    +0.000 C 
ATOM      2  N   UNL     1      31.751  23.418  26.917  0.00  0.00    +0.000 NA
ATOM      3  C   UNL     1      31.155  23.768  25.686  0.00  0.00    +0.000 C 
ATOM      4  O   UNL     1      31.846  24.337  24.757  0.00  0.00    +0.000 OA
ATOM      5  C   UNL     1      29.712  23.489  25.432  0.00  0.00    +0.000 A 
ATOM      6  C   UNL     1      29.119  22.896  26.497  0.00  0.00    +0.000 A 
ATOM      7  S   UNL     1      27.518  22.670  25.974  0.00  0.00    +0.000 S 
ATOM      8  C   UNL     1      27.640  23.344  24.391  0.00  0.00    +0.000 A 
ATOM      9  C   UNL     1      28.936  23.717  24.344  0.00  0.00    +0.000 A 
ATOM     10  C   UNL     1      29.342  24.361  23.026  0.00  0.00    +0.000 C 
ATOM     11  C   UNL     1      28.542  23.711  21.939  0.00  0.00    +0.000 C 
ATOM     12  C   UNL     1      27.088  24.159  22.132  0.00  0.00    +0.000 C 
ATOM     13  C   UNL     1      26.602  23.474  23.365  0.00  0.00    +0.000 C 
ATOM     14  N   UNL     1      29.764  22.571  27.718  0.00  0.00    +0.000 NA
ENDROOT
BRANCH   1  18
ATOM     15  C   UNL     1      33.100  21.304  30.912  0.00  0.00    +0.000 A 
ATOM     16  C   UNL     1      33.706  21.869  29.814  0.00  0.00    +0.000 A 
ATOM     17  C   UNL     1      32.947  22.656  28.938  0.00  0.00    +0.000 A 
ATOM     18  C   UNL     1      31.609  22.835  29.216  0.00  0.00    +0.000 A 
ATOM     19  C   UNL     1      31.032  22.293  30.268  0.00  0.00    +0.000 A 
ATOM     20  C   UNL     1      31.767  21.520  31.132  0.00  0.00    +0.000 A 
BRANCH  15  22
ATOM     21  C   UNL     1      35.017  21.064  32.402  0.00  0.00    +0.000 C 
ATOM     22  O   UNL     1      33.866  20.505  31.803  0.00  0.00    +0.000 OA
ENDBRANCH  15  22
ENDBRANCH   1  18
TORSDOF 2
ENDMDL
MODEL 10
REMARK VINA RESULT:      -6.2     19.402     20.790
REMARK  Name = 
REMARK  2 active torsions:
REMARK  status: ('A' for Active; 'I' for Inactive)
REMARK    1  A    between atoms: O_2  and  C_3
REMARK    2  A    between atoms: C_6  and  C_7
REMARK                            x       y       z     vdW  Elec       q    Type
REMARK                         _______ _______ _______ _____ _____    ______ ____
ROOT
ATOM      1  C   UNL     1      31.061  21.793  27.658  0.00  0.00    +0.000 C 
ATOM      2  N   UNL     1      29.901  22.582  28.402  0.00  0.00    +0.000 NA
ATOM      3  C   UNL     1      28.727  22.660  27.622  0.00  0.00    +0.000 C 
ATOM      4  O   UNL     1      27.567  22.482  28.158  0.00  0.00    +0.000 OA
ATOM      5  C   UNL     1      28.801  22.948  26.161  0.00  0.00    +0.000 A 
ATOM      6  C   UNL     1      30.081  23.106  25.744  0.00  0.00    +0.000 A 
ATOM      7  S   UNL     1      29.911  23.431  24.084  0.00  0.00    +0.000 S 
ATOM      8  C   UNL     1      28.192  23.360  23.957  0.00  0.00    +0.000 A 
ATOM      9  C   UNL     1      27.828  23.082  25.227  0.00  0.00    +0.000 A 
ATOM     10  C   UNL     1      26.324  22.958  25.421  0.00  0.00    +0.000 C 
ATOM     11  C   UNL     1      25.664  23.912  24.473  0.00  0.00    +0.000 C 
ATOM     12  C   UNL     1      25.898  23.364  23.059  0.00  0.00    +0.000 C 
ATOM     13  C   UNL     1      27.349  23.553  22.774  0.00  0.00    +0.000 C 
ATOM     14  N   UNL     1      31.230  23.010  26.570  0.00  0.00    +0.000 NA
ENDROOT
BRANCH   1  18
ATOM     15  C   UNL     1      34.266  23.040  30.311  0.00  0.00    +0.000 A 
ATOM     16  C   UNL     1      33.778  21.755  30.363  0.00  0.00    +0.000 A 
ATOM     17  C   UNL     1      32.743  21.375  29.497  0.00  0.00    +0.000 A 
ATOM     18  C   UNL     1      32.253  22.317  28.618  0.00  0.00    +0.000 A 
ATOM     19  C   UNL     1      32.722  23.546  28.571  0.00  0.00    +0.000 A 
ATOM     20  C   UNL     1      33.734  23.927  29.415  0.00  0.00    +0.000 A 
BRANCH  15  22
ATOM     21  C   UNL     1      35.893  22.455  32.031  0.00  0.00    +0.000 C 
ATOM     22  O   UNL     1      35.315  23.428  31.188  0.00  0.00    +0.000 OA
ENDBRANCH  15  22
ENDBRANCH   1  18
TORSDOF 2
ENDMDL
