MODEL 1
REMARK VINA RESULT:      -7.0      0.000      0.000
REMARK  Name = 
REMARK  1 active torsions:
REMARK  status: ('A' for Active; 'I' for Inactive)
REMARK    1  A    between atoms: C_12  and  C_13
REMARK                            x       y       z     vdW  Elec       q    Type
REMARK                         _______ _______ _______ _____ _____    ______ ____
ROOT
ATOM      1  O   UNL     1      33.100  -4.835  33.879  0.00  0.00    +0.000 OA
ATOM      2  N   UNL     1      33.177  -3.527  33.482  0.00  0.00    +0.000 NA
ATOM      3  C   UNL     1      33.451  -2.551  34.256  0.00  0.00    +0.000 C 
ATOM      4  C   UNL     1      33.732  -2.657  35.703  0.00  0.00    +0.000 C 
ATOM      5  C   UNL     1      33.551  -1.297  36.292  0.00  0.00    +0.000 C 
ATOM      6  C   UNL     1      33.616  -0.400  35.113  0.00  0.00    +0.000 A 
ATOM      7  C   UNL     1      33.557  -1.127  33.933  0.00  0.00    +0.000 A 
ATOM      8  N   UNL     1      33.623  -0.214  32.945  0.00  0.00    +0.000 NA
ATOM      9  C   UNL     1      33.720   1.036  33.403  0.00  0.00    +0.000 A 
ATOM     10  C   UNL     1      33.811   2.276  32.757  0.00  0.00    +0.000 A 
ATOM     11  C   UNL     1      33.898   3.407  33.544  0.00  0.00    +0.000 A 
ATOM     12  C   UNL     1      33.899   3.362  34.923  0.00  0.00    +0.000 A 
ATOM     13  C   UNL     1      33.807   2.112  35.497  0.00  0.00    +0.000 A 
ATOM     14  C   UNL     1      33.717   0.955  34.778  0.00  0.00    +0.000 A 
ENDROOT
BRANCH  12  15
ATOM     15  C   UNL     1      33.996   4.621  35.661  0.00  0.00    +0.000 C 
ATOM     16  C   UNL     1      34.583   4.518  37.019  0.00  0.00    +0.000 C 
ATOM     17  C   UNL     1      35.680   5.490  37.312  0.00  0.00    +0.000 C 
ATOM     18  C   UNL     1      36.573   5.575  36.102  0.00  0.00    +0.000 C 
ATOM     19  C   UNL     1      35.812   6.226  34.993  0.00  0.00    +0.000 C 
ATOM     20  C   UNL     1      34.396   5.801  34.867  0.00  0.00    +0.000 C 
ENDBRANCH  12  15
TORSDOF 1
ENDMDL
MODEL 2
REMARK VINA RESULT:      -6.9      3.444      7.953
REMARK  Name = 
REMARK  1 active torsions:
REMARK  status: ('A' for Active; 'I' for Inactive)
REMARK    1  A    between atoms: C_12  and  C_13
REMARK                            x       y       z     vdW  Elec       q    Type
REMARK                         _______ _______ _______ _____ _____    ______ ____
ROOT
ATOM      1  O   UNL     1      33.623   4.409  34.035  0.00  0.00    +0.000 OA
ATOM      2  N   UNL     1      33.377   3.165  34.550  0.00  0.00    +0.000 NA
ATOM      3  C   UNL     1      33.689   2.069  33.977  0.00  0.00    +0.000 C 
ATOM      4  C   UNL     1      34.365   1.948  32.668  0.00  0.00    +0.000 C 
ATOM      5  C   UNL     1      34.133   0.559  32.174  0.00  0.00    +0.000 C 
ATOM      6  C   UNL     1      33.729  -0.178  33.396  0.00  0.00    +0.000 A 
ATOM      7  C   UNL     1      33.471   0.698  34.440  0.00  0.00    +0.000 A 
ATOM      8  N   UNL     1      33.117  -0.080  35.482  0.00  0.00    +0.000 NA
ATOM      9  C   UNL     1      33.130  -1.381  35.182  0.00  0.00    +0.000 A 
ATOM     10  C   UNL     1      32.841  -2.528  35.933  0.00  0.00    +0.000 A 
ATOM     11  C   UNL     1      32.954  -3.753  35.307  0.00  0.00    +0.000 A 
ATOM     12  C   UNL     1      33.337  -3.888  33.989  0.00  0.00    +0.000 A 
ATOM     13  C   UNL     1      33.607  -2.722  33.305  0.00  0.00    +0.000 A 
ATOM     14  C   UNL     1      33.515  -1.479  33.864  0.00  0.00    +0.000 A 
ENDROOT
BRANCH  12  15
ATOM     15  C   UNL     1      33.425  -5.234  33.423  0.00  0.00    +0.000 C 
ATOM     16  C   UNL     1      32.252  -5.667  32.626  0.00  0.00    +0.000 C 
ATOM     17  C   UNL     1      32.574  -6.228  31.279  0.00  0.00    +0.000 C 
ATOM     18  C   UNL     1      33.646  -5.376  30.653  0.00  0.00    +0.000 C 
ATOM     19  C   UNL     1      34.913  -5.562  31.424  0.00  0.00    +0.000 C 
ATOM     20  C   UNL     1      34.750  -5.623  32.897  0.00  0.00    +0.000 C 
ENDBRANCH  12  15
TORSDOF 1
ENDMDL
MODEL 3
REMARK VINA RESULT:      -6.5     17.658     18.983
REMARK  Name = 
REMARK  1 active torsions:
REMARK  status: ('A' for Active; 'I' for Inactive)
REMARK    1  A    between atoms: C_12  and  C_13
REMARK                            x       y       z     vdW  Elec       q    Type
REMARK                         _______ _______ _______ _____ _____    ______ ____
ROOT
ATOM      1  O   UNL     1      16.816  -6.155  27.316  0.00  0.00    +0.000 OA
ATOM      2  N   UNL     1      18.009  -5.969  26.672  0.00  0.00    +0.000 NA
ATOM      3  C   UNL     1      18.823  -6.904  26.372  0.00  0.00    +0.000 C 
ATOM      4  C   UNL     1      18.625  -8.339  26.663  0.00  0.00    +0.000 C 
ATOM      5  C   UNL     1      19.961  -9.000  26.568  0.00  0.00    +0.000 C 
ATOM      6  C   UNL     1      20.773  -8.025  25.801  0.00  0.00    +0.000 A 
ATOM      7  C   UNL     1      20.114  -6.811  25.688  0.00  0.00    +0.000 A 
ATOM      8  N   UNL     1      20.942  -6.017  24.981  0.00  0.00    +0.000 NA
ATOM      9  C   UNL     1      22.075  -6.632  24.635  0.00  0.00    +0.000 A 
ATOM     10  C   UNL     1      23.200  -6.208  23.915  0.00  0.00    +0.000 A 
ATOM     11  C   UNL     1      24.225  -7.114  23.731  0.00  0.00    +0.000 A 
ATOM     12  C   UNL     1      24.185  -8.402  24.223  0.00  0.00    +0.000 A 
ATOM     13  C   UNL     1      23.051  -8.757  24.923  0.00  0.00    +0.000 A 
ATOM     14  C   UNL     1      22.001  -7.910  25.141  0.00  0.00    +0.000 A 
ENDROOT
BRANCH  12  15
ATOM     15  C   UNL     1      25.326  -9.281  23.970  0.00  0.00    +0.000 C 
ATOM     16  C   UNL     1      24.994 -10.603  23.386  0.00  0.00    +0.000 C 
ATOM     17  C   UNL     1      25.789 -10.981  22.179  0.00  0.00    +0.000 C 
ATOM     18  C   UNL     1      25.914  -9.768  21.294  0.00  0.00    +0.000 C 
ATOM     19  C   UNL     1      26.778  -8.763  21.985  0.00  0.00    +0.000 C 
ATOM     20  C   UNL     1      26.538  -8.622  23.442  0.00  0.00    +0.000 C 
ENDBRANCH  12  15
TORSDOF 1
ENDMDL
MODEL 4
REMARK VINA RESULT:      -6.4     17.172     18.544
REMARK  Name = 
REMARK  1 active torsions:
REMARK  status: ('A' for Active; 'I' for Inactive)
REMARK    1  A    between atoms: C_12  and  C_13
REMARK                            x       y       z     vdW  Elec       q    Type
REMARK                         _______ _______ _______ _____ _____    ______ ____
ROOT
ATOM      1  O   UNL     1      23.973   9.943  35.901  0.00  0.00    +0.000 OA
ATOM      2  N   UNL     1      22.625  10.036  36.122  0.00  0.00    +0.000 NA
ATOM      3  C   UNL     1      22.070   9.917  37.264  0.00  0.00    +0.000 C 
ATOM      4  C   UNL     1      22.774   9.661  38.538  0.00  0.00    +0.000 C 
ATOM      5  C   UNL     1      21.762   9.152  39.510  0.00  0.00    +0.000 C 
ATOM      6  C   UNL     1      20.470   9.557  38.906  0.00  0.00    +0.000 A 
ATOM      7  C   UNL     1      20.649   9.999  37.604  0.00  0.00    +0.000 A 
ATOM      8  N   UNL     1      19.419  10.335  37.167  0.00  0.00    +0.000 NA
ATOM      9  C   UNL     1      18.473  10.140  38.088  0.00  0.00    +0.000 A 
ATOM     10  C   UNL     1      17.087  10.343  38.079  0.00  0.00    +0.000 A 
ATOM     11  C   UNL     1      16.383  10.032  39.225  0.00  0.00    +0.000 A 
ATOM     12  C   UNL     1      16.984   9.536  40.363  0.00  0.00    +0.000 A 
ATOM     13  C   UNL     1      18.350   9.359  40.308  0.00  0.00    +0.000 A 
ATOM     14  C   UNL     1      19.106   9.646  39.207  0.00  0.00    +0.000 A 
ENDROOT
BRANCH  12  15
ATOM     15  C   UNL     1      16.144   9.240  41.523  0.00  0.00    +0.000 C 
ATOM     16  C   UNL     1      15.749   7.819  41.675  0.00  0.00    +0.000 C 
ATOM     17  C   UNL     1      15.987   7.237  43.031  0.00  0.00    +0.000 C 
ATOM     18  C   UNL     1      17.330   7.710  43.522  0.00  0.00    +0.000 C 
ATOM     19  C   UNL     1      17.252   9.180  43.778  0.00  0.00    +0.000 C 
ATOM     20  C   UNL     1      16.493   9.955  42.767  0.00  0.00    +0.000 C 
ENDBRANCH  12  15
TORSDOF 1
ENDMDL
MODEL 5
REMARK VINA RESULT:      -6.4     23.306     25.015
REMARK  Name = 
REMARK  1 active torsions:
REMARK  status: ('A' for Active; 'I' for Inactive)
REMARK    1  A    between atoms: C_12  and  C_13
REMARK                            x       y       z     vdW  Elec       q    Type
REMARK                         _______ _______ _______ _____ _____    ______ ____
ROOT
ATOM      1  O   UNL     1      24.698  26.058  33.175  0.00  0.00    +0.000 OA
ATOM      2  N   UNL     1      25.749  25.410  32.584  0.00  0.00    +0.000 NA
ATOM      3  C   UNL     1      25.914  25.299  31.324  0.00  0.00    +0.000 C 
ATOM      4  C   UNL     1      25.011  25.843  30.289  0.00  0.00    +0.000 C 
ATOM      5  C   UNL     1      25.307  25.122  29.016  0.00  0.00    +0.000 C 
ATOM      6  C   UNL     1      26.645  24.530  29.259  0.00  0.00    +0.000 A 
ATOM      7  C   UNL     1      26.995  24.631  30.597  0.00  0.00    +0.000 A 
ATOM      8  N   UNL     1      28.214  24.065  30.693  0.00  0.00    +0.000 NA
ATOM      9  C   UNL     1      28.666  23.611  29.521  0.00  0.00    +0.000 A 
ATOM     10  C   UNL     1      29.852  22.965  29.150  0.00  0.00    +0.000 A 
ATOM     11  C   UNL     1      30.009  22.621  27.823  0.00  0.00    +0.000 A 
ATOM     12  C   UNL     1      29.056  22.884  26.862  0.00  0.00    +0.000 A 
ATOM     13  C   UNL     1      27.911  23.522  27.291  0.00  0.00    +0.000 A 
ATOM     14  C   UNL     1      27.692  23.890  28.588  0.00  0.00    +0.000 A 
ENDROOT
BRANCH  12  15
ATOM     15  C   UNL     1      29.325  22.476  25.483  0.00  0.00    +0.000 C 
ATOM     16  C   UNL     1      28.422  23.058  24.461  0.00  0.00    +0.000 C 
ATOM     17  C   UNL     1      29.109  23.681  23.289  0.00  0.00    +0.000 C 
ATOM     18  C   UNL     1      30.292  24.465  23.794  0.00  0.00    +0.000 C 
ATOM     19  C   UNL     1      31.306  23.505  24.328  0.00  0.00    +0.000 C 
ATOM     20  C   UNL     1      30.750  22.374  25.110  0.00  0.00    +0.000 C 
ENDBRANCH  12  15
TORSDOF 1
ENDMDL
MODEL 6
REMARK VINA RESULT:      -6.4     18.350     19.613
REMARK  Name = 
REMARK  1 active torsions:
REMARK  status: ('A' for Active; 'I' for Inactive)
REMARK    1  A    between atoms: C_12  and  C_13
REMARK                            x       y       z     vdW  Elec       q    Type
REMARK                         _______ _______ _______ _____ _____    ______ ____
ROOT
ATOM      1  O   UNL     1      26.556  -3.470  15.074  0.00  0.00    +0.000 OA
ATOM      2  N   UNL     1      26.004  -2.470  15.829  0.00  0.00    +0.000 NA
ATOM      3  C   UNL     1      26.335  -1.241  15.754  0.00  0.00    +0.000 C 
ATOM      4  C   UNL     1      27.362  -0.682  14.849  0.00  0.00    +0.000 C 
ATOM      5  C   UNL     1      27.747   0.656  15.386  0.00  0.00    +0.000 C 
ATOM      6  C   UNL     1      26.628   0.997  16.297  0.00  0.00    +0.000 A 
ATOM      7  C   UNL     1      25.810  -0.102  16.510  0.00  0.00    +0.000 A 
ATOM      8  N   UNL     1      24.842   0.326  17.344  0.00  0.00    +0.000 NA
ATOM      9  C   UNL     1      24.980   1.612  17.676  0.00  0.00    +0.000 A 
ATOM     10  C   UNL     1      24.228   2.462  18.498  0.00  0.00    +0.000 A 
ATOM     11  C   UNL     1      24.654   3.768  18.633  0.00  0.00    +0.000 A 
ATOM     12  C   UNL     1      25.776   4.260  17.999  0.00  0.00    +0.000 A 
ATOM     13  C   UNL     1      26.472   3.373  17.206  0.00  0.00    +0.000 A 
ATOM     14  C   UNL     1      26.105   2.069  17.028  0.00  0.00    +0.000 A 
ENDROOT
BRANCH  12  15
ATOM     15  C   UNL     1      26.139   5.661  18.211  0.00  0.00    +0.000 C 
ATOM     16  C   UNL     1      27.465   5.887  18.835  0.00  0.00    +0.000 C 
ATOM     17  C   UNL     1      28.339   6.872  18.127  0.00  0.00    +0.000 C 
ATOM     18  C   UNL     1      28.227   6.626  16.645  0.00  0.00    +0.000 C 
ATOM     19  C   UNL     1      26.848   6.998  16.204  0.00  0.00    +0.000 C 
ATOM     20  C   UNL     1      25.761   6.593  17.129  0.00  0.00    +0.000 C 
ENDBRANCH  12  15
TORSDOF 1
ENDMDL
MODEL 7
REMARK VINA RESULT:      -6.3     16.844     18.249
REMARK  Name = 
REMARK  1 active torsions:
REMARK  status: ('A' for Active; 'I' for Inactive)
REMARK    1  A    between atoms: C_12  and  C_13
REMARK                            x       y       z     vdW  Elec       q    Type
REMARK                         _______ _______ _______ _____ _____    ______ ____
ROOT
ATOM      1  O   UNL     1      18.367  -5.013  26.395  0.00  0.00    +0.000 OA
ATOM      2  N   UNL     1      19.605  -5.140  25.825  0.00  0.00    +0.000 NA
ATOM      3  C   UNL     1      20.207  -6.250  25.643  0.00  0.00    +0.000 C 
ATOM      4  C   UNL     1      19.681  -7.582  26.011  0.00  0.00    +0.000 C 
ATOM      5  C   UNL     1      20.841  -8.521  26.053  0.00  0.00    +0.000 C 
ATOM      6  C   UNL     1      21.889  -7.809  25.284  0.00  0.00    +0.000 A 
ATOM      7  C   UNL     1      21.522  -6.492  25.047  0.00  0.00    +0.000 A 
ATOM      8  N   UNL     1      22.542  -5.954  24.350  0.00  0.00    +0.000 NA
ATOM      9  C   UNL     1      23.528  -6.825  24.125  0.00  0.00    +0.000 A 
ATOM     10  C   UNL     1      24.756  -6.713  23.459  0.00  0.00    +0.000 A 
ATOM     11  C   UNL     1      25.564  -7.831  23.406  0.00  0.00    +0.000 A 
ATOM     12  C   UNL     1      25.213  -9.037  23.976  0.00  0.00    +0.000 A 
ATOM     13  C   UNL     1      23.993  -9.082  24.616  0.00  0.00    +0.000 A 
ATOM     14  C   UNL     1      23.146  -8.014  24.705  0.00  0.00    +0.000 A 
ENDROOT
BRANCH  12  15
ATOM     15  C   UNL     1      26.144 -10.160  23.860  0.00  0.00    +0.000 C 
ATOM     16  C   UNL     1      27.560  -9.789  23.621  0.00  0.00    +0.000 C 
ATOM     17  C   UNL     1      28.548 -10.440  24.533  0.00  0.00    +0.000 C 
ATOM     18  C   UNL     1      27.985 -10.428  25.930  0.00  0.00    +0.000 C 
ATOM     19  C   UNL     1      26.806 -11.346  25.975  0.00  0.00    +0.000 C 
ATOM     20  C   UNL     1      25.914 -11.282  24.792  0.00  0.00    +0.000 C 
ENDBRANCH  12  15
TORSDOF 1
ENDMDL
MODEL 8
REMARK VINA RESULT:      -6.3     23.639     25.628
REMARK  Name = 
REMARK  1 active torsions:
REMARK  status: ('A' for Active; 'I' for Inactive)
REMARK    1  A    between atoms: C_12  and  C_13
REMARK                            x       y       z     vdW  Elec       q    Type
REMARK                         _______ _______ _______ _____ _____    ______ ____
ROOT
ATOM      1  O   UNL     1      22.618  27.425  30.502  0.00  0.00    +0.000 OA
ATOM      2  N   UNL     1      23.119  26.762  29.414  0.00  0.00    +0.000 NA
ATOM      3  C   UNL     1      24.189  26.068  29.420  0.00  0.00    +0.000 C 
ATOM      4  C   UNL     1      25.069  25.856  30.589  0.00  0.00    +0.000 C 
ATOM      5  C   UNL     1      26.390  25.393  30.072  0.00  0.00    +0.000 C 
ATOM      6  C   UNL     1      26.081  24.934  28.697  0.00  0.00    +0.000 A 
ATOM      7  C   UNL     1      24.806  25.326  28.319  0.00  0.00    +0.000 A 
ATOM      8  N   UNL     1      24.642  24.857  27.066  0.00  0.00    +0.000 NA
ATOM      9  C   UNL     1      25.714  24.198  26.619  0.00  0.00    +0.000 A 
ATOM     10  C   UNL     1      25.990  23.555  25.405  0.00  0.00    +0.000 A 
ATOM     11  C   UNL     1      27.225  22.956  25.261  0.00  0.00    +0.000 A 
ATOM     12  C   UNL     1      28.184  22.967  26.252  0.00  0.00    +0.000 A 
ATOM     13  C   UNL     1      27.851  23.615  27.422  0.00  0.00    +0.000 A 
ATOM     14  C   UNL     1      26.647  24.228  27.630  0.00  0.00    +0.000 A 
ENDROOT
BRANCH  12  15
ATOM     15  C   UNL     1      29.461  22.301  25.995  0.00  0.00    +0.000 C 
ATOM     16  C   UNL     1      30.051  22.553  24.658  0.00  0.00    +0.000 C 
ATOM     17  C   UNL     1      31.484  22.976  24.667  0.00  0.00    +0.000 C 
ATOM     18  C   UNL     1      31.679  23.968  25.783  0.00  0.00    +0.000 C 
ATOM     19  C   UNL     1      31.514  23.255  27.087  0.00  0.00    +0.000 C 
ATOM     20  C   UNL     1      30.407  22.268  27.128  0.00  0.00    +0.000 C 
ENDBRANCH  12  15
TORSDOF 1
ENDMDL
MODEL 9
REMARK VINA RESULT:      -6.2     23.561     25.828
REMARK  Name = 
REMARK  1 active torsions:
REMARK  status: ('A' for Active; 'I' for Inactive)
REMARK    1  A    between atoms: C_12  and  C_13
REMARK                            x       y       z     vdW  Elec       q    Type
REMARK                         _______ _______ _______ _____ _____    ______ ____
ROOT
ATOM      1  O   UNL     1      24.176  27.025  33.929  0.00  0.00    +0.000 OA
ATOM      2  N   UNL     1      24.917  26.103  33.240  0.00  0.00    +0.000 NA
ATOM      3  C   UNL     1      24.999  26.045  31.968  0.00  0.00    +0.000 C 
ATOM      4  C   UNL     1      24.317  26.952  31.022  0.00  0.00    +0.000 C 
ATOM      5  C   UNL     1      24.307  26.280  29.689  0.00  0.00    +0.000 C 
ATOM      6  C   UNL     1      25.357  25.241  29.820  0.00  0.00    +0.000 A 
ATOM      7  C   UNL     1      25.757  25.105  31.141  0.00  0.00    +0.000 A 
ATOM      8  N   UNL     1      26.702  24.144  31.133  0.00  0.00    +0.000 NA
ATOM      9  C   UNL     1      26.934  23.659  29.911  0.00  0.00    +0.000 A 
ATOM     10  C   UNL     1      27.808  22.673  29.434  0.00  0.00    +0.000 A 
ATOM     11  C   UNL     1      27.799  22.406  28.080  0.00  0.00    +0.000 A 
ATOM     12  C   UNL     1      26.973  23.063  27.191  0.00  0.00    +0.000 A 
ATOM     13  C   UNL     1      26.137  24.021  27.723  0.00  0.00    +0.000 A 
ATOM     14  C   UNL     1      26.096  24.335  29.052  0.00  0.00    +0.000 A 
ENDROOT
BRANCH  12  15
ATOM     15  C   UNL     1      27.045  22.701  25.776  0.00  0.00    +0.000 C 
ATOM     16  C   UNL     1      25.799  22.918  25.001  0.00  0.00    +0.000 C 
ATOM     17  C   UNL     1      25.970  23.675  23.724  0.00  0.00    +0.000 C 
ATOM     18  C   UNL     1      26.919  24.818  23.974  0.00  0.00    +0.000 C 
ATOM     19  C   UNL     1      28.280  24.258  24.237  0.00  0.00    +0.000 C 
ATOM     20  C   UNL     1      28.307  23.044  25.089  0.00  0.00    +0.000 C 
ENDBRANCH  12  15
TORSDOF 1
ENDMDL
MODEL 10
REMARK VINA RESULT:      -5.9     17.801     19.890
REMARK  Name = 
REMARK  1 active torsions:
REMARK  status: ('A' for Active; 'I' for Inactive)
REMARK    1  A    between atoms: C_12  and  C_13
REMARK                            x       y       z     vdW  Elec       q    Type
REMARK                         _______ _______ _______ _____ _____    ______ ____
ROOT
ATOM      1  O   UNL     1      22.378  18.981  40.347  0.00  0.00    +0.000 OA
ATOM      2  N   UNL     1      22.549  17.674  39.978  0.00  0.00    +0.000 NA
ATOM      3  C   UNL     1      21.609  16.902  39.595  0.00  0.00    +0.000 C 
ATOM      4  C   UNL     1      20.183  17.276  39.481  0.00  0.00    +0.000 C 
ATOM      5  C   UNL     1      19.392  16.010  39.449  0.00  0.00    +0.000 C 
ATOM      6  C   UNL     1      20.402  14.983  39.097  0.00  0.00    +0.000 A 
ATOM      7  C   UNL     1      21.686  15.500  39.182  0.00  0.00    +0.000 A 
ATOM      8  N   UNL     1      22.505  14.484  38.843  0.00  0.00    +0.000 NA
ATOM      9  C   UNL     1      21.842  13.363  38.550  0.00  0.00    +0.000 A 
ATOM     10  C   UNL     1      22.268  12.088  38.156  0.00  0.00    +0.000 A 
ATOM     11  C   UNL     1      21.302  11.129  37.926  0.00  0.00    +0.000 A 
ATOM     12  C   UNL     1      19.952  11.376  38.067  0.00  0.00    +0.000 A 
ATOM     13  C   UNL     1      19.598  12.650  38.457  0.00  0.00    +0.000 A 
ATOM     14  C   UNL     1      20.503  13.645  38.701  0.00  0.00    +0.000 A 
ENDROOT
BRANCH  12  15
ATOM     15  C   UNL     1      19.013  10.288  37.798  0.00  0.00    +0.000 C 
ATOM     16  C   UNL     1      17.586  10.603  38.049  0.00  0.00    +0.000 C 
ATOM     17  C   UNL     1      16.655  10.264  36.931  0.00  0.00    +0.000 C 
ATOM     18  C   UNL     1      17.305  10.666  35.633  0.00  0.00    +0.000 C 
ATOM     19  C   UNL     1      18.482   9.775  35.395  0.00  0.00    +0.000 C 
ATOM     20  C   UNL     1      19.298   9.476  36.597  0.00  0.00    +0.000 C 
ENDBRANCH  12  15
TORSDOF 1
ENDMDL
