MODEL 1
REMARK VINA RESULT:      -7.5      0.000      0.000
REMARK  Name = 
REMARK  7 active torsions:
REMARK  status: ('A' for Active; 'I' for Inactive)
REMARK    1  A    between atoms: C_4  and  C_5
REMARK    2  A    between atoms: C_14  and  C_15
REMARK    3  A    between atoms: C_15  and  C_17
REMARK    4  A    between atoms: C_20  and  O_21
REMARK    5  A    between atoms: O_21  and  C_22
REMARK    6  A    between atoms: C_22  and  C_23
REMARK    7  A    between atoms: C_23  and  N_24
REMARK                            x       y       z     vdW  Elec       q    Type
REMARK                         _______ _______ _______ _____ _____    ______ ____
ROOT
ATOM      1  C   UNL     1      35.941   3.478  15.227  0.00  0.00    +0.000 A 
ATOM      2  S   UNL     1      34.500   4.114  14.620  0.00  0.00    +0.000 S 
ATOM      3  C   UNL     1      35.053   5.676  14.139  0.00  0.00    +0.000 A 
ATOM      4  C   UNL     1      34.457   6.789  13.539  0.00  0.00    +0.000 A 
ATOM      5  C   UNL     1      35.208   7.921  13.265  0.00  0.00    +0.000 A 
ATOM      6  O   UNL     1      34.611   9.020  12.669  0.00  0.00    +0.000 OA
ATOM      7  C   UNL     1      36.517   7.862  13.614  0.00  0.00    +0.000 A 
ATOM      8  C   UNL     1      37.111   6.796  14.193  0.00  0.00    +0.000 A 
ATOM      9  C   UNL     1      36.379   5.626  14.486  0.00  0.00    +0.000 A 
ATOM     10  C   UNL     1      36.849   4.500  15.045  0.00  0.00    +0.000 A 
ENDROOT
BRANCH   1  14
ATOM     11  C   UNL     1      36.964  -1.348  14.461  0.00  0.00    +0.000 C 
ATOM     12  C   UNL     1      36.627  -0.206  15.370  0.00  0.00    +0.000 A 
ATOM     13  C   UNL     1      36.458   1.064  14.902  0.00  0.00    +0.000 A 
ATOM     14  C   UNL     1      36.183   2.138  15.755  0.00  0.00    +0.000 A 
ATOM     15  C   UNL     1      36.086   1.860  17.113  0.00  0.00    +0.000 A 
ATOM     16  C   UNL     1      36.252   0.566  17.606  0.00  0.00    +0.000 A 
ATOM     17  C   UNL     1      36.130   0.286  19.085  0.00  0.00    +0.000 C 
ATOM     18  C   UNL     1      36.523  -0.444  16.720  0.00  0.00    +0.000 A 
ATOM     19  O   UNL     1      36.699  -1.754  17.209  0.00  0.00    +0.000 OA
ENDBRANCH   1  14
BRANCH  10  20
ATOM     20  C   UNL     1      38.265   4.220  15.386  0.00  0.00    +0.000 C 
ATOM     21  O   UNL     1      38.905   3.395  14.631  0.00  0.00    +0.000 OA
BRANCH  20  22
ATOM     22  C   UNL     1      38.928   4.827  16.505  0.00  0.00    +0.000 A 
ATOM     23  C   UNL     1      38.525   4.720  17.821  0.00  0.00    +0.000 A 
ATOM     24  C   UNL     1      39.278   5.368  18.795  0.00  0.00    +0.000 A 
ATOM     25  C   UNL     1      40.397   6.103  18.484  0.00  0.00    +0.000 A 
ATOM     26  C   UNL     1      40.769   6.192  17.164  0.00  0.00    +0.000 A 
ATOM     27  C   UNL     1      40.077   5.584  16.185  0.00  0.00    +0.000 A 
BRANCH  25  28
ATOM     28  O   UNL     1      41.162   6.756  19.462  0.00  0.00    +0.000 OA
BRANCH  28  29
ATOM     29  C   UNL     1      41.276   8.180  19.315  0.00  0.00    +0.000 C 
BRANCH  29  30
ATOM     30  C   UNL     1      40.208   8.778  20.234  0.00  0.00    +0.000 C 
BRANCH  30  31
ATOM     31  N   UNL     1      39.305   9.544  19.442  0.00  0.00    +0.000 NA
ATOM     32  C   UNL     1      39.630   9.603  18.038  0.00  0.00    +0.000 C 
ATOM     33  C   UNL     1      38.339   9.673  17.229  0.00  0.00    +0.000 C 
ATOM     34  C   UNL     1      37.549   8.406  17.485  0.00  0.00    +0.000 C 
ATOM     35  C   UNL     1      37.210   8.371  18.965  0.00  0.00    +0.000 C 
ATOM     36  C   UNL     1      37.922   9.438  19.751  0.00  0.00    +0.000 C 
ENDBRANCH  30  31
ENDBRANCH  29  30
ENDBRANCH  28  29
ENDBRANCH  25  28
ENDBRANCH  20  22
ENDBRANCH  10  20
TORSDOF 7
ENDMDL
MODEL 2
REMARK VINA RESULT:      -7.5      3.408      6.307
REMARK  Name = 
REMARK  7 active torsions:
REMARK  status: ('A' for Active; 'I' for Inactive)
REMARK    1  A    between atoms: C_4  and  C_5
REMARK    2  A    between atoms: C_14  and  C_15
REMARK    3  A    between atoms: C_15  and  C_17
REMARK    4  A    between atoms: C_20  and  O_21
REMARK    5  A    between atoms: O_21  and  C_22
REMARK    6  A    between atoms: C_22  and  C_23
REMARK    7  A    between atoms: C_23  and  N_24
REMARK                            x       y       z     vdW  Elec       q    Type
REMARK                         _______ _______ _______ _____ _____    ______ ____
ROOT
ATOM      1  C   UNL     1      38.679  -1.850  15.107  0.00  0.00    +0.000 A 
ATOM      2  S   UNL     1      40.086  -2.661  15.567  0.00  0.00    +0.000 S 
ATOM      3  C   UNL     1      41.182  -2.024  14.395  0.00  0.00    +0.000 A 
ATOM      4  C   UNL     1      42.542  -2.198  14.123  0.00  0.00    +0.000 A 
ATOM      5  C   UNL     1      43.141  -1.504  13.084  0.00  0.00    +0.000 A 
ATOM      6  O   UNL     1      44.489  -1.680  12.821  0.00  0.00    +0.000 OA
ATOM      7  C   UNL     1      42.331  -0.675  12.381  0.00  0.00    +0.000 A 
ATOM      8  C   UNL     1      41.016  -0.493  12.629  0.00  0.00    +0.000 A 
ATOM      9  C   UNL     1      40.372  -1.180  13.678  0.00  0.00    +0.000 A 
ATOM     10  C   UNL     1      39.082  -1.081  14.036  0.00  0.00    +0.000 A 
ENDROOT
BRANCH   1  14
ATOM     11  C   UNL     1      34.069  -3.750  15.350  0.00  0.00    +0.000 C 
ATOM     12  C   UNL     1      35.118  -2.789  15.816  0.00  0.00    +0.000 A 
ATOM     13  C   UNL     1      36.370  -2.771  15.278  0.00  0.00    +0.000 A 
ATOM     14  C   UNL     1      37.363  -1.899  15.741  0.00  0.00    +0.000 A 
ATOM     15  C   UNL     1      37.021  -1.043  16.780  0.00  0.00    +0.000 A 
ATOM     16  C   UNL     1      35.743  -1.047  17.337  0.00  0.00    +0.000 A 
ATOM     17  C   UNL     1      35.391  -0.099  18.458  0.00  0.00    +0.000 C 
ATOM     18  C   UNL     1      34.815  -1.926  16.843  0.00  0.00    +0.000 A 
ATOM     19  O   UNL     1      33.522  -1.943  17.405  0.00  0.00    +0.000 OA
ENDBRANCH   1  14
BRANCH  10  20
ATOM     20  C   UNL     1      38.084  -0.149  13.455  0.00  0.00    +0.000 C 
ATOM     21  O   UNL     1      37.474  -0.525  12.385  0.00  0.00    +0.000 OA
BRANCH  20  22
ATOM     22  C   UNL     1      37.785   1.128  14.038  0.00  0.00    +0.000 A 
ATOM     23  C   UNL     1      36.523   1.677  14.146  0.00  0.00    +0.000 A 
ATOM     24  C   UNL     1      36.397   2.928  14.740  0.00  0.00    +0.000 A 
ATOM     25  C   UNL     1      37.483   3.623  15.215  0.00  0.00    +0.000 A 
ATOM     26  C   UNL     1      38.726   3.051  15.090  0.00  0.00    +0.000 A 
ATOM     27  C   UNL     1      38.901   1.844  14.525  0.00  0.00    +0.000 A 
BRANCH  25  28
ATOM     28  O   UNL     1      37.361   4.884  15.819  0.00  0.00    +0.000 OA
BRANCH  28  29
ATOM     29  C   UNL     1      38.371   5.210  16.787  0.00  0.00    +0.000 C 
BRANCH  29  30
ATOM     30  C   UNL     1      38.982   6.533  16.318  0.00  0.00    +0.000 C 
BRANCH  30  31
ATOM     31  N   UNL     1      39.277   7.328  17.463  0.00  0.00    +0.000 NA
ATOM     32  C   UNL     1      38.448   7.066  18.613  0.00  0.00    +0.000 C 
ATOM     33  C   UNL     1      39.272   7.275  19.880  0.00  0.00    +0.000 C 
ATOM     34  C   UNL     1      40.414   6.280  19.874  0.00  0.00    +0.000 C 
ATOM     35  C   UNL     1      41.277   6.582  18.662  0.00  0.00    +0.000 C 
ATOM     36  C   UNL     1      40.647   7.587  17.735  0.00  0.00    +0.000 C 
ENDBRANCH  30  31
ENDBRANCH  29  30
ENDBRANCH  28  29
ENDBRANCH  25  28
ENDBRANCH  20  22
ENDBRANCH  10  20
TORSDOF 7
ENDMDL
MODEL 3
REMARK VINA RESULT:      -7.3      5.271      8.050
REMARK  Name = 
REMARK  7 active torsions:
REMARK  status: ('A' for Active; 'I' for Inactive)
REMARK    1  A    between atoms: C_4  and  C_5
REMARK    2  A    between atoms: C_14  and  C_15
REMARK    3  A    between atoms: C_15  and  C_17
REMARK    4  A    between atoms: C_20  and  O_21
REMARK    5  A    between atoms: O_21  and  C_22
REMARK    6  A    between atoms: C_22  and  C_23
REMARK    7  A    between atoms: C_23  and  N_24
REMARK                            x       y       z     vdW  Elec       q    Type
REMARK                         _______ _______ _______ _____ _____    ______ ____
ROOT
ATOM      1  C   UNL     1      36.233  -0.191  15.634  0.00  0.00    +0.000 A 
ATOM      2  S   UNL     1      35.171   0.906  16.354  0.00  0.00    +0.000 S 
ATOM      3  C   UNL     1      35.442   2.277  15.341  0.00  0.00    +0.000 A 
ATOM      4  C   UNL     1      34.928   3.575  15.286  0.00  0.00    +0.000 A 
ATOM      5  C   UNL     1      35.360   4.457  14.307  0.00  0.00    +0.000 A 
ATOM      6  O   UNL     1      34.846   5.742  14.257  0.00  0.00    +0.000 OA
ATOM      7  C   UNL     1      36.287   3.974  13.443  0.00  0.00    +0.000 A 
ATOM      8  C   UNL     1      36.794   2.723  13.480  0.00  0.00    +0.000 A 
ATOM      9  C   UNL     1      36.378   1.798  14.460  0.00  0.00    +0.000 A 
ATOM     10  C   UNL     1      36.791   0.529  14.599  0.00  0.00    +0.000 A 
ENDROOT
BRANCH   1  14
ATOM     11  C   UNL     1      38.686  -3.657  18.260  0.00  0.00    +0.000 C 
ATOM     12  C   UNL     1      37.682  -3.265  17.220  0.00  0.00    +0.000 A 
ATOM     13  C   UNL     1      37.419  -1.960  16.926  0.00  0.00    +0.000 A 
ATOM     14  C   UNL     1      36.453  -1.593  15.982  0.00  0.00    +0.000 A 
ATOM     15  C   UNL     1      35.764  -2.619  15.349  0.00  0.00    +0.000 A 
ATOM     16  C   UNL     1      36.024  -3.958  15.636  0.00  0.00    +0.000 A 
ATOM     17  C   UNL     1      35.271  -5.057  14.926  0.00  0.00    +0.000 C 
ATOM     18  C   UNL     1      36.981  -4.254  16.572  0.00  0.00    +0.000 A 
ATOM     19  O   UNL     1      37.247  -5.605  16.875  0.00  0.00    +0.000 OA
ENDBRANCH   1  14
BRANCH  10  20
ATOM     20  C   UNL     1      37.709  -0.195  13.685  0.00  0.00    +0.000 C 
ATOM     21  O   UNL     1      37.188  -0.776  12.660  0.00  0.00    +0.000 OA
BRANCH  20  22
ATOM     22  C   UNL     1      39.125  -0.264  13.904  0.00  0.00    +0.000 A 
ATOM     23  C   UNL     1      40.017   0.764  13.670  0.00  0.00    +0.000 A 
ATOM     24  C   UNL     1      41.364   0.542  13.935  0.00  0.00    +0.000 A 
ATOM     25  C   UNL     1      41.824  -0.661  14.415  0.00  0.00    +0.000 A 
ATOM     26  C   UNL     1      40.912  -1.665  14.633  0.00  0.00    +0.000 A 
ATOM     27  C   UNL     1      39.600  -1.500  14.395  0.00  0.00    +0.000 A 
BRANCH  25  28
ATOM     28  O   UNL     1      43.182  -0.890  14.687  0.00  0.00    +0.000 OA
BRANCH  28  29
ATOM     29  C   UNL     1      43.799  -1.942  13.929  0.00  0.00    +0.000 C 
BRANCH  29  30
ATOM     30  C   UNL     1      44.138  -1.328  12.569  0.00  0.00    +0.000 C 
BRANCH  30  31
ATOM     31  N   UNL     1      43.607  -2.166  11.547  0.00  0.00    +0.000 NA
ATOM     32  C   UNL     1      42.957  -3.362  12.021  0.00  0.00    +0.000 C 
ATOM     33  C   UNL     1      41.804  -3.709  11.084  0.00  0.00    +0.000 C 
ATOM     34  C   UNL     1      40.804  -2.572  11.121  0.00  0.00    +0.000 C 
ATOM     35  C   UNL     1      41.508  -1.328  10.608  0.00  0.00    +0.000 C 
ATOM     36  C   UNL     1      42.990  -1.525  10.439  0.00  0.00    +0.000 C 
ENDBRANCH  30  31
ENDBRANCH  29  30
ENDBRANCH  28  29
ENDBRANCH  25  28
ENDBRANCH  20  22
ENDBRANCH  10  20
TORSDOF 7
ENDMDL
MODEL 4
REMARK VINA RESULT:      -7.0     24.169     26.822
REMARK  Name = 
REMARK  7 active torsions:
REMARK  status: ('A' for Active; 'I' for Inactive)
REMARK    1  A    between atoms: C_4  and  C_5
REMARK    2  A    between atoms: C_14  and  C_15
REMARK    3  A    between atoms: C_15  and  C_17
REMARK    4  A    between atoms: C_20  and  O_21
REMARK    5  A    between atoms: O_21  and  C_22
REMARK    6  A    between atoms: C_22  and  C_23
REMARK    7  A    between atoms: C_23  and  N_24
REMARK                            x       y       z     vdW  Elec       q    Type
REMARK                         _______ _______ _______ _____ _____    ______ ____
ROOT
ATOM      1  C   UNL     1      11.168  -1.065  28.740  0.00  0.00    +0.000 A 
ATOM      2  S   UNL     1       9.585  -0.585  28.399  0.00  0.00    +0.000 S 
ATOM      3  C   UNL     1       9.826   1.117  28.254  0.00  0.00    +0.000 A 
ATOM      4  C   UNL     1       8.997   2.207  27.971  0.00  0.00    +0.000 A 
ATOM      5  C   UNL     1       9.523   3.488  27.912  0.00  0.00    +0.000 A 
ATOM      6  O   UNL     1       8.696   4.563  27.630  0.00  0.00    +0.000 OA
ATOM      7  C   UNL     1      10.854   3.593  28.145  0.00  0.00    +0.000 A 
ATOM      8  C   UNL     1      11.671   2.553  28.419  0.00  0.00    +0.000 A 
ATOM      9  C   UNL     1      11.173   1.235  28.485  0.00  0.00    +0.000 A 
ATOM     10  C   UNL     1      11.875   0.118  28.735  0.00  0.00    +0.000 A 
ENDROOT
BRANCH   1  14
ATOM     11  C   UNL     1      13.026  -4.611  31.723  0.00  0.00    +0.000 C 
ATOM     12  C   UNL     1      12.625  -4.113  30.369  0.00  0.00    +0.000 A 
ATOM     13  C   UNL     1      12.090  -2.873  30.186  0.00  0.00    +0.000 A 
ATOM     14  C   UNL     1      11.677  -2.422  28.927  0.00  0.00    +0.000 A 
ATOM     15  C   UNL     1      11.835  -3.295  27.858  0.00  0.00    +0.000 A 
ATOM     16  C   UNL     1      12.384  -4.565  28.029  0.00  0.00    +0.000 A 
ATOM     17  C   UNL     1      12.557  -5.493  26.851  0.00  0.00    +0.000 C 
ATOM     18  C   UNL     1      12.767  -4.950  29.288  0.00  0.00    +0.000 A 
ATOM     19  O   UNL     1      13.316  -6.235  29.472  0.00  0.00    +0.000 OA
ENDBRANCH   1  14
BRANCH  10  20
ATOM     20  C   UNL     1      13.347   0.032  28.901  0.00  0.00    +0.000 C 
ATOM     21  O   UNL     1      13.808   0.019  30.104  0.00  0.00    +0.000 OA
BRANCH  20  22
ATOM     22  C   UNL     1      14.249  -0.038  27.788  0.00  0.00    +0.000 A 
ATOM     23  C   UNL     1      13.936  -0.543  26.541  0.00  0.00    +0.000 A 
ATOM     24  C   UNL     1      14.924  -0.539  25.562  0.00  0.00    +0.000 A 
ATOM     25  C   UNL     1      16.188  -0.054  25.801  0.00  0.00    +0.000 A 
ATOM     26  C   UNL     1      16.468   0.438  27.053  0.00  0.00    +0.000 A 
ATOM     27  C   UNL     1      15.548   0.458  28.034  0.00  0.00    +0.000 A 
BRANCH  25  28
ATOM     28  O   UNL     1      17.187  -0.044  24.816  0.00  0.00    +0.000 OA
BRANCH  28  29
ATOM     29  C   UNL     1      18.494  -0.450  25.252  0.00  0.00    +0.000 C 
BRANCH  29  30
ATOM     30  C   UNL     1      19.476   0.481  24.536  0.00  0.00    +0.000 C 
BRANCH  30  31
ATOM     31  N   UNL     1      20.449  -0.316  23.866  0.00  0.00    +0.000 NA
ATOM     32  C   UNL     1      19.970  -1.593  23.401  0.00  0.00    +0.000 C 
ATOM     33  C   UNL     1      20.694  -1.957  22.108  0.00  0.00    +0.000 C 
ATOM     34  C   UNL     1      20.360  -0.910  21.066  0.00  0.00    +0.000 C 
ATOM     35  C   UNL     1      20.883   0.423  21.573  0.00  0.00    +0.000 C 
ATOM     36  C   UNL     1      21.352   0.358  23.001  0.00  0.00    +0.000 C 
ENDBRANCH  30  31
ENDBRANCH  29  30
ENDBRANCH  28  29
ENDBRANCH  25  28
ENDBRANCH  20  22
ENDBRANCH  10  20
TORSDOF 7
ENDMDL
MODEL 5
REMARK VINA RESULT:      -7.0      4.138      6.844
REMARK  Name = 
REMARK  7 active torsions:
REMARK  status: ('A' for Active; 'I' for Inactive)
REMARK    1  A    between atoms: C_4  and  C_5
REMARK    2  A    between atoms: C_14  and  C_15
REMARK    3  A    between atoms: C_15  and  C_17
REMARK    4  A    between atoms: C_20  and  O_21
REMARK    5  A    between atoms: O_21  and  C_22
REMARK    6  A    between atoms: C_22  and  C_23
REMARK    7  A    between atoms: C_23  and  N_24
REMARK                            x       y       z     vdW  Elec       q    Type
REMARK                         _______ _______ _______ _____ _____    ______ ____
ROOT
ATOM      1  C   UNL     1      35.682   2.718  15.443  0.00  0.00    +0.000 A 
ATOM      2  S   UNL     1      34.251   3.528  15.061  0.00  0.00    +0.000 S 
ATOM      3  C   UNL     1      34.910   4.961  14.359  0.00  0.00    +0.000 A 
ATOM      4  C   UNL     1      34.368   6.116  13.789  0.00  0.00    +0.000 A 
ATOM      5  C   UNL     1      35.199   7.106  13.289  0.00  0.00    +0.000 A 
ATOM      6  O   UNL     1      34.654   8.247  12.725  0.00  0.00    +0.000 OA
ATOM      7  C   UNL     1      36.530   6.870  13.395  0.00  0.00    +0.000 A 
ATOM      8  C   UNL     1      37.073   5.760  13.941  0.00  0.00    +0.000 A 
ATOM      9  C   UNL     1      36.259   4.731  14.459  0.00  0.00    +0.000 A 
ATOM     10  C   UNL     1      36.669   3.580  15.013  0.00  0.00    +0.000 A 
ENDROOT
BRANCH   1  14
ATOM     11  C   UNL     1      36.075  -2.228  14.880  0.00  0.00    +0.000 C 
ATOM     12  C   UNL     1      35.973  -1.009  15.745  0.00  0.00    +0.000 A 
ATOM     13  C   UNL     1      35.891   0.246  15.218  0.00  0.00    +0.000 A 
ATOM     14  C   UNL     1      35.836   1.387  16.026  0.00  0.00    +0.000 A 
ATOM     15  C   UNL     1      35.867   1.192  17.401  0.00  0.00    +0.000 A 
ATOM     16  C   UNL     1      35.947  -0.085  17.955  0.00  0.00    +0.000 A 
ATOM     17  C   UNL     1      35.968  -0.273  19.453  0.00  0.00    +0.000 C 
ATOM     18  C   UNL     1      36.001  -1.164  17.111  0.00  0.00    +0.000 A 
ATOM     19  O   UNL     1      36.089  -2.459  17.661  0.00  0.00    +0.000 OA
ENDBRANCH   1  14
BRANCH  10  20
ATOM     20  C   UNL     1      38.072   3.109  15.110  0.00  0.00    +0.000 C 
ATOM     21  O   UNL     1      38.675   3.267  16.238  0.00  0.00    +0.000 OA
BRANCH  20  22
ATOM     22  C   UNL     1      38.761   2.495  14.011  0.00  0.00    +0.000 A 
ATOM     23  C   UNL     1      40.133   2.403  13.884  0.00  0.00    +0.000 A 
ATOM     24  C   UNL     1      40.650   1.774  12.756  0.00  0.00    +0.000 A 
ATOM     25  C   UNL     1      39.840   1.250  11.777  0.00  0.00    +0.000 A 
ATOM     26  C   UNL     1      38.480   1.361  11.932  0.00  0.00    +0.000 A 
ATOM     27  C   UNL     1      37.930   1.958  13.003  0.00  0.00    +0.000 A 
BRANCH  25  28
ATOM     28  O   UNL     1      40.356   0.611  10.639  0.00  0.00    +0.000 OA
BRANCH  28  29
ATOM     29  C   UNL     1      41.341  -0.404  10.888  0.00  0.00    +0.000 C 
BRANCH  29  30
ATOM     30  C   UNL     1      40.583  -1.734  10.850  0.00  0.00    +0.000 C 
BRANCH  30  31
ATOM     31  N   UNL     1      40.819  -2.426  12.072  0.00  0.00    +0.000 NA
ATOM     32  C   UNL     1      41.970  -1.973  12.813  0.00  0.00    +0.000 C 
ATOM     33  C   UNL     1      41.692  -2.118  14.306  0.00  0.00    +0.000 C 
ATOM     34  C   UNL     1      40.516  -1.232  14.658  0.00  0.00    +0.000 C 
ATOM     35  C   UNL     1      39.315  -1.734  13.875  0.00  0.00    +0.000 C 
ATOM     36  C   UNL     1      39.682  -2.772  12.850  0.00  0.00    +0.000 C 
ENDBRANCH  30  31
ENDBRANCH  29  30
ENDBRANCH  28  29
ENDBRANCH  25  28
ENDBRANCH  20  22
ENDBRANCH  10  20
TORSDOF 7
ENDMDL
MODEL 6
REMARK VINA RESULT:      -7.0      6.245      9.179
REMARK  Name = 
REMARK  7 active torsions:
REMARK  status: ('A' for Active; 'I' for Inactive)
REMARK    1  A    between atoms: C_4  and  C_5
REMARK    2  A    between atoms: C_14  and  C_15
REMARK    3  A    between atoms: C_15  and  C_17
REMARK    4  A    between atoms: C_20  and  O_21
REMARK    5  A    between atoms: O_21  and  C_22
REMARK    6  A    between atoms: C_22  and  C_23
REMARK    7  A    between atoms: C_23  and  N_24
REMARK                            x       y       z     vdW  Elec       q    Type
REMARK                         _______ _______ _______ _____ _____    ______ ____
ROOT
ATOM      1  C   UNL     1      38.735  -2.069  14.841  0.00  0.00    +0.000 A 
ATOM      2  S   UNL     1      37.765  -3.266  15.532  0.00  0.00    +0.000 S 
ATOM      3  C   UNL     1      36.472  -2.286  16.119  0.00  0.00    +0.000 A 
ATOM      4  C   UNL     1      35.277  -2.539  16.798  0.00  0.00    +0.000 A 
ATOM      5  C   UNL     1      34.422  -1.497  17.121  0.00  0.00    +0.000 A 
ATOM      6  O   UNL     1      33.239  -1.755  17.794  0.00  0.00    +0.000 OA
ATOM      7  C   UNL     1      34.826  -0.260  16.740  0.00  0.00    +0.000 A 
ATOM      8  C   UNL     1      35.976   0.004  16.082  0.00  0.00    +0.000 A 
ATOM      9  C   UNL     1      36.870  -1.031  15.735  0.00  0.00    +0.000 A 
ATOM     10  C   UNL     1      38.032  -0.906  15.075  0.00  0.00    +0.000 A 
ENDROOT
BRANCH   1  14
ATOM     11  C   UNL     1      43.698  -1.590  14.599  0.00  0.00    +0.000 C 
ATOM     12  C   UNL     1      42.383  -1.952  13.981  0.00  0.00    +0.000 A 
ATOM     13  C   UNL     1      41.211  -1.860  14.672  0.00  0.00    +0.000 A 
ATOM     14  C   UNL     1      39.987  -2.236  14.107  0.00  0.00    +0.000 A 
ATOM     15  C   UNL     1      40.010  -2.710  12.802  0.00  0.00    +0.000 A 
ATOM     16  C   UNL     1      41.200  -2.805  12.081  0.00  0.00    +0.000 A 
ATOM     17  C   UNL     1      41.199  -3.313  10.659  0.00  0.00    +0.000 C 
ATOM     18  C   UNL     1      42.368  -2.424  12.690  0.00  0.00    +0.000 A 
ATOM     19  O   UNL     1      43.577  -2.523  11.972  0.00  0.00    +0.000 OA
ENDBRANCH   1  14
BRANCH  10  20
ATOM     20  C   UNL     1      38.572   0.345  14.489  0.00  0.00    +0.000 C 
ATOM     21  O   UNL     1      39.470   0.976  15.164  0.00  0.00    +0.000 OA
BRANCH  20  22
ATOM     22  C   UNL     1      38.137   0.858  13.221  0.00  0.00    +0.000 A 
ATOM     23  C   UNL     1      37.361   0.170  12.309  0.00  0.00    +0.000 A 
ATOM     24  C   UNL     1      37.019   0.808  11.122  0.00  0.00    +0.000 A 
ATOM     25  C   UNL     1      37.429   2.089  10.837  0.00  0.00    +0.000 A 
ATOM     26  C   UNL     1      38.202   2.745  11.764  0.00  0.00    +0.000 A 
ATOM     27  C   UNL     1      38.560   2.173  12.927  0.00  0.00    +0.000 A 
BRANCH  25  28
ATOM     28  O   UNL     1      37.084   2.739   9.642  0.00  0.00    +0.000 OA
BRANCH  28  29
ATOM     29  C   UNL     1      38.179   3.294   8.897  0.00  0.00    +0.000 C 
BRANCH  29  30
ATOM     30  C   UNL     1      38.494   2.273   7.801  0.00  0.00    +0.000 C 
BRANCH  30  31
ATOM     31  N   UNL     1      39.834   1.820   7.975  0.00  0.00    +0.000 NA
ATOM     32  C   UNL     1      40.601   2.555   8.950  0.00  0.00    +0.000 C 
ATOM     33  C   UNL     1      41.579   1.606   9.634  0.00  0.00    +0.000 C 
ATOM     34  C   UNL     1      40.781   0.539  10.355  0.00  0.00    +0.000 C 
ATOM     35  C   UNL     1      39.991  -0.227   9.309  0.00  0.00    +0.000 C 
ATOM     36  C   UNL     1      40.051   0.416   7.950  0.00  0.00    +0.000 C 
ENDBRANCH  30  31
ENDBRANCH  29  30
ENDBRANCH  28  29
ENDBRANCH  25  28
ENDBRANCH  20  22
ENDBRANCH  10  20
TORSDOF 7
ENDMDL
MODEL 7
REMARK VINA RESULT:      -6.9      5.182      7.655
REMARK  Name = 
REMARK  7 active torsions:
REMARK  status: ('A' for Active; 'I' for Inactive)
REMARK    1  A    between atoms: C_4  and  C_5
REMARK    2  A    between atoms: C_14  and  C_15
REMARK    3  A    between atoms: C_15  and  C_17
REMARK    4  A    between atoms: C_20  and  O_21
REMARK    5  A    between atoms: O_21  and  C_22
REMARK    6  A    between atoms: C_22  and  C_23
REMARK    7  A    between atoms: C_23  and  N_24
REMARK                            x       y       z     vdW  Elec       q    Type
REMARK                         _______ _______ _______ _____ _____    ______ ____
ROOT
ATOM      1  C   UNL     1      36.446   0.181  15.243  0.00  0.00    +0.000 A 
ATOM      2  S   UNL     1      35.450   1.353  15.940  0.00  0.00    +0.000 S 
ATOM      3  C   UNL     1      35.747   2.665  14.859  0.00  0.00    +0.000 A 
ATOM      4  C   UNL     1      35.285   3.979  14.758  0.00  0.00    +0.000 A 
ATOM      5  C   UNL     1      35.724   4.798  13.729  0.00  0.00    +0.000 A 
ATOM      6  O   UNL     1      35.260   6.099  13.634  0.00  0.00    +0.000 OA
ATOM      7  C   UNL     1      36.605   4.239  12.863  0.00  0.00    +0.000 A 
ATOM      8  C   UNL     1      37.063   2.971  12.944  0.00  0.00    +0.000 A 
ATOM      9  C   UNL     1      36.637   2.109  13.976  0.00  0.00    +0.000 A 
ATOM     10  C   UNL     1      37.003   0.831  14.161  0.00  0.00    +0.000 A 
ENDROOT
BRANCH   1  14
ATOM     11  C   UNL     1      38.822  -3.260  17.970  0.00  0.00    +0.000 C 
ATOM     12  C   UNL     1      37.810  -2.875  16.934  0.00  0.00    +0.000 A 
ATOM     13  C   UNL     1      37.592  -1.575  16.587  0.00  0.00    +0.000 A 
ATOM     14  C   UNL     1      36.620  -1.211  15.649  0.00  0.00    +0.000 A 
ATOM     15  C   UNL     1      35.877  -2.236  15.077  0.00  0.00    +0.000 A 
ATOM     16  C   UNL     1      36.092  -3.571  15.418  0.00  0.00    +0.000 A 
ATOM     17  C   UNL     1      35.280  -4.669  14.774  0.00  0.00    +0.000 C 
ATOM     18  C   UNL     1      37.057  -3.863  16.346  0.00  0.00    +0.000 A 
ATOM     19  O   UNL     1      37.277  -5.209  16.704  0.00  0.00    +0.000 OA
ENDBRANCH   1  14
BRANCH  10  20
ATOM     20  C   UNL     1      37.865   0.029  13.257  0.00  0.00    +0.000 C 
ATOM     21  O   UNL     1      37.389  -0.273  12.099  0.00  0.00    +0.000 OA
BRANCH  20  22
ATOM     22  C   UNL     1      39.181  -0.407  13.626  0.00  0.00    +0.000 A 
ATOM     23  C   UNL     1      40.177   0.407  14.129  0.00  0.00    +0.000 A 
ATOM     24  C   UNL     1      41.403  -0.169  14.442  0.00  0.00    +0.000 A 
ATOM     25  C   UNL     1      41.647  -1.510  14.265  0.00  0.00    +0.000 A 
ATOM     26  C   UNL     1      40.636  -2.292  13.759  0.00  0.00    +0.000 A 
ATOM     27  C   UNL     1      39.432  -1.785  13.442  0.00  0.00    +0.000 A 
BRANCH  25  28
ATOM     28  O   UNL     1      42.881  -2.098  14.582  0.00  0.00    +0.000 OA
BRANCH  28  29
ATOM     29  C   UNL     1      44.037  -1.276  14.355  0.00  0.00    +0.000 C 
BRANCH  29  30
ATOM     30  C   UNL     1      45.244  -2.191  14.576  0.00  0.00    +0.000 C 
BRANCH  30  31
ATOM     31  N   UNL     1      46.262  -1.447  15.240  0.00  0.00    +0.000 NA
ATOM     32  C   UNL     1      46.019  -0.029  15.323  0.00  0.00    +0.000 C 
ATOM     33  C   UNL     1      46.609   0.503  16.626  0.00  0.00    +0.000 C 
ATOM     34  C   UNL     1      45.898  -0.174  17.779  0.00  0.00    +0.000 C 
ATOM     35  C   UNL     1      46.177  -1.663  17.677  0.00  0.00    +0.000 C 
ATOM     36  C   UNL     1      46.853  -2.041  16.387  0.00  0.00    +0.000 C 
ENDBRANCH  30  31
ENDBRANCH  29  30
ENDBRANCH  28  29
ENDBRANCH  25  28
ENDBRANCH  20  22
ENDBRANCH  10  20
TORSDOF 7
ENDMDL
MODEL 8
REMARK VINA RESULT:      -6.8      5.550      7.891
REMARK  Name = 
REMARK  7 active torsions:
REMARK  status: ('A' for Active; 'I' for Inactive)
REMARK    1  A    between atoms: C_4  and  C_5
REMARK    2  A    between atoms: C_14  and  C_15
REMARK    3  A    between atoms: C_15  and  C_17
REMARK    4  A    between atoms: C_20  and  O_21
REMARK    5  A    between atoms: O_21  and  C_22
REMARK    6  A    between atoms: C_22  and  C_23
REMARK    7  A    between atoms: C_23  and  N_24
REMARK                            x       y       z     vdW  Elec       q    Type
REMARK                         _______ _______ _______ _____ _____    ______ ____
ROOT
ATOM      1  C   UNL     1      36.895  -0.300  15.833  0.00  0.00    +0.000 A 
ATOM      2  S   UNL     1      36.180   0.931  16.740  0.00  0.00    +0.000 S 
ATOM      3  C   UNL     1      36.898   2.304  15.980  0.00  0.00    +0.000 A 
ATOM      4  C   UNL     1      36.802   3.687  16.154  0.00  0.00    +0.000 A 
ATOM      5  C   UNL     1      37.524   4.546  15.341  0.00  0.00    +0.000 A 
ATOM      6  O   UNL     1      37.423   5.916  15.519  0.00  0.00    +0.000 OA
ATOM      7  C   UNL     1      38.302   3.957  14.400  0.00  0.00    +0.000 A 
ATOM      8  C   UNL     1      38.408   2.623  14.216  0.00  0.00    +0.000 A 
ATOM      9  C   UNL     1      37.687   1.718  15.022  0.00  0.00    +0.000 A 
ATOM     10  C   UNL     1      37.693   0.378  14.936  0.00  0.00    +0.000 A 
ENDROOT
BRANCH   1  14
ATOM     11  C   UNL     1      34.038  -4.293  14.930  0.00  0.00    +0.000 C 
ATOM     12  C   UNL     1      35.253  -3.658  15.534  0.00  0.00    +0.000 A 
ATOM     13  C   UNL     1      35.513  -2.326  15.400  0.00  0.00    +0.000 A 
ATOM     14  C   UNL     1      36.667  -1.740  15.931  0.00  0.00    +0.000 A 
ATOM     15  C   UNL     1      37.549  -2.574  16.607  0.00  0.00    +0.000 A 
ATOM     16  C   UNL     1      37.294  -3.937  16.755  0.00  0.00    +0.000 A 
ATOM     17  C   UNL     1      38.261  -4.822  17.504  0.00  0.00    +0.000 C 
ATOM     18  C   UNL     1      36.147  -4.453  16.210  0.00  0.00    +0.000 A 
ATOM     19  O   UNL     1      35.884  -5.831  16.349  0.00  0.00    +0.000 OA
ENDBRANCH   1  14
BRANCH  10  20
ATOM     20  C   UNL     1      38.392  -0.426  13.904  0.00  0.00    +0.000 C 
ATOM     21  O   UNL     1      37.745  -0.695  12.823  0.00  0.00    +0.000 OA
BRANCH  20  22
ATOM     22  C   UNL     1      39.736  -0.901  14.070  0.00  0.00    +0.000 A 
ATOM     23  C   UNL     1      40.087  -2.192  14.411  0.00  0.00    +0.000 A 
ATOM     24  C   UNL     1      41.438  -2.498  14.532  0.00  0.00    +0.000 A 
ATOM     25  C   UNL     1      42.420  -1.558  14.325  0.00  0.00    +0.000 A 
ATOM     26  C   UNL     1      42.038  -0.282  13.991  0.00  0.00    +0.000 A 
ATOM     27  C   UNL     1      40.745   0.064  13.860  0.00  0.00    +0.000 A 
BRANCH  25  28
ATOM     28  O   UNL     1      43.785  -1.862  14.443  0.00  0.00    +0.000 OA
BRANCH  28  29
ATOM     29  C   UNL     1      44.553  -0.966  15.261  0.00  0.00    +0.000 C 
BRANCH  29  30
ATOM     30  C   UNL     1      45.989  -1.494  15.218  0.00  0.00    +0.000 C 
BRANCH  30  31
ATOM     31  N   UNL     1      46.699  -0.971  16.338  0.00  0.00    +0.000 NA
ATOM     32  C   UNL     1      45.935  -0.083  17.178  0.00  0.00    +0.000 C 
ATOM     33  C   UNL     1      46.396  -0.244  18.624  0.00  0.00    +0.000 C 
ATOM     34  C   UNL     1      46.119  -1.669  19.054  0.00  0.00    +0.000 C 
ATOM     35  C   UNL     1      46.940  -2.584  18.163  0.00  0.00    +0.000 C 
ATOM     36  C   UNL     1      47.582  -1.854  17.014  0.00  0.00    +0.000 C 
ENDBRANCH  30  31
ENDBRANCH  29  30
ENDBRANCH  28  29
ENDBRANCH  25  28
ENDBRANCH  20  22
ENDBRANCH  10  20
TORSDOF 7
ENDMDL
MODEL 9
REMARK VINA RESULT:      -6.8      4.549      9.177
REMARK  Name = 
REMARK  7 active torsions:
REMARK  status: ('A' for Active; 'I' for Inactive)
REMARK    1  A    between atoms: C_4  and  C_5
REMARK    2  A    between atoms: C_14  and  C_15
REMARK    3  A    between atoms: C_15  and  C_17
REMARK    4  A    between atoms: C_20  and  O_21
REMARK    5  A    between atoms: O_21  and  C_22
REMARK    6  A    between atoms: C_22  and  C_23
REMARK    7  A    between atoms: C_23  and  N_24
REMARK                            x       y       z     vdW  Elec       q    Type
REMARK                         _______ _______ _______ _____ _____    ______ ____
ROOT
ATOM      1  C   UNL     1      36.188   0.688  15.435  0.00  0.00    +0.000 A 
ATOM      2  S   UNL     1      35.352  -0.178  16.619  0.00  0.00    +0.000 S 
ATOM      3  C   UNL     1      35.592  -1.781  16.027  0.00  0.00    +0.000 A 
ATOM      4  C   UNL     1      35.216  -3.056  16.460  0.00  0.00    +0.000 A 
ATOM      5  C   UNL     1      35.593  -4.178  15.739  0.00  0.00    +0.000 A 
ATOM      6  O   UNL     1      35.219  -5.438  16.175  0.00  0.00    +0.000 OA
ATOM      7  C   UNL     1      36.328  -3.946  14.623  0.00  0.00    +0.000 A 
ATOM      8  C   UNL     1      36.701  -2.723  14.190  0.00  0.00    +0.000 A 
ATOM      9  C   UNL     1      36.337  -1.558  14.897  0.00  0.00    +0.000 A 
ATOM     10  C   UNL     1      36.652  -0.291  14.583  0.00  0.00    +0.000 A 
ENDROOT
BRANCH   1  14
ATOM     11  C   UNL     1      34.776   5.232  13.926  0.00  0.00    +0.000 C 
ATOM     12  C   UNL     1      35.757   4.316  14.590  0.00  0.00    +0.000 A 
ATOM     13  C   UNL     1      35.525   2.978  14.714  0.00  0.00    +0.000 A 
ATOM     14  C   UNL     1      36.423   2.128  15.370  0.00  0.00    +0.000 A 
ATOM     15  C   UNL     1      37.573   2.705  15.895  0.00  0.00    +0.000 A 
ATOM     16  C   UNL     1      37.825   4.071  15.772  0.00  0.00    +0.000 A 
ATOM     17  C   UNL     1      39.087   4.673  16.341  0.00  0.00    +0.000 C 
ATOM     18  C   UNL     1      36.906   4.852  15.121  0.00  0.00    +0.000 A 
ATOM     19  O   UNL     1      37.149   6.235  14.998  0.00  0.00    +0.000 OA
ENDBRANCH   1  14
BRANCH  10  20
ATOM     20  C   UNL     1      37.534   0.138  13.470  0.00  0.00    +0.000 C 
ATOM     21  O   UNL     1      36.967   0.519  12.377  0.00  0.00    +0.000 OA
BRANCH  20  22
ATOM     22  C   UNL     1      38.966   0.144  13.573  0.00  0.00    +0.000 A 
ATOM     23  C   UNL     1      39.700  -0.589  14.485  0.00  0.00    +0.000 A 
ATOM     24  C   UNL     1      41.086  -0.477  14.457  0.00  0.00    +0.000 A 
ATOM     25  C   UNL     1      41.734   0.335  13.557  0.00  0.00    +0.000 A 
ATOM     26  C   UNL     1      40.975   1.053  12.665  0.00  0.00    +0.000 A 
ATOM     27  C   UNL     1      39.633   0.979  12.650  0.00  0.00    +0.000 A 
BRANCH  25  28
ATOM     28  O   UNL     1      43.133   0.449  13.522  0.00  0.00    +0.000 OA
BRANCH  28  29
ATOM     29  C   UNL     1      43.850  -0.770  13.275  0.00  0.00    +0.000 C 
BRANCH  29  30
ATOM     30  C   UNL     1      43.985  -0.870  11.753  0.00  0.00    +0.000 C 
BRANCH  30  31
ATOM     31  N   UNL     1      43.371  -2.080  11.321  0.00  0.00    +0.000 NA
ATOM     32  C   UNL     1      42.828  -2.895  12.379  0.00  0.00    +0.000 C 
ATOM     33  C   UNL     1      41.587  -3.619  11.865  0.00  0.00    +0.000 C 
ATOM     34  C   UNL     1      40.555  -2.579  11.481  0.00  0.00    +0.000 C 
ATOM     35  C   UNL     1      41.145  -1.741  10.361  0.00  0.00    +0.000 C 
ATOM     36  C   UNL     1      42.604  -2.027  10.127  0.00  0.00    +0.000 C 
ENDBRANCH  30  31
ENDBRANCH  29  30
ENDBRANCH  28  29
ENDBRANCH  25  28
ENDBRANCH  20  22
ENDBRANCH  10  20
TORSDOF 7
ENDMDL
MODEL 10
REMARK VINA RESULT:      -6.7      3.993      7.128
REMARK  Name = 
REMARK  7 active torsions:
REMARK  status: ('A' for Active; 'I' for Inactive)
REMARK    1  A    between atoms: C_4  and  C_5
REMARK    2  A    between atoms: C_14  and  C_15
REMARK    3  A    between atoms: C_15  and  C_17
REMARK    4  A    between atoms: C_20  and  O_21
REMARK    5  A    between atoms: O_21  and  C_22
REMARK    6  A    between atoms: C_22  and  C_23
REMARK    7  A    between atoms: C_23  and  N_24
REMARK                            x       y       z     vdW  Elec       q    Type
REMARK                         _______ _______ _______ _____ _____    ______ ____
ROOT
ATOM      1  C   UNL     1      38.722  -1.837  15.026  0.00  0.00    +0.000 A 
ATOM      2  S   UNL     1      40.112  -2.566  15.647  0.00  0.00    +0.000 S 
ATOM      3  C   UNL     1      41.278  -1.973  14.521  0.00  0.00    +0.000 A 
ATOM      4  C   UNL     1      42.659  -2.118  14.367  0.00  0.00    +0.000 A 
ATOM      5  C   UNL     1      43.318  -1.476  13.331  0.00  0.00    +0.000 A 
ATOM      6  O   UNL     1      44.688  -1.624  13.184  0.00  0.00    +0.000 OA
ATOM      7  C   UNL     1      42.543  -0.725  12.511  0.00  0.00    +0.000 A 
ATOM      8  C   UNL     1      41.207  -0.571  12.644  0.00  0.00    +0.000 A 
ATOM      9  C   UNL     1      40.503  -1.208  13.687  0.00  0.00    +0.000 A 
ATOM     10  C   UNL     1      39.186  -1.128  13.937  0.00  0.00    +0.000 A 
ENDROOT
BRANCH   1  14
ATOM     11  C   UNL     1      35.284  -0.206  18.258  0.00  0.00    +0.000 C 
ATOM     12  C   UNL     1      35.722  -1.128  17.161  0.00  0.00    +0.000 A 
ATOM     13  C   UNL     1      36.967  -1.053  16.610  0.00  0.00    +0.000 A 
ATOM     14  C   UNL     1      37.363  -1.887  15.558  0.00  0.00    +0.000 A 
ATOM     15  C   UNL     1      36.431  -2.805  15.092  0.00  0.00    +0.000 A 
ATOM     16  C   UNL     1      35.155  -2.895  15.648  0.00  0.00    +0.000 A 
ATOM     17  C   UNL     1      34.162  -3.909  15.132  0.00  0.00    +0.000 C 
ATOM     18  C   UNL     1      34.826  -2.049  16.675  0.00  0.00    +0.000 A 
ATOM     19  O   UNL     1      33.536  -2.128  17.239  0.00  0.00    +0.000 OA
ENDBRANCH   1  14
BRANCH  10  20
ATOM     20  C   UNL     1      38.211  -0.272  13.218  0.00  0.00    +0.000 C 
ATOM     21  O   UNL     1      37.727  -0.724  12.113  0.00  0.00    +0.000 OA
BRANCH  20  22
ATOM     22  C   UNL     1      37.800   1.014  13.706  0.00  0.00    +0.000 A 
ATOM     23  C   UNL     1      38.652   1.998  14.167  0.00  0.00    +0.000 A 
ATOM     24  C   UNL     1      38.098   3.196  14.606  0.00  0.00    +0.000 A 
ATOM     25  C   UNL     1      36.742   3.420  14.595  0.00  0.00    +0.000 A 
ATOM     26  C   UNL     1      35.922   2.419  14.134  0.00  0.00    +0.000 A 
ATOM     27  C   UNL     1      36.407   1.244  13.697  0.00  0.00    +0.000 A 
BRANCH  25  28
ATOM     28  O   UNL     1      36.178   4.628  15.034  0.00  0.00    +0.000 OA
BRANCH  28  29
ATOM     29  C   UNL     1      35.004   5.058  14.329  0.00  0.00    +0.000 C 
BRANCH  29  30
ATOM     30  C   UNL     1      35.503   6.002  13.232  0.00  0.00    +0.000 C 
BRANCH  30  31
ATOM     31  N   UNL     1      34.772   7.222  13.315  0.00  0.00    +0.000 NA
ATOM     32  C   UNL     1      33.772   7.260  14.354  0.00  0.00    +0.000 C 
ATOM     33  C   UNL     1      33.664   8.683  14.891  0.00  0.00    +0.000 C 
ATOM     34  C   UNL     1      34.999   9.064  15.496  0.00  0.00    +0.000 C 
ATOM     35  C   UNL     1      36.032   9.028  14.384  0.00  0.00    +0.000 C 
ATOM     36  C   UNL     1      35.497   8.427  13.113  0.00  0.00    +0.000 C 
ENDBRANCH  30  31
ENDBRANCH  29  30
ENDBRANCH  28  29
ENDBRANCH  25  28
ENDBRANCH  20  22
ENDBRANCH  10  20
TORSDOF 7
ENDMDL
