MODEL 1
REMARK VINA RESULT:      -6.7      0.000      0.000
REMARK  Name = 
REMARK  4 active torsions:
REMARK  status: ('A' for Active; 'I' for Inactive)
REMARK    1  A    between atoms: N_2  and  C_3
REMARK    2  A    between atoms: N_2  and  C_14
REMARK    3  A    between atoms: C_3  and  N_5
REMARK    4  A    between atoms: C_6  and  C_8
REMARK                            x       y       z     vdW  Elec       q    Type
REMARK                         _______ _______ _______ _____ _____    ______ ____
ROOT
ATOM      1  C   UNL     1      16.726  10.455  35.781  0.00  0.00    +0.000 C 
ATOM      2  S   UNL     1      17.593   9.174  35.284  0.00  0.00    +0.000 S 
ENDROOT
BRANCH   1   3
ATOM      3  N   UNL     1      15.652  10.914  34.985  0.00  0.00    +0.000 NA
ATOM      4  C   UNL     1      15.872  11.673  33.808  0.00  0.00    +0.000 C 
ATOM      5  O   UNL     1      17.117  11.894  33.550  0.00  0.00    +0.000 OA
BRANCH   4   6
ATOM      6  C   UNL     1      14.920  12.215  32.885  0.00  0.00    +0.000 C 
ATOM      7  C   UNL     1      14.628  11.489  31.640  0.00  0.00    +0.000 C 
ATOM      8  C   UNL     1      14.595  12.497  30.490  0.00  0.00    +0.000 C 
ATOM      9  C   UNL     1      13.591  13.607  30.809  0.00  0.00    +0.000 C 
ATOM     10  C   UNL     1      13.913  14.277  32.104  0.00  0.00    +0.000 C 
ATOM     11  C   UNL     1      14.006  13.281  33.270  0.00  0.00    +0.000 C 
ENDBRANCH   4   6
ENDBRANCH   1   3
BRANCH   1  13
ATOM     12  C   UNL     1      17.818  12.338  37.072  0.00  0.00    +0.000 C 
ATOM     13  N   UNL     1      17.066  11.105  36.996  0.00  0.00    +0.000 N 
BRANCH  13  14
ATOM     14  C   UNL     1      16.674  10.551  38.263  0.00  0.00    +0.000 A 
ATOM     15  C   UNL     1      17.687   9.969  38.996  0.00  0.00    +0.000 A 
ATOM     16  C   UNL     1      17.410   9.409  40.220  0.00  0.00    +0.000 A 
ATOM     17  C   UNL     1      16.132   9.400  40.776  0.00  0.00    +0.000 A 
ATOM     18  O   UNL     1      15.896   8.826  42.016  0.00  0.00    +0.000 OA
ATOM     19  C   UNL     1      15.135   9.999  40.009  0.00  0.00    +0.000 A 
ATOM     20  C   UNL     1      15.408  10.567  38.763  0.00  0.00    +0.000 A 
ENDBRANCH  13  14
ENDBRANCH   1  13
TORSDOF 4
ENDMDL
MODEL 2
REMARK VINA RESULT:      -6.6     21.959     23.661
REMARK  Name = 
REMARK  4 active torsions:
REMARK  status: ('A' for Active; 'I' for Inactive)
REMARK    1  A    between atoms: N_2  and  C_3
REMARK    2  A    between atoms: N_2  and  C_14
REMARK    3  A    between atoms: C_3  and  N_5
REMARK    4  A    between atoms: C_6  and  C_8
REMARK                            x       y       z     vdW  Elec       q    Type
REMARK                         _______ _______ _______ _____ _____    ______ ____
ROOT
ATOM      1  C   UNL     1      33.246  -2.958  34.328  0.00  0.00    +0.000 C 
ATOM      2  S   UNL     1      32.142  -3.491  35.392  0.00  0.00    +0.000 S 
ENDROOT
BRANCH   1   3
ATOM      3  N   UNL     1      33.312  -3.549  33.046  0.00  0.00    +0.000 NA
ATOM      4  C   UNL     1      34.110  -4.695  32.796  0.00  0.00    +0.000 C 
ATOM      5  O   UNL     1      34.749  -5.126  33.831  0.00  0.00    +0.000 OA
BRANCH   4   6
ATOM      6  C   UNL     1      34.297  -5.425  31.577  0.00  0.00    +0.000 C 
ATOM      7  C   UNL     1      33.407  -5.162  30.436  0.00  0.00    +0.000 C 
ATOM      8  C   UNL     1      32.992  -6.504  29.830  0.00  0.00    +0.000 C 
ATOM      9  C   UNL     1      34.240  -7.313  29.470  0.00  0.00    +0.000 C 
ATOM     10  C   UNL     1      35.124  -7.508  30.657  0.00  0.00    +0.000 C 
ATOM     11  C   UNL     1      35.515  -6.178  31.320  0.00  0.00    +0.000 C 
ENDBRANCH   4   6
ENDBRANCH   1   3
BRANCH   1  13
ATOM     12  C   UNL     1      35.212  -2.081  35.658  0.00  0.00    +0.000 C 
ATOM     13  N   UNL     1      34.140  -1.920  34.702  0.00  0.00    +0.000 N 
BRANCH  13  14
ATOM     14  C   UNL     1      34.019  -0.605  34.135  0.00  0.00    +0.000 A 
ATOM     15  C   UNL     1      33.597   0.379  35.004  0.00  0.00    +0.000 A 
ATOM     16  C   UNL     1      33.448   1.670  34.555  0.00  0.00    +0.000 A 
ATOM     17  C   UNL     1      33.710   2.048  33.240  0.00  0.00    +0.000 A 
ATOM     18  O   UNL     1      33.549   3.362  32.827  0.00  0.00    +0.000 OA
ATOM     19  C   UNL     1      34.137   1.028  32.392  0.00  0.00    +0.000 A 
ATOM     20  C   UNL     1      34.288  -0.286  32.839  0.00  0.00    +0.000 A 
ENDBRANCH  13  14
ENDBRANCH   1  13
TORSDOF 4
ENDMDL
MODEL 3
REMARK VINA RESULT:      -6.4      1.805      2.420
REMARK  Name = 
REMARK  4 active torsions:
REMARK  status: ('A' for Active; 'I' for Inactive)
REMARK    1  A    between atoms: N_2  and  C_3
REMARK    2  A    between atoms: N_2  and  C_14
REMARK    3  A    between atoms: C_3  and  N_5
REMARK    4  A    between atoms: C_6  and  C_8
REMARK                            x       y       z     vdW  Elec       q    Type
REMARK                         _______ _______ _______ _____ _____    ______ ____
ROOT
ATOM      1  C   UNL     1      16.688  10.091  35.697  0.00  0.00    +0.000 C 
ATOM      2  S   UNL     1      17.834   8.973  35.421  0.00  0.00    +0.000 S 
ENDROOT
BRANCH   1   3
ATOM      3  N   UNL     1      15.857  10.506  34.632  0.00  0.00    +0.000 NA
ATOM      4  C   UNL     1      16.247  11.538  33.743  0.00  0.00    +0.000 C 
ATOM      5  O   UNL     1      17.407  12.043  34.001  0.00  0.00    +0.000 OA
BRANCH   4   6
ATOM      6  C   UNL     1      15.547  12.084  32.618  0.00  0.00    +0.000 C 
ATOM      7  C   UNL     1      16.076  11.866  31.264  0.00  0.00    +0.000 C 
ATOM      8  C   UNL     1      15.995  13.186  30.497  0.00  0.00    +0.000 C 
ATOM      9  C   UNL     1      14.557  13.709  30.523  0.00  0.00    +0.000 C 
ATOM     10  C   UNL     1      14.061  13.868  31.921  0.00  0.00    +0.000 C 
ATOM     11  C   UNL     1      14.179  12.569  32.735  0.00  0.00    +0.000 C 
ENDBRANCH   4   6
ENDBRANCH   1   3
BRANCH   1  13
ATOM     12  C   UNL     1      15.301  11.152  37.529  0.00  0.00    +0.000 C 
ATOM     13  N   UNL     1      16.547  10.648  36.995  0.00  0.00    +0.000 N 
BRANCH  13  14
ATOM     14  C   UNL     1      17.676  10.752  37.878  0.00  0.00    +0.000 A 
ATOM     15  C   UNL     1      18.540  11.795  37.616  0.00  0.00    +0.000 A 
ATOM     16  C   UNL     1      19.652  11.976  38.404  0.00  0.00    +0.000 A 
ATOM     17  C   UNL     1      19.959  11.146  39.481  0.00  0.00    +0.000 A 
ATOM     18  O   UNL     1      21.090  11.364  40.253  0.00  0.00    +0.000 OA
ATOM     19  C   UNL     1      19.062  10.106  39.716  0.00  0.00    +0.000 A 
ATOM     20  C   UNL     1      17.932   9.913  38.919  0.00  0.00    +0.000 A 
ENDBRANCH  13  14
ENDBRANCH   1  13
TORSDOF 4
ENDMDL
MODEL 4
REMARK VINA RESULT:      -5.9      3.543      6.862
REMARK  Name = 
REMARK  4 active torsions:
REMARK  status: ('A' for Active; 'I' for Inactive)
REMARK    1  A    between atoms: N_2  and  C_3
REMARK    2  A    between atoms: N_2  and  C_14
REMARK    3  A    between atoms: C_3  and  N_5
REMARK    4  A    between atoms: C_6  and  C_8
REMARK                            x       y       z     vdW  Elec       q    Type
REMARK                         _______ _______ _______ _____ _____    ______ ____
ROOT
ATOM      1  C   UNL     1      18.260  10.102  38.019  0.00  0.00    +0.000 C 
ATOM      2  S   UNL     1      18.398   8.797  38.976  0.00  0.00    +0.000 S 
ENDROOT
BRANCH   1   3
ATOM      3  N   UNL     1      18.874  11.313  38.408  0.00  0.00    +0.000 NA
ATOM      4  C   UNL     1      20.216  11.610  38.061  0.00  0.00    +0.000 C 
ATOM      5  O   UNL     1      20.798  10.687  37.373  0.00  0.00    +0.000 OA
BRANCH   4   6
ATOM      6  C   UNL     1      20.997  12.774  38.361  0.00  0.00    +0.000 C 
ATOM      7  C   UNL     1      22.464  12.679  38.355  0.00  0.00    +0.000 C 
ATOM      8  C   UNL     1      23.000  13.412  39.586  0.00  0.00    +0.000 C 
ATOM      9  C   UNL     1      22.472  14.848  39.599  0.00  0.00    +0.000 C 
ATOM     10  C   UNL     1      20.980  14.881  39.559  0.00  0.00    +0.000 C 
ATOM     11  C   UNL     1      20.410  14.106  38.361  0.00  0.00    +0.000 C 
ENDBRANCH   4   6
ENDBRANCH   1   3
BRANCH   1  13
ATOM     12  C   UNL     1      17.876   9.180  35.693  0.00  0.00    +0.000 C 
ATOM     13  N   UNL     1      17.511  10.015  36.816  0.00  0.00    +0.000 N 
BRANCH  13  14
ATOM     14  C   UNL     1      16.310  10.785  36.638  0.00  0.00    +0.000 A 
ATOM     15  C   UNL     1      15.473  10.840  37.733  0.00  0.00    +0.000 A 
ATOM     16  C   UNL     1      14.299  11.550  37.661  0.00  0.00    +0.000 A 
ATOM     17  C   UNL     1      13.899  12.235  36.515  0.00  0.00    +0.000 A 
ATOM     18  O   UNL     1      12.706  12.942  36.484  0.00  0.00    +0.000 OA
ATOM     19  C   UNL     1      14.770  12.159  35.431  0.00  0.00    +0.000 A 
ATOM     20  C   UNL     1      15.964  11.438  35.495  0.00  0.00    +0.000 A 
ENDBRANCH  13  14
ENDBRANCH   1  13
TORSDOF 4
ENDMDL
MODEL 5
REMARK VINA RESULT:      -5.9     22.184     24.071
REMARK  Name = 
REMARK  4 active torsions:
REMARK  status: ('A' for Active; 'I' for Inactive)
REMARK    1  A    between atoms: N_2  and  C_3
REMARK    2  A    between atoms: N_2  and  C_14
REMARK    3  A    between atoms: C_3  and  N_5
REMARK    4  A    between atoms: C_6  and  C_8
REMARK                            x       y       z     vdW  Elec       q    Type
REMARK                         _______ _______ _______ _____ _____    ______ ____
ROOT
ATOM      1  C   UNL     1      32.696  -5.020  34.150  0.00  0.00    +0.000 C 
ATOM      2  S   UNL     1      31.601  -5.636  35.179  0.00  0.00    +0.000 S 
ENDROOT
BRANCH   1   3
ATOM      3  N   UNL     1      32.761  -3.621  33.966  0.00  0.00    +0.000 NA
ATOM      4  C   UNL     1      33.716  -2.825  34.647  0.00  0.00    +0.000 C 
ATOM      5  O   UNL     1      34.496  -3.494  35.428  0.00  0.00    +0.000 OA
BRANCH   4   6
ATOM      6  C   UNL     1      33.932  -1.410  34.585  0.00  0.00    +0.000 C 
ATOM      7  C   UNL     1      34.438  -0.705  35.772  0.00  0.00    +0.000 C 
ATOM      8  C   UNL     1      33.634   0.584  35.947  0.00  0.00    +0.000 C 
ATOM      9  C   UNL     1      33.701   1.410  34.661  0.00  0.00    +0.000 C 
ATOM     10  C   UNL     1      33.216   0.628  33.485  0.00  0.00    +0.000 C 
ATOM     11  C   UNL     1      33.971  -0.700  33.315  0.00  0.00    +0.000 C 
ENDBRANCH   4   6
ENDBRANCH   1   3
BRANCH   1  13
ATOM     12  C   UNL     1      34.490  -6.803  34.068  0.00  0.00    +0.000 C 
ATOM     13  N   UNL     1      33.560  -5.893  33.438  0.00  0.00    +0.000 N 
BRANCH  13  14
ATOM     14  C   UNL     1      33.562  -5.916  32.001  0.00  0.00    +0.000 A 
ATOM     15  C   UNL     1      32.339  -6.152  31.409  0.00  0.00    +0.000 A 
ATOM     16  C   UNL     1      32.240  -6.195  30.039  0.00  0.00    +0.000 A 
ATOM     17  C   UNL     1      33.332  -6.006  29.195  0.00  0.00    +0.000 A 
ATOM     18  O   UNL     1      33.189  -6.056  27.817  0.00  0.00    +0.000 OA
ATOM     19  C   UNL     1      34.550  -5.768  29.828  0.00  0.00    +0.000 A 
ATOM     20  C   UNL     1      34.660  -5.725  31.219  0.00  0.00    +0.000 A 
ENDBRANCH  13  14
ENDBRANCH   1  13
TORSDOF 4
ENDMDL
MODEL 6
REMARK VINA RESULT:      -5.7     22.315     23.886
REMARK  Name = 
REMARK  4 active torsions:
REMARK  status: ('A' for Active; 'I' for Inactive)
REMARK    1  A    between atoms: N_2  and  C_3
REMARK    2  A    between atoms: N_2  and  C_14
REMARK    3  A    between atoms: C_3  and  N_5
REMARK    4  A    between atoms: C_6  and  C_8
REMARK                            x       y       z     vdW  Elec       q    Type
REMARK                         _______ _______ _______ _____ _____    ______ ____
ROOT
ATOM      1  C   UNL     1      32.026  -5.225  34.496  0.00  0.00    +0.000 C 
ATOM      2  S   UNL     1      30.968  -6.103  35.361  0.00  0.00    +0.000 S 
ENDROOT
BRANCH   1   3
ATOM      3  N   UNL     1      32.090  -5.403  33.096  0.00  0.00    +0.000 NA
ATOM      4  C   UNL     1      33.103  -6.190  32.492  0.00  0.00    +0.000 C 
ATOM      5  O   UNL     1      33.934  -6.710  33.332  0.00  0.00    +0.000 OA
BRANCH   4   6
ATOM      6  C   UNL     1      33.323  -6.483  31.107  0.00  0.00    +0.000 C 
ATOM      7  C   UNL     1      33.636  -7.861  30.703  0.00  0.00    +0.000 C 
ATOM      8  C   UNL     1      34.783  -7.819  29.692  0.00  0.00    +0.000 C 
ATOM      9  C   UNL     1      34.408  -6.902  28.526  0.00  0.00    +0.000 C 
ATOM     10  C   UNL     1      34.058  -5.531  29.002  0.00  0.00    +0.000 C 
ATOM     11  C   UNL     1      32.943  -5.546  30.060  0.00  0.00    +0.000 C 
ENDBRANCH   4   6
ENDBRANCH   1   3
BRANCH   1  13
ATOM     12  C   UNL     1      33.716  -4.643  36.287  0.00  0.00    +0.000 C 
ATOM     13  N   UNL     1      32.882  -4.304  35.156  0.00  0.00    +0.000 N 
BRANCH  13  14
ATOM     14  C   UNL     1      32.963  -2.935  34.726  0.00  0.00    +0.000 A 
ATOM     15  C   UNL     1      32.122  -2.057  35.377  0.00  0.00    +0.000 A 
ATOM     16  C   UNL     1      32.125  -0.726  35.034  0.00  0.00    +0.000 A 
ATOM     17  C   UNL     1      32.953  -0.203  34.044  0.00  0.00    +0.000 A 
ATOM     18  O   UNL     1      32.927   1.147  33.729  0.00  0.00    +0.000 OA
ATOM     19  C   UNL     1      33.791  -1.118  33.410  0.00  0.00    +0.000 A 
ATOM     20  C   UNL     1      33.792  -2.472  33.751  0.00  0.00    +0.000 A 
ENDBRANCH  13  14
ENDBRANCH   1  13
TORSDOF 4
ENDMDL
MODEL 7
REMARK VINA RESULT:      -5.7     18.079     20.027
REMARK  Name = 
REMARK  4 active torsions:
REMARK  status: ('A' for Active; 'I' for Inactive)
REMARK    1  A    between atoms: N_2  and  C_3
REMARK    2  A    between atoms: N_2  and  C_14
REMARK    3  A    between atoms: C_3  and  N_5
REMARK    4  A    between atoms: C_6  and  C_8
REMARK                            x       y       z     vdW  Elec       q    Type
REMARK                         _______ _______ _______ _____ _____    ______ ____
ROOT
ATOM      1  C   UNL     1      28.470  23.063  30.070  0.00  0.00    +0.000 C 
ATOM      2  S   UNL     1      29.106  23.789  31.377  0.00  0.00    +0.000 S 
ENDROOT
BRANCH   1   3
ATOM      3  N   UNL     1      29.326  22.651  29.024  0.00  0.00    +0.000 NA
ATOM      4  C   UNL     1      29.768  23.556  28.026  0.00  0.00    +0.000 C 
ATOM      5  O   UNL     1      29.319  24.757  28.170  0.00  0.00    +0.000 OA
BRANCH   4   6
ATOM      6  C   UNL     1      30.629  23.324  26.904  0.00  0.00    +0.000 C 
ATOM      7  C   UNL     1      31.985  23.892  26.906  0.00  0.00    +0.000 C 
ATOM      8  C   UNL     1      32.256  24.495  25.528  0.00  0.00    +0.000 C 
ATOM      9  C   UNL     1      32.031  23.434  24.448  0.00  0.00    +0.000 C 
ATOM     10  C   UNL     1      30.654  22.863  24.525  0.00  0.00    +0.000 C 
ATOM     11  C   UNL     1      30.332  22.296  25.916  0.00  0.00    +0.000 C 
ENDBRANCH   4   6
ENDBRANCH   1   3
BRANCH   1  13
ATOM     12  C   UNL     1      26.389  21.669  30.432  0.00  0.00    +0.000 C 
ATOM     13  N   UNL     1      27.067  22.867  29.988  0.00  0.00    +0.000 N 
BRANCH  13  14
ATOM     14  C   UNL     1      26.213  23.880  29.432  0.00  0.00    +0.000 A 
ATOM     15  C   UNL     1      25.972  23.776  28.078  0.00  0.00    +0.000 A 
ATOM     16  C   UNL     1      25.169  24.701  27.454  0.00  0.00    +0.000 A 
ATOM     17  C   UNL     1      24.569  25.761  28.131  0.00  0.00    +0.000 A 
ATOM     18  O   UNL     1      23.764  26.672  27.464  0.00  0.00    +0.000 OA
ATOM     19  C   UNL     1      24.833  25.832  29.497  0.00  0.00    +0.000 A 
ATOM     20  C   UNL     1      25.650  24.899  30.138  0.00  0.00    +0.000 A 
ENDBRANCH  13  14
ENDBRANCH   1  13
TORSDOF 4
ENDMDL
MODEL 8
REMARK VINA RESULT:      -5.7      3.326      7.202
REMARK  Name = 
REMARK  4 active torsions:
REMARK  status: ('A' for Active; 'I' for Inactive)
REMARK    1  A    between atoms: N_2  and  C_3
REMARK    2  A    between atoms: N_2  and  C_14
REMARK    3  A    between atoms: C_3  and  N_5
REMARK    4  A    between atoms: C_6  and  C_8
REMARK                            x       y       z     vdW  Elec       q    Type
REMARK                         _______ _______ _______ _____ _____    ______ ____
ROOT
ATOM      1  C   UNL     1      17.363  10.414  36.487  0.00  0.00    +0.000 C 
ATOM      2  S   UNL     1      17.781  10.066  34.956  0.00  0.00    +0.000 S 
ENDROOT
BRANCH   1   3
ATOM      3  N   UNL     1      17.691   9.504  37.517  0.00  0.00    +0.000 NA
ATOM      4  C   UNL     1      18.839   9.683  38.329  0.00  0.00    +0.000 C 
ATOM      5  O   UNL     1      19.531  10.732  38.036  0.00  0.00    +0.000 OA
BRANCH   4   6
ATOM      6  C   UNL     1      19.324   8.875  39.409  0.00  0.00    +0.000 C 
ATOM      7  C   UNL     1      20.559   9.268  40.103  0.00  0.00    +0.000 C 
ATOM      8  C   UNL     1      21.418   8.018  40.302  0.00  0.00    +0.000 C 
ATOM      9  C   UNL     1      20.606   6.948  41.038  0.00  0.00    +0.000 C 
ATOM     10  C   UNL     1      19.345   6.625  40.308  0.00  0.00    +0.000 C 
ATOM     11  C   UNL     1      18.485   7.871  40.046  0.00  0.00    +0.000 C 
ENDBRANCH   4   6
ENDBRANCH   1   3
BRANCH   1  13
ATOM     12  C   UNL     1      17.281  12.919  36.836  0.00  0.00    +0.000 C 
ATOM     13  N   UNL     1      16.660  11.615  36.768  0.00  0.00    +0.000 N 
BRANCH  13  14
ATOM     14  C   UNL     1      15.245  11.600  37.015  0.00  0.00    +0.000 A 
ATOM     15  C   UNL     1      14.474  12.278  36.094  0.00  0.00    +0.000 A 
ATOM     16  C   UNL     1      13.108  12.322  36.246  0.00  0.00    +0.000 A 
ATOM     17  C   UNL     1      12.445  11.703  37.303  0.00  0.00    +0.000 A 
ATOM     18  O   UNL     1      11.064  11.771  37.419  0.00  0.00    +0.000 OA
ATOM     19  C   UNL     1      13.255  11.026  38.212  0.00  0.00    +0.000 A 
ATOM     20  C   UNL     1      14.643  10.978  38.066  0.00  0.00    +0.000 A 
ENDBRANCH  13  14
ENDBRANCH   1  13
TORSDOF 4
ENDMDL
MODEL 9
REMARK VINA RESULT:      -5.5     19.469     21.931
REMARK  Name = 
REMARK  4 active torsions:
REMARK  status: ('A' for Active; 'I' for Inactive)
REMARK    1  A    between atoms: N_2  and  C_3
REMARK    2  A    between atoms: N_2  and  C_14
REMARK    3  A    between atoms: C_3  and  N_5
REMARK    4  A    between atoms: C_6  and  C_8
REMARK                            x       y       z     vdW  Elec       q    Type
REMARK                         _______ _______ _______ _____ _____    ______ ____
ROOT
ATOM      1  C   UNL     1      26.887  25.754  26.404  0.00  0.00    +0.000 C 
ATOM      2  S   UNL     1      26.171  26.901  27.304  0.00  0.00    +0.000 S 
ENDROOT
BRANCH   1   3
ATOM      3  N   UNL     1      28.063  25.134  26.883  0.00  0.00    +0.000 NA
ATOM      4  C   UNL     1      28.039  23.841  27.461  0.00  0.00    +0.000 C 
ATOM      5  O   UNL     1      26.865  23.305  27.503  0.00  0.00    +0.000 OA
BRANCH   4   6
ATOM      6  C   UNL     1      29.118  23.061  27.992  0.00  0.00    +0.000 C 
ATOM      7  C   UNL     1      29.228  22.879  29.447  0.00  0.00    +0.000 C 
ATOM      8  C   UNL     1      30.692  23.073  29.847  0.00  0.00    +0.000 C 
ATOM      9  C   UNL     1      31.577  22.124  29.035  0.00  0.00    +0.000 C 
ATOM     10  C   UNL     1      31.388  22.324  27.568  0.00  0.00    +0.000 C 
ATOM     11  C   UNL     1      29.917  22.189  27.144  0.00  0.00    +0.000 C 
ENDBRANCH   4   6
ENDBRANCH   1   3
BRANCH   1  13
ATOM     12  C   UNL     1      24.916  25.347  24.870  0.00  0.00    +0.000 C 
ATOM     13  N   UNL     1      26.334  25.401  25.145  0.00  0.00    +0.000 N 
BRANCH  13  14
ATOM     14  C   UNL     1      27.184  25.060  24.037  0.00  0.00    +0.000 A 
ATOM     15  C   UNL     1      27.748  26.129  23.371  0.00  0.00    +0.000 A 
ATOM     16  C   UNL     1      28.574  25.904  22.295  0.00  0.00    +0.000 A 
ATOM     17  C   UNL     1      28.882  24.627  21.832  0.00  0.00    +0.000 A 
ATOM     18  O   UNL     1      29.722  24.444  20.744  0.00  0.00    +0.000 OA
ATOM     19  C   UNL     1      28.298  23.573  22.531  0.00  0.00    +0.000 A 
ATOM     20  C   UNL     1      27.456  23.793  23.623  0.00  0.00    +0.000 A 
ENDBRANCH  13  14
ENDBRANCH   1  13
TORSDOF 4
ENDMDL
MODEL 10
REMARK VINA RESULT:      -5.5     18.302     20.375
REMARK  Name = 
REMARK  4 active torsions:
REMARK  status: ('A' for Active; 'I' for Inactive)
REMARK    1  A    between atoms: N_2  and  C_3
REMARK    2  A    between atoms: N_2  and  C_14
REMARK    3  A    between atoms: C_3  and  N_5
REMARK    4  A    between atoms: C_6  and  C_8
REMARK                            x       y       z     vdW  Elec       q    Type
REMARK                         _______ _______ _______ _____ _____    ______ ____
ROOT
ATOM      1  C   UNL     1      30.164  22.946  29.671  0.00  0.00    +0.000 C 
ATOM      2  S   UNL     1      30.356  22.530  31.230  0.00  0.00    +0.000 S 
ENDROOT
BRANCH   1   3
ATOM      3  N   UNL     1      29.074  23.767  29.305  0.00  0.00    +0.000 NA
ATOM      4  C   UNL     1      27.775  23.233  29.106  0.00  0.00    +0.000 C 
ATOM      5  O   UNL     1      27.697  21.958  29.291  0.00  0.00    +0.000 OA
BRANCH   4   6
ATOM      6  C   UNL     1      26.563  23.903  28.740  0.00  0.00    +0.000 C 
ATOM      7  C   UNL     1      26.023  23.727  27.384  0.00  0.00    +0.000 C 
ATOM      8  C   UNL     1      25.585  25.094  26.857  0.00  0.00    +0.000 C 
ATOM      9  C   UNL     1      24.598  25.730  27.838  0.00  0.00    +0.000 C 
ATOM     10  C   UNL     1      25.185  25.842  29.206  0.00  0.00    +0.000 C 
ATOM     11  C   UNL     1      25.684  24.491  29.741  0.00  0.00    +0.000 C 
ENDBRANCH   4   6
ENDBRANCH   1   3
BRANCH   1  13
ATOM     12  C   UNL     1      32.164  21.556  28.985  0.00  0.00    +0.000 C 
ATOM     13  N   UNL     1      31.079  22.467  28.698  0.00  0.00    +0.000 N 
BRANCH  13  14
ATOM     14  C   UNL     1      30.977  22.880  27.325  0.00  0.00    +0.000 A 
ATOM     15  C   UNL     1      30.150  22.112  26.533  0.00  0.00    +0.000 A 
ATOM     16  C   UNL     1      29.990  22.426  25.205  0.00  0.00    +0.000 A 
ATOM     17  C   UNL     1      30.630  23.506  24.601  0.00  0.00    +0.000 A 
ATOM     18  O   UNL     1      30.440  23.790  23.257  0.00  0.00    +0.000 OA
ATOM     19  C   UNL     1      31.456  24.261  25.432  0.00  0.00    +0.000 A 
ATOM     20  C   UNL     1      31.626  23.946  26.781  0.00  0.00    +0.000 A 
ENDBRANCH  13  14
ENDBRANCH   1  13
TORSDOF 4
ENDMDL
