MODEL 1
REMARK VINA RESULT:      -7.7      0.000      0.000
REMARK  Name = 
REMARK  9 active torsions:
REMARK  status: ('A' for Active; 'I' for Inactive)
REMARK    1  A    between atoms: C_2  and  C_3
REMARK    2  A    between atoms: C_3  and  C_4
REMARK    3  A    between atoms: C_4  and  C_5
REMARK    4  A    between atoms: C_8  and  N_9
REMARK    5  A    between atoms: C_10  and  C_12
REMARK    6  A    between atoms: C_12  and  O_13
REMARK    7  A    between atoms: O_13  and  C_14
REMARK    8  A    between atoms: C_14  and  C_16
REMARK    9  A    between atoms: C_19  and  C_20
REMARK                            x       y       z     vdW  Elec       q    Type
REMARK                         _______ _______ _______ _____ _____    ______ ____
ROOT
ATOM      1  O   UNL     1      38.742   4.670  15.731  0.00  0.00    +0.000 OA
ENDROOT
BRANCH   1   2
ATOM      2  C   UNL     1      38.759   5.815  16.507  0.00  0.00    +0.000 C 
ATOM      3  O   UNL     1      37.858   6.674  16.288  0.00  0.00    +0.000 OA
BRANCH   2   4
ATOM      4  C   UNL     1      39.764   6.071  17.555  0.00  0.00    +0.000 A 
ATOM      5  C   UNL     1      39.399   6.068  18.883  0.00  0.00    +0.000 A 
ATOM      6  C   UNL     1      40.313   6.302  19.888  0.00  0.00    +0.000 A 
ATOM      7  C   UNL     1      41.645   6.552  19.595  0.00  0.00    +0.000 A 
ATOM      8  C   UNL     1      41.970   6.548  18.257  0.00  0.00    +0.000 A 
ATOM      9  C   UNL     1      41.076   6.316  17.241  0.00  0.00    +0.000 A 
BRANCH   7  10
ATOM     10  C   UNL     1      42.627   6.803  20.638  0.00  0.00    +0.000 A 
ATOM     11  C   UNL     1      43.189   5.754  21.307  0.00  0.00    +0.000 A 
ATOM     12  C   UNL     1      44.126   6.036  22.300  0.00  0.00    +0.000 A 
ATOM     13  C   UNL     1      44.474   7.342  22.593  0.00  0.00    +0.000 A 
ATOM     14  C   UNL     1      43.897   8.386  21.907  0.00  0.00    +0.000 A 
ATOM     15  C   UNL     1      42.966   8.092  20.922  0.00  0.00    +0.000 A 
ENDBRANCH   7  10
ENDBRANCH   2   4
ENDBRANCH   1   2
BRANCH   1  16
ATOM     16  C   UNL     1      37.701   4.389  14.811  0.00  0.00    +0.000 C 
BRANCH  16  18
ATOM     17  N   UNL     1      37.106   2.415  16.314  0.00  0.00    +0.000 NA
ATOM     18  C   UNL     1      37.098   3.061  15.040  0.00  0.00    +0.000 C 
ATOM     19  O   UNL     1      36.558   2.479  14.068  0.00  0.00    +0.000 OA
BRANCH  17  23
ATOM     20  C   UNL     1      35.281  -1.361  16.637  0.00  0.00    +0.000 A 
ATOM     21  C   UNL     1      36.577  -1.277  16.147  0.00  0.00    +0.000 A 
ATOM     22  C   UNL     1      37.168  -0.026  16.045  0.00  0.00    +0.000 A 
ATOM     23  C   UNL     1      36.488   1.113  16.421  0.00  0.00    +0.000 A 
ATOM     24  C   UNL     1      35.198   0.993  16.905  0.00  0.00    +0.000 A 
ATOM     25  C   UNL     1      34.588  -0.233  17.017  0.00  0.00    +0.000 A 
BRANCH  20  26
ATOM     26  C   UNL     1      34.644  -2.703  16.748  0.00  0.00    +0.000 C 
BRANCH  26  27
ATOM     27  C   UNL     1      35.451  -3.716  15.931  0.00  0.00    +0.000 C 
BRANCH  27  29
ATOM     28  C   UNL     1      33.203  -4.433  15.151  0.00  0.00    +0.000 C 
ATOM     29  C   UNL     1      34.600  -4.030  14.706  0.00  0.00    +0.000 C 
ENDBRANCH  27  29
ENDBRANCH  26  27
ENDBRANCH  20  26
ENDBRANCH  17  23
ENDBRANCH  16  18
ENDBRANCH   1  16
TORSDOF 9
ENDMDL
MODEL 2
REMARK VINA RESULT:      -7.5      1.230     10.554
REMARK  Name = 
REMARK  9 active torsions:
REMARK  status: ('A' for Active; 'I' for Inactive)
REMARK    1  A    between atoms: C_2  and  C_3
REMARK    2  A    between atoms: C_3  and  C_4
REMARK    3  A    between atoms: C_4  and  C_5
REMARK    4  A    between atoms: C_8  and  N_9
REMARK    5  A    between atoms: C_10  and  C_12
REMARK    6  A    between atoms: C_12  and  O_13
REMARK    7  A    between atoms: O_13  and  C_14
REMARK    8  A    between atoms: C_14  and  C_16
REMARK    9  A    between atoms: C_19  and  C_20
REMARK                            x       y       z     vdW  Elec       q    Type
REMARK                         _______ _______ _______ _____ _____    ______ ____
ROOT
ATOM      1  O   UNL     1      37.027   3.325  14.894  0.00  0.00    +0.000 OA
ENDROOT
BRANCH   1   2
ATOM      2  C   UNL     1      36.002   2.644  15.526  0.00  0.00    +0.000 C 
ATOM      3  O   UNL     1      35.108   3.339  16.086  0.00  0.00    +0.000 OA
BRANCH   2   4
ATOM      4  C   UNL     1      35.912   1.173  15.574  0.00  0.00    +0.000 A 
ATOM      5  C   UNL     1      35.194   0.554  16.573  0.00  0.00    +0.000 A 
ATOM      6  C   UNL     1      35.089  -0.819  16.646  0.00  0.00    +0.000 A 
ATOM      7  C   UNL     1      35.707  -1.633  15.709  0.00  0.00    +0.000 A 
ATOM      8  C   UNL     1      36.414  -0.975  14.727  0.00  0.00    +0.000 A 
ATOM      9  C   UNL     1      36.532   0.389  14.635  0.00  0.00    +0.000 A 
BRANCH   7  10
ATOM     10  C   UNL     1      35.610  -3.082  15.766  0.00  0.00    +0.000 A 
ATOM     11  C   UNL     1      34.549  -3.715  15.185  0.00  0.00    +0.000 A 
ATOM     12  C   UNL     1      34.493  -5.106  15.262  0.00  0.00    +0.000 A 
ATOM     13  C   UNL     1      35.486  -5.818  15.909  0.00  0.00    +0.000 A 
ATOM     14  C   UNL     1      36.548  -5.163  16.487  0.00  0.00    +0.000 A 
ATOM     15  C   UNL     1      36.592  -3.779  16.404  0.00  0.00    +0.000 A 
ENDBRANCH   7  10
ENDBRANCH   2   4
ENDBRANCH   1   2
BRANCH   1  16
ATOM     16  C   UNL     1      37.025   4.734  14.741  0.00  0.00    +0.000 C 
BRANCH  16  18
ATOM     17  N   UNL     1      38.824   4.694  16.551  0.00  0.00    +0.000 NA
ATOM     18  C   UNL     1      37.895   5.403  15.729  0.00  0.00    +0.000 C 
ATOM     19  O   UNL     1      37.809   6.650  15.848  0.00  0.00    +0.000 OA
BRANCH  17  23
ATOM     20  C   UNL     1      41.126   6.900  19.294  0.00  0.00    +0.000 A 
ATOM     21  C   UNL     1      41.592   6.739  17.996  0.00  0.00    +0.000 A 
ATOM     22  C   UNL     1      40.825   6.009  17.100  0.00  0.00    +0.000 A 
ATOM     23  C   UNL     1      39.622   5.453  17.486  0.00  0.00    +0.000 A 
ATOM     24  C   UNL     1      39.189   5.633  18.786  0.00  0.00    +0.000 A 
ATOM     25  C   UNL     1      39.929   6.350  19.694  0.00  0.00    +0.000 A 
BRANCH  20  26
ATOM     26  C   UNL     1      41.950   7.683  20.257  0.00  0.00    +0.000 C 
BRANCH  26  27
ATOM     27  C   UNL     1      43.344   7.057  20.358  0.00  0.00    +0.000 C 
BRANCH  27  29
ATOM     28  C   UNL     1      44.044   6.241  22.599  0.00  0.00    +0.000 C 
ATOM     29  C   UNL     1      43.214   5.921  21.366  0.00  0.00    +0.000 C 
ENDBRANCH  27  29
ENDBRANCH  26  27
ENDBRANCH  20  26
ENDBRANCH  17  23
ENDBRANCH  16  18
ENDBRANCH   1  16
TORSDOF 9
ENDMDL
MODEL 3
REMARK VINA RESULT:      -7.5      1.173      2.044
REMARK  Name = 
REMARK  9 active torsions:
REMARK  status: ('A' for Active; 'I' for Inactive)
REMARK    1  A    between atoms: C_2  and  C_3
REMARK    2  A    between atoms: C_3  and  C_4
REMARK    3  A    between atoms: C_4  and  C_5
REMARK    4  A    between atoms: C_8  and  N_9
REMARK    5  A    between atoms: C_10  and  C_12
REMARK    6  A    between atoms: C_12  and  O_13
REMARK    7  A    between atoms: O_13  and  C_14
REMARK    8  A    between atoms: C_14  and  C_16
REMARK    9  A    between atoms: C_19  and  C_20
REMARK                            x       y       z     vdW  Elec       q    Type
REMARK                         _______ _______ _______ _____ _____    ______ ____
ROOT
ATOM      1  O   UNL     1      37.851   5.287  16.577  0.00  0.00    +0.000 OA
ENDROOT
BRANCH   1   2
ATOM      2  C   UNL     1      39.007   6.040  16.476  0.00  0.00    +0.000 C 
ATOM      3  O   UNL     1      39.241   6.592  15.364  0.00  0.00    +0.000 OA
BRANCH   2   4
ATOM      4  C   UNL     1      39.959   6.219  17.588  0.00  0.00    +0.000 A 
ATOM      5  C   UNL     1      41.291   6.454  17.331  0.00  0.00    +0.000 A 
ATOM      6  C   UNL     1      42.207   6.627  18.346  0.00  0.00    +0.000 A 
ATOM      7  C   UNL     1      41.816   6.571  19.676  0.00  0.00    +0.000 A 
ATOM      8  C   UNL     1      40.477   6.333  19.891  0.00  0.00    +0.000 A 
ATOM      9  C   UNL     1      39.549   6.159  18.895  0.00  0.00    +0.000 A 
BRANCH   7  10
ATOM     10  C   UNL     1      42.764   6.750  20.763  0.00  0.00    +0.000 A 
ATOM     11  C   UNL     1      43.320   5.658  21.366  0.00  0.00    +0.000 A 
ATOM     12  C   UNL     1      44.224   5.872  22.405  0.00  0.00    +0.000 A 
ATOM     13  C   UNL     1      44.546   7.155  22.809  0.00  0.00    +0.000 A 
ATOM     14  C   UNL     1      43.976   8.243  22.189  0.00  0.00    +0.000 A 
ATOM     15  C   UNL     1      43.077   8.016  21.157  0.00  0.00    +0.000 A 
ENDBRANCH   7  10
ENDBRANCH   2   4
ENDBRANCH   1   2
BRANCH   1  16
ATOM     16  C   UNL     1      37.248   4.662  15.455  0.00  0.00    +0.000 C 
BRANCH  16  18
ATOM     17  N   UNL     1      35.800   2.562  15.442  0.00  0.00    +0.000 NA
ATOM     18  C   UNL     1      37.051   3.215  15.663  0.00  0.00    +0.000 C 
ATOM     19  O   UNL     1      38.031   2.532  16.052  0.00  0.00    +0.000 OA
BRANCH  17  23
ATOM     20  C   UNL     1      35.592  -1.585  16.110  0.00  0.00    +0.000 A 
ATOM     21  C   UNL     1      34.957  -0.726  16.996  0.00  0.00    +0.000 A 
ATOM     22  C   UNL     1      35.033   0.640  16.766  0.00  0.00    +0.000 A 
ATOM     23  C   UNL     1      35.723   1.139  15.681  0.00  0.00    +0.000 A 
ATOM     24  C   UNL     1      36.344   0.254  14.819  0.00  0.00    +0.000 A 
ATOM     25  C   UNL     1      36.285  -1.103  15.023  0.00  0.00    +0.000 A 
BRANCH  20  26
ATOM     26  C   UNL     1      35.513  -3.053  16.355  0.00  0.00    +0.000 C 
BRANCH  26  27
ATOM     27  C   UNL     1      36.867  -3.694  16.038  0.00  0.00    +0.000 C 
BRANCH  27  29
ATOM     28  C   UNL     1      39.091  -3.106  16.977  0.00  0.00    +0.000 C 
ATOM     29  C   UNL     1      37.687  -3.580  17.318  0.00  0.00    +0.000 C 
ENDBRANCH  27  29
ENDBRANCH  26  27
ENDBRANCH  20  26
ENDBRANCH  17  23
ENDBRANCH  16  18
ENDBRANCH   1  16
TORSDOF 9
ENDMDL
MODEL 4
REMARK VINA RESULT:      -7.4      5.721      9.330
REMARK  Name = 
REMARK  9 active torsions:
REMARK  status: ('A' for Active; 'I' for Inactive)
REMARK    1  A    between atoms: C_2  and  C_3
REMARK    2  A    between atoms: C_3  and  C_4
REMARK    3  A    between atoms: C_4  and  C_5
REMARK    4  A    between atoms: C_8  and  N_9
REMARK    5  A    between atoms: C_10  and  C_12
REMARK    6  A    between atoms: C_12  and  O_13
REMARK    7  A    between atoms: O_13  and  C_14
REMARK    8  A    between atoms: C_14  and  C_16
REMARK    9  A    between atoms: C_19  and  C_20
REMARK                            x       y       z     vdW  Elec       q    Type
REMARK                         _______ _______ _______ _____ _____    ______ ____
ROOT
ATOM      1  O   UNL     1      45.178   6.191  23.326  0.00  0.00    +0.000 OA
ENDROOT
BRANCH   1   2
ATOM      2  C   UNL     1      45.448   6.097  24.679  0.00  0.00    +0.000 C 
ATOM      3  O   UNL     1      46.662   6.057  25.024  0.00  0.00    +0.000 OA
BRANCH   2   4
ATOM      4  C   UNL     1      44.399   6.042  25.715  0.00  0.00    +0.000 A 
ATOM      5  C   UNL     1      43.813   4.840  26.046  0.00  0.00    +0.000 A 
ATOM      6  C   UNL     1      42.832   4.753  27.009  0.00  0.00    +0.000 A 
ATOM      7  C   UNL     1      42.395   5.881  27.687  0.00  0.00    +0.000 A 
ATOM      8  C   UNL     1      43.005   7.062  27.327  0.00  0.00    +0.000 A 
ATOM      9  C   UNL     1      43.984   7.172  26.371  0.00  0.00    +0.000 A 
BRANCH   7  10
ATOM     10  C   UNL     1      41.361   5.814  28.707  0.00  0.00    +0.000 A 
ATOM     11  C   UNL     1      40.471   6.840  28.840  0.00  0.00    +0.000 A 
ATOM     12  C   UNL     1      39.494   6.737  29.829  0.00  0.00    +0.000 A 
ATOM     13  C   UNL     1      39.433   5.625  30.649  0.00  0.00    +0.000 A 
ATOM     14  C   UNL     1      40.339   4.600  30.499  0.00  0.00    +0.000 A 
ATOM     15  C   UNL     1      41.306   4.715  29.511  0.00  0.00    +0.000 A 
ENDBRANCH   7  10
ENDBRANCH   2   4
ENDBRANCH   1   2
BRANCH   1  16
ATOM     16  C   UNL     1      44.392   7.237  22.777  0.00  0.00    +0.000 C 
BRANCH  16  18
ATOM     17  N   UNL     1      42.722   7.639  20.890  0.00  0.00    +0.000 NA
ATOM     18  C   UNL     1      43.507   6.759  21.697  0.00  0.00    +0.000 C 
ATOM     19  O   UNL     1      43.445   5.523  21.483  0.00  0.00    +0.000 OA
BRANCH  17  23
ATOM     20  C   UNL     1      40.274   5.945  17.919  0.00  0.00    +0.000 A 
ATOM     21  C   UNL     1      41.571   6.319  17.594  0.00  0.00    +0.000 A 
ATOM     22  C   UNL     1      42.368   6.877  18.581  0.00  0.00    +0.000 A 
ATOM     23  C   UNL     1      41.889   7.059  19.862  0.00  0.00    +0.000 A 
ATOM     24  C   UNL     1      40.592   6.675  20.151  0.00  0.00    +0.000 A 
ATOM     25  C   UNL     1      39.780   6.120  19.193  0.00  0.00    +0.000 A 
BRANCH  20  26
ATOM     26  C   UNL     1      39.415   5.346  16.859  0.00  0.00    +0.000 C 
BRANCH  26  27
ATOM     27  C   UNL     1      38.297   4.530  17.515  0.00  0.00    +0.000 C 
BRANCH  27  29
ATOM     28  C   UNL     1      38.403   3.327  15.343  0.00  0.00    +0.000 C 
ATOM     29  C   UNL     1      37.473   3.961  16.365  0.00  0.00    +0.000 C 
ENDBRANCH  27  29
ENDBRANCH  26  27
ENDBRANCH  20  26
ENDBRANCH  17  23
ENDBRANCH  16  18
ENDBRANCH   1  16
TORSDOF 9
ENDMDL
MODEL 5
REMARK VINA RESULT:      -7.3      1.795      9.717
REMARK  Name = 
REMARK  9 active torsions:
REMARK  status: ('A' for Active; 'I' for Inactive)
REMARK    1  A    between atoms: C_2  and  C_3
REMARK    2  A    between atoms: C_3  and  C_4
REMARK    3  A    between atoms: C_4  and  C_5
REMARK    4  A    between atoms: C_8  and  N_9
REMARK    5  A    between atoms: C_10  and  C_12
REMARK    6  A    between atoms: C_12  and  O_13
REMARK    7  A    between atoms: O_13  and  C_14
REMARK    8  A    between atoms: C_14  and  C_16
REMARK    9  A    between atoms: C_19  and  C_20
REMARK                            x       y       z     vdW  Elec       q    Type
REMARK                         _______ _______ _______ _____ _____    ______ ____
ROOT
ATOM      1  O   UNL     1      35.771   6.498  14.407  0.00  0.00    +0.000 OA
ENDROOT
BRANCH   1   2
ATOM      2  C   UNL     1      35.549   5.344  13.679  0.00  0.00    +0.000 C 
ATOM      3  O   UNL     1      35.348   5.473  12.438  0.00  0.00    +0.000 OA
BRANCH   2   4
ATOM      4  C   UNL     1      35.535   3.996  14.277  0.00  0.00    +0.000 A 
ATOM      5  C   UNL     1      36.411   3.030  13.834  0.00  0.00    +0.000 A 
ATOM      6  C   UNL     1      36.426   1.762  14.372  0.00  0.00    +0.000 A 
ATOM      7  C   UNL     1      35.551   1.408  15.389  0.00  0.00    +0.000 A 
ATOM      8  C   UNL     1      34.692   2.401  15.803  0.00  0.00    +0.000 A 
ATOM      9  C   UNL     1      34.661   3.670  15.282  0.00  0.00    +0.000 A 
BRANCH   7  10
ATOM     10  C   UNL     1      35.547   0.077  15.972  0.00  0.00    +0.000 A 
ATOM     11  C   UNL     1      34.690  -0.215  16.993  0.00  0.00    +0.000 A 
ATOM     12  C   UNL     1      34.717  -1.503  17.525  0.00  0.00    +0.000 A 
ATOM     13  C   UNL     1      35.589  -2.455  17.028  0.00  0.00    +0.000 A 
ATOM     14  C   UNL     1      36.445  -2.142  15.997  0.00  0.00    +0.000 A 
ATOM     15  C   UNL     1      36.409  -0.857  15.477  0.00  0.00    +0.000 A 
ENDBRANCH   7  10
ENDBRANCH   2   4
ENDBRANCH   1   2
BRANCH   1  16
ATOM     16  C   UNL     1      36.925   7.302  14.227  0.00  0.00    +0.000 C 
BRANCH  16  18
ATOM     17  N   UNL     1      38.262   6.052  16.005  0.00  0.00    +0.000 NA
ATOM     18  C   UNL     1      37.816   7.269  15.403  0.00  0.00    +0.000 C 
ATOM     19  O   UNL     1      38.195   8.362  15.891  0.00  0.00    +0.000 OA
BRANCH  17  23
ATOM     20  C   UNL     1      40.818   6.306  19.335  0.00  0.00    +0.000 A 
ATOM     21  C   UNL     1      39.445   6.369  19.531  0.00  0.00    +0.000 A 
ATOM     22  C   UNL     1      38.612   6.285  18.426  0.00  0.00    +0.000 A 
ATOM     23  C   UNL     1      39.131   6.141  17.155  0.00  0.00    +0.000 A 
ATOM     24  C   UNL     1      40.503   6.082  16.997  0.00  0.00    +0.000 A 
ATOM     25  C   UNL     1      41.352   6.163  18.074  0.00  0.00    +0.000 A 
BRANCH  20  26
ATOM     26  C   UNL     1      41.715   6.397  20.522  0.00  0.00    +0.000 C 
BRANCH  26  27
ATOM     27  C   UNL     1      42.566   7.666  20.418  0.00  0.00    +0.000 C 
BRANCH  27  29
ATOM     28  C   UNL     1      43.896   6.102  21.819  0.00  0.00    +0.000 C 
ATOM     29  C   UNL     1      43.594   7.566  21.538  0.00  0.00    +0.000 C 
ENDBRANCH  27  29
ENDBRANCH  26  27
ENDBRANCH  20  26
ENDBRANCH  17  23
ENDBRANCH  16  18
ENDBRANCH   1  16
TORSDOF 9
ENDMDL
MODEL 6
REMARK VINA RESULT:      -7.3      3.818      9.111
REMARK  Name = 
REMARK  9 active torsions:
REMARK  status: ('A' for Active; 'I' for Inactive)
REMARK    1  A    between atoms: C_2  and  C_3
REMARK    2  A    between atoms: C_3  and  C_4
REMARK    3  A    between atoms: C_4  and  C_5
REMARK    4  A    between atoms: C_8  and  N_9
REMARK    5  A    between atoms: C_10  and  C_12
REMARK    6  A    between atoms: C_12  and  O_13
REMARK    7  A    between atoms: O_13  and  C_14
REMARK    8  A    between atoms: C_14  and  C_16
REMARK    9  A    between atoms: C_19  and  C_20
REMARK                            x       y       z     vdW  Elec       q    Type
REMARK                         _______ _______ _______ _____ _____    ______ ____
ROOT
ATOM      1  O   UNL     1      39.937  -2.316  11.018  0.00  0.00    +0.000 OA
ENDROOT
BRANCH   1   2
ATOM      2  C   UNL     1      40.217  -2.805  12.281  0.00  0.00    +0.000 C 
ATOM      3  O   UNL     1      41.174  -3.624  12.382  0.00  0.00    +0.000 OA
BRANCH   2   4
ATOM      4  C   UNL     1      39.462  -2.421  13.487  0.00  0.00    +0.000 A 
ATOM      5  C   UNL     1      40.117  -2.219  14.681  0.00  0.00    +0.000 A 
ATOM      6  C   UNL     1      39.441  -1.858  15.828  0.00  0.00    +0.000 A 
ATOM      7  C   UNL     1      38.065  -1.685  15.820  0.00  0.00    +0.000 A 
ATOM      8  C   UNL     1      37.448  -1.897  14.607  0.00  0.00    +0.000 A 
ATOM      9  C   UNL     1      38.101  -2.256  13.455  0.00  0.00    +0.000 A 
BRANCH   7  10
ATOM     10  C   UNL     1      37.331  -1.305  17.016  0.00  0.00    +0.000 A 
ATOM     11  C   UNL     1      37.693  -1.822  18.226  0.00  0.00    +0.000 A 
ATOM     12  C   UNL     1      36.964  -1.433  19.350  0.00  0.00    +0.000 A 
ATOM     13  C   UNL     1      35.907  -0.549  19.235  0.00  0.00    +0.000 A 
ATOM     14  C   UNL     1      35.558  -0.039  18.006  0.00  0.00    +0.000 A 
ATOM     15  C   UNL     1      36.290  -0.434  16.896  0.00  0.00    +0.000 A 
ENDBRANCH   7  10
ENDBRANCH   2   4
ENDBRANCH   1   2
BRANCH   1  16
ATOM     16  C   UNL     1      40.441  -1.075  10.553  0.00  0.00    +0.000 C 
BRANCH  16  18
ATOM     17  N   UNL     1      40.834   0.619  12.421  0.00  0.00    +0.000 NA
ATOM     18  C   UNL     1      40.010   0.055  11.399  0.00  0.00    +0.000 C 
ATOM     19  O   UNL     1      38.866   0.536  11.208  0.00  0.00    +0.000 OA
BRANCH  17  23
ATOM     20  C   UNL     1      39.313   3.850  14.642  0.00  0.00    +0.000 A 
ATOM     21  C   UNL     1      38.927   2.559  14.978  0.00  0.00    +0.000 A 
ATOM     22  C   UNL     1      39.435   1.501  14.238  0.00  0.00    +0.000 A 
ATOM     23  C   UNL     1      40.305   1.722  13.190  0.00  0.00    +0.000 A 
ATOM     24  C   UNL     1      40.668   3.020  12.884  0.00  0.00    +0.000 A 
ATOM     25  C   UNL     1      40.180   4.086  13.600  0.00  0.00    +0.000 A 
BRANCH  20  26
ATOM     26  C   UNL     1      38.769   4.988  15.436  0.00  0.00    +0.000 C 
BRANCH  26  27
ATOM     27  C   UNL     1      39.692   5.262  16.627  0.00  0.00    +0.000 C 
BRANCH  27  29
ATOM     28  C   UNL     1      39.180   5.953  18.959  0.00  0.00    +0.000 C 
ATOM     29  C   UNL     1      38.869   4.939  17.869  0.00  0.00    +0.000 C 
ENDBRANCH  27  29
ENDBRANCH  26  27
ENDBRANCH  20  26
ENDBRANCH  17  23
ENDBRANCH  16  18
ENDBRANCH   1  16
TORSDOF 9
ENDMDL
MODEL 7
REMARK VINA RESULT:      -7.2      1.257      1.780
REMARK  Name = 
REMARK  9 active torsions:
REMARK  status: ('A' for Active; 'I' for Inactive)
REMARK    1  A    between atoms: C_2  and  C_3
REMARK    2  A    between atoms: C_3  and  C_4
REMARK    3  A    between atoms: C_4  and  C_5
REMARK    4  A    between atoms: C_8  and  N_9
REMARK    5  A    between atoms: C_10  and  C_12
REMARK    6  A    between atoms: C_12  and  O_13
REMARK    7  A    between atoms: O_13  and  C_14
REMARK    8  A    between atoms: C_14  and  C_16
REMARK    9  A    between atoms: C_19  and  C_20
REMARK                            x       y       z     vdW  Elec       q    Type
REMARK                         _______ _______ _______ _____ _____    ______ ____
ROOT
ATOM      1  O   UNL     1      38.554   6.001  17.111  0.00  0.00    +0.000 OA
ENDROOT
BRANCH   1   2
ATOM      2  C   UNL     1      39.686   6.791  17.199  0.00  0.00    +0.000 C 
ATOM      3  O   UNL     1      39.857   7.658  16.295  0.00  0.00    +0.000 OA
BRANCH   2   4
ATOM      4  C   UNL     1      40.681   6.667  18.280  0.00  0.00    +0.000 A 
ATOM      5  C   UNL     1      40.287   6.305  19.549  0.00  0.00    +0.000 A 
ATOM      6  C   UNL     1      41.191   6.178  20.581  0.00  0.00    +0.000 A 
ATOM      7  C   UNL     1      42.543   6.412  20.378  0.00  0.00    +0.000 A 
ATOM      8  C   UNL     1      42.896   6.772  19.097  0.00  0.00    +0.000 A 
ATOM      9  C   UNL     1      42.013   6.903  18.055  0.00  0.00    +0.000 A 
BRANCH   7  10
ATOM     10  C   UNL     1      43.515   6.285  21.451  0.00  0.00    +0.000 A 
ATOM     11  C   UNL     1      44.099   5.076  21.698  0.00  0.00    +0.000 A 
ATOM     12  C   UNL     1      45.026   4.996  22.737  0.00  0.00    +0.000 A 
ATOM     13  C   UNL     1      45.342   6.111  23.490  0.00  0.00    +0.000 A 
ATOM     14  C   UNL     1      44.743   7.322  23.226  0.00  0.00    +0.000 A 
ATOM     15  C   UNL     1      43.822   7.388  22.190  0.00  0.00    +0.000 A 
ENDBRANCH   7  10
ENDBRANCH   2   4
ENDBRANCH   1   2
BRANCH   1  16
ATOM     16  C   UNL     1      38.227   5.267  15.943  0.00  0.00    +0.000 C 
BRANCH  16  18
ATOM     17  N   UNL     1      36.772   3.256  15.352  0.00  0.00    +0.000 NA
ATOM     18  C   UNL     1      37.624   3.957  16.259  0.00  0.00    +0.000 C 
ATOM     19  O   UNL     1      37.876   3.442  17.376  0.00  0.00    +0.000 OA
BRANCH  17  23
ATOM     20  C   UNL     1      35.236  -0.472  16.550  0.00  0.00    +0.000 A 
ATOM     21  C   UNL     1      34.606   0.688  16.981  0.00  0.00    +0.000 A 
ATOM     22  C   UNL     1      35.121   1.912  16.579  0.00  0.00    +0.000 A 
ATOM     23  C   UNL     1      36.237   1.980  15.770  0.00  0.00    +0.000 A 
ATOM     24  C   UNL     1      36.839   0.805  15.360  0.00  0.00    +0.000 A 
ATOM     25  C   UNL     1      36.349  -0.420  15.743  0.00  0.00    +0.000 A 
BRANCH  20  26
ATOM     26  C   UNL     1      34.683  -1.787  16.981  0.00  0.00    +0.000 C 
BRANCH  26  27
ATOM     27  C   UNL     1      35.833  -2.782  17.169  0.00  0.00    +0.000 C 
BRANCH  27  29
ATOM     28  C   UNL     1      34.245  -3.732  15.510  0.00  0.00    +0.000 C 
ATOM     29  C   UNL     1      35.651  -3.833  16.080  0.00  0.00    +0.000 C 
ENDBRANCH  27  29
ENDBRANCH  26  27
ENDBRANCH  20  26
ENDBRANCH  17  23
ENDBRANCH  16  18
ENDBRANCH   1  16
TORSDOF 9
ENDMDL
MODEL 8
REMARK VINA RESULT:      -7.0      1.867     10.009
REMARK  Name = 
REMARK  9 active torsions:
REMARK  status: ('A' for Active; 'I' for Inactive)
REMARK    1  A    between atoms: C_2  and  C_3
REMARK    2  A    between atoms: C_3  and  C_4
REMARK    3  A    between atoms: C_4  and  C_5
REMARK    4  A    between atoms: C_8  and  N_9
REMARK    5  A    between atoms: C_10  and  C_12
REMARK    6  A    between atoms: C_12  and  O_13
REMARK    7  A    between atoms: O_13  and  C_14
REMARK    8  A    between atoms: C_14  and  C_16
REMARK    9  A    between atoms: C_19  and  C_20
REMARK                            x       y       z     vdW  Elec       q    Type
REMARK                         _______ _______ _______ _____ _____    ______ ____
ROOT
ATOM      1  O   UNL     1      37.807   4.151  14.273  0.00  0.00    +0.000 OA
ENDROOT
BRANCH   1   2
ATOM      2  C   UNL     1      37.370   3.010  13.626  0.00  0.00    +0.000 C 
ATOM      3  O   UNL     1      36.859   3.156  12.480  0.00  0.00    +0.000 OA
BRANCH   2   4
ATOM      4  C   UNL     1      37.473   1.657  14.205  0.00  0.00    +0.000 A 
ATOM      5  C   UNL     1      36.338   0.909  14.428  0.00  0.00    +0.000 A 
ATOM      6  C   UNL     1      36.399  -0.358  14.967  0.00  0.00    +0.000 A 
ATOM      7  C   UNL     1      37.615  -0.931  15.307  0.00  0.00    +0.000 A 
ATOM      8  C   UNL     1      38.725  -0.151  15.070  0.00  0.00    +0.000 A 
ATOM      9  C   UNL     1      38.687   1.112  14.534  0.00  0.00    +0.000 A 
BRANCH   7  10
ATOM     10  C   UNL     1      37.704  -2.265  15.877  0.00  0.00    +0.000 A 
ATOM     11  C   UNL     1      38.716  -2.568  16.742  0.00  0.00    +0.000 A 
ATOM     12  C   UNL     1      38.766  -3.858  17.267  0.00  0.00    +0.000 A 
ATOM     13  C   UNL     1      37.815  -4.800  16.919  0.00  0.00    +0.000 A 
ATOM     14  C   UNL     1      36.802  -4.476  16.046  0.00  0.00    +0.000 A 
ATOM     15  C   UNL     1      36.764  -3.189  15.531  0.00  0.00    +0.000 A 
ENDBRANCH   7  10
ENDBRANCH   2   4
ENDBRANCH   1   2
BRANCH   1  16
ATOM     16  C   UNL     1      37.270   4.575  15.515  0.00  0.00    +0.000 C 
BRANCH  16  18
ATOM     17  N   UNL     1      38.863   6.186  16.691  0.00  0.00    +0.000 NA
ATOM     18  C   UNL     1      38.324   4.876  16.504  0.00  0.00    +0.000 C 
ATOM     19  O   UNL     1      38.763   3.933  17.208  0.00  0.00    +0.000 OA
BRANCH  17  23
ATOM     20  C   UNL     1      41.886   6.699  19.568  0.00  0.00    +0.000 A 
ATOM     21  C   UNL     1      40.572   6.546  19.989  0.00  0.00    +0.000 A 
ATOM     22  C   UNL     1      39.584   6.378  19.031  0.00  0.00    +0.000 A 
ATOM     23  C   UNL     1      39.894   6.362  17.687  0.00  0.00    +0.000 A 
ATOM     24  C   UNL     1      41.213   6.516  17.303  0.00  0.00    +0.000 A 
ATOM     25  C   UNL     1      42.212   6.685  18.231  0.00  0.00    +0.000 A 
BRANCH  20  26
ATOM     26  C   UNL     1      42.950   6.880  20.596  0.00  0.00    +0.000 C 
BRANCH  26  27
ATOM     27  C   UNL     1      43.171   5.556  21.335  0.00  0.00    +0.000 C 
BRANCH  27  29
ATOM     28  C   UNL     1      44.060   6.305  23.531  0.00  0.00    +0.000 C 
ATOM     29  C   UNL     1      44.434   5.753  22.165  0.00  0.00    +0.000 C 
ENDBRANCH  27  29
ENDBRANCH  26  27
ENDBRANCH  20  26
ENDBRANCH  17  23
ENDBRANCH  16  18
ENDBRANCH   1  16
TORSDOF 9
ENDMDL
MODEL 9
REMARK VINA RESULT:      -7.0      7.622     10.533
REMARK  Name = 
REMARK  9 active torsions:
REMARK  status: ('A' for Active; 'I' for Inactive)
REMARK    1  A    between atoms: C_2  and  C_3
REMARK    2  A    between atoms: C_3  and  C_4
REMARK    3  A    between atoms: C_4  and  C_5
REMARK    4  A    between atoms: C_8  and  N_9
REMARK    5  A    between atoms: C_10  and  C_12
REMARK    6  A    between atoms: C_12  and  O_13
REMARK    7  A    between atoms: O_13  and  C_14
REMARK    8  A    between atoms: C_14  and  C_16
REMARK    9  A    between atoms: C_19  and  C_20
REMARK                            x       y       z     vdW  Elec       q    Type
REMARK                         _______ _______ _______ _____ _____    ______ ____
ROOT
ATOM      1  O   UNL     1      45.753   5.716  23.813  0.00  0.00    +0.000 OA
ENDROOT
BRANCH   1   2
ATOM      2  C   UNL     1      45.644   5.023  25.005  0.00  0.00    +0.000 C 
ATOM      3  O   UNL     1      46.556   4.190  25.273  0.00  0.00    +0.000 OA
BRANCH   2   4
ATOM      4  C   UNL     1      44.532   5.210  25.955  0.00  0.00    +0.000 A 
ATOM      5  C   UNL     1      43.915   4.118  26.525  0.00  0.00    +0.000 A 
ATOM      6  C   UNL     1      42.874   4.257  27.417  0.00  0.00    +0.000 A 
ATOM      7  C   UNL     1      42.405   5.512  27.776  0.00  0.00    +0.000 A 
ATOM      8  C   UNL     1      43.048   6.577  27.185  0.00  0.00    +0.000 A 
ATOM      9  C   UNL     1      44.086   6.461  26.295  0.00  0.00    +0.000 A 
BRANCH   7  10
ATOM     10  C   UNL     1      41.308   5.683  28.715  0.00  0.00    +0.000 A 
ATOM     11  C   UNL     1      40.539   6.809  28.660  0.00  0.00    +0.000 A 
ATOM     12  C   UNL     1      39.496   6.936  29.577  0.00  0.00    +0.000 A 
ATOM     13  C   UNL     1      39.253   5.947  30.512  0.00  0.00    +0.000 A 
ATOM     14  C   UNL     1      40.040   4.818  30.551  0.00  0.00    +0.000 A 
ATOM     15  C   UNL     1      41.074   4.705  29.633  0.00  0.00    +0.000 A 
ENDBRANCH   7  10
ENDBRANCH   2   4
ENDBRANCH   1   2
BRANCH   1  16
ATOM     16  C   UNL     1      45.208   5.232  22.597  0.00  0.00    +0.000 C 
BRANCH  16  18
ATOM     17  N   UNL     1      43.505   5.928  20.828  0.00  0.00    +0.000 NA
ATOM     18  C   UNL     1      44.062   6.042  22.139  0.00  0.00    +0.000 C 
ATOM     19  O   UNL     1      43.560   6.868  22.942  0.00  0.00    +0.000 OA
BRANCH  17  23
ATOM     20  C   UNL     1      40.224   8.368  19.842  0.00  0.00    +0.000 A 
ATOM     21  C   UNL     1      41.494   8.927  19.880  0.00  0.00    +0.000 A 
ATOM     22  C   UNL     1      42.569   8.113  20.207  0.00  0.00    +0.000 A 
ATOM     23  C   UNL     1      42.385   6.775  20.489  0.00  0.00    +0.000 A 
ATOM     24  C   UNL     1      41.106   6.251  20.442  0.00  0.00    +0.000 A 
ATOM     25  C   UNL     1      40.024   7.034  20.121  0.00  0.00    +0.000 A 
BRANCH  20  26
ATOM     26  C   UNL     1      39.069   9.241  19.491  0.00  0.00    +0.000 C 
BRANCH  26  27
ATOM     27  C   UNL     1      37.891   8.918  20.415  0.00  0.00    +0.000 C 
BRANCH  27  29
ATOM     28  C   UNL     1      36.855   9.543  18.244  0.00  0.00    +0.000 C 
ATOM     29  C   UNL     1      36.695   8.696  19.497  0.00  0.00    +0.000 C 
ENDBRANCH  27  29
ENDBRANCH  26  27
ENDBRANCH  20  26
ENDBRANCH  17  23
ENDBRANCH  16  18
ENDBRANCH   1  16
TORSDOF 9
ENDMDL
MODEL 10
REMARK VINA RESULT:      -6.9      3.010      4.559
REMARK  Name = 
REMARK  9 active torsions:
REMARK  status: ('A' for Active; 'I' for Inactive)
REMARK    1  A    between atoms: C_2  and  C_3
REMARK    2  A    between atoms: C_3  and  C_4
REMARK    3  A    between atoms: C_4  and  C_5
REMARK    4  A    between atoms: C_8  and  N_9
REMARK    5  A    between atoms: C_10  and  C_12
REMARK    6  A    between atoms: C_12  and  O_13
REMARK    7  A    between atoms: O_13  and  C_14
REMARK    8  A    between atoms: C_14  and  C_16
REMARK    9  A    between atoms: C_19  and  C_20
REMARK                            x       y       z     vdW  Elec       q    Type
REMARK                         _______ _______ _______ _____ _____    ______ ____
ROOT
ATOM      1  O   UNL     1      35.454   3.581  14.910  0.00  0.00    +0.000 OA
ENDROOT
BRANCH   1   2
ATOM      2  C   UNL     1      36.611   4.224  14.508  0.00  0.00    +0.000 C 
ATOM      3  O   UNL     1      36.777   4.392  13.267  0.00  0.00    +0.000 OA
BRANCH   2   4
ATOM      4  C   UNL     1      37.639   4.710  15.448  0.00  0.00    +0.000 A 
ATOM      5  C   UNL     1      37.692   4.219  16.733  0.00  0.00    +0.000 A 
ATOM      6  C   UNL     1      38.640   4.650  17.637  0.00  0.00    +0.000 A 
ATOM      7  C   UNL     1      39.582   5.603  17.281  0.00  0.00    +0.000 A 
ATOM      8  C   UNL     1      39.495   6.069  15.988  0.00  0.00    +0.000 A 
ATOM      9  C   UNL     1      38.560   5.653  15.073  0.00  0.00    +0.000 A 
BRANCH   7  10
ATOM     10  C   UNL     1      40.590   6.074  18.216  0.00  0.00    +0.000 A 
ATOM     11  C   UNL     1      40.293   6.165  19.545  0.00  0.00    +0.000 A 
ATOM     12  C   UNL     1      41.288   6.621  20.410  0.00  0.00    +0.000 A 
ATOM     13  C   UNL     1      42.537   6.969  19.929  0.00  0.00    +0.000 A 
ATOM     14  C   UNL     1      42.818   6.869  18.586  0.00  0.00    +0.000 A 
ATOM     15  C   UNL     1      41.820   6.415  17.736  0.00  0.00    +0.000 A 
ENDBRANCH   7  10
ENDBRANCH   2   4
ENDBRANCH   1   2
BRANCH   1  16
ATOM     16  C   UNL     1      35.204   2.215  14.626  0.00  0.00    +0.000 C 
BRANCH  16  18
ATOM     17  N   UNL     1      37.363   1.124  15.440  0.00  0.00    +0.000 NA
ATOM     18  C   UNL     1      36.449   1.457  14.393  0.00  0.00    +0.000 C 
ATOM     19  O   UNL     1      36.712   1.093  13.220  0.00  0.00    +0.000 OA
BRANCH  17  23
ATOM     20  C   UNL     1      40.812  -1.067  14.444  0.00  0.00    +0.000 A 
ATOM     21  C   UNL     1      40.801   0.306  14.238  0.00  0.00    +0.000 A 
ATOM     22  C   UNL     1      39.658   1.018  14.570  0.00  0.00    +0.000 A 
ATOM     23  C   UNL     1      38.552   0.381  15.094  0.00  0.00    +0.000 A 
ATOM     24  C   UNL     1      38.598  -0.988  15.286  0.00  0.00    +0.000 A 
ATOM     25  C   UNL     1      39.717  -1.717  14.966  0.00  0.00    +0.000 A 
BRANCH  20  26
ATOM     26  C   UNL     1      42.039  -1.833  14.089  0.00  0.00    +0.000 C 
BRANCH  26  27
ATOM     27  C   UNL     1      42.556  -1.359  12.727  0.00  0.00    +0.000 C 
BRANCH  27  29
ATOM     28  C   UNL     1      41.769  -3.454  11.645  0.00  0.00    +0.000 C 
ATOM     29  C   UNL     1      41.597  -1.944  11.696  0.00  0.00    +0.000 C 
ENDBRANCH  27  29
ENDBRANCH  26  27
ENDBRANCH  20  26
ENDBRANCH  17  23
ENDBRANCH  16  18
ENDBRANCH   1  16
TORSDOF 9
ENDMDL
