MODEL 1
REMARK VINA RESULT:      -7.9      0.000      0.000
REMARK  Name = 
REMARK  6 active torsions:
REMARK  status: ('A' for Active; 'I' for Inactive)
REMARK    1  A    between atoms: C_2  and  N_3
REMARK    2  A    between atoms: C_2  and  C_27
REMARK    3  A    between atoms: C_4  and  C_6
REMARK    4  A    between atoms: C_7  and  N_8
REMARK    5  A    between atoms: C_9  and  C_11
REMARK    6  A    between atoms: C_21  and  C_22
REMARK                            x       y       z     vdW  Elec       q    Type
REMARK                         _______ _______ _______ _____ _____    ______ ____
ROOT
ATOM      1  C   UNL     1      37.656   2.396  14.851  0.00  0.00    +0.000 A 
ATOM      2  C   UNL     1      38.664   3.279  15.135  0.00  0.00    +0.000 A 
ATOM      3  S   UNL     1      39.586   3.301  13.699  0.00  0.00    +0.000 S 
ATOM      4  C   UNL     1      38.657   2.173  12.758  0.00  0.00    +0.000 A 
ATOM      5  C   UNL     1      37.665   1.837  13.628  0.00  0.00    +0.000 A 
ATOM      6  C   UNL     1      36.737   0.823  12.944  0.00  0.00    +0.000 C 
ATOM      7  C   UNL     1      37.721  -0.300  12.736  0.00  0.00    +0.000 C 
ATOM      8  C   UNL     1      38.558   0.003  11.395  0.00  0.00    +0.000 C 
ATOM      9  C   UNL     1      38.669   1.584  11.426  0.00  0.00    +0.000 C 
ENDROOT
BRANCH   8  10
ATOM     10  C   UNL     1      40.030  -0.333  11.955  0.00  0.00    +0.000 C 
ATOM     11  C   UNL     1      39.975  -0.685  13.386  0.00  0.00    +0.000 C 
ATOM     12  C   UNL     1      41.042   0.637  11.565  0.00  0.00    +0.000 C 
ATOM     13  C   UNL     1      40.324  -1.551  11.052  0.00  0.00    +0.000 C 
ENDBRANCH   8  10
BRANCH   1  15
ATOM     14  N   UNL     1      36.744   0.919  16.641  0.00  0.00    +0.000 NA
ATOM     15  C   UNL     1      36.612   2.090  15.870  0.00  0.00    +0.000 C 
ATOM     16  O   UNL     1      35.633   2.880  16.022  0.00  0.00    +0.000 OA
BRANCH  14  18
ATOM     17  C   UNL     1      36.533   0.094  18.819  0.00  0.00    +0.000 C 
ATOM     18  C   UNL     1      35.570   0.744  17.660  0.00  0.00    +0.000 C 
BRANCH  18  19
ATOM     19  C   UNL     1      35.094  -0.665  17.082  0.00  0.00    +0.000 A 
ATOM     20  C   UNL     1      35.882  -1.210  16.098  0.00  0.00    +0.000 A 
ATOM     21  C   UNL     1      35.507  -2.414  15.574  0.00  0.00    +0.000 A 
ATOM     22  C   UNL     1      34.379  -3.071  16.009  0.00  0.00    +0.000 A 
ATOM     23  C   UNL     1      33.631  -2.476  16.997  0.00  0.00    +0.000 A 
ATOM     24  C   UNL     1      33.998  -1.254  17.539  0.00  0.00    +0.000 A 
ENDBRANCH  18  19
ENDBRANCH  14  18
ENDBRANCH   1  15
BRANCH   2  25
ATOM     25  N   UNL     1      38.873   4.004  16.367  0.00  0.00    +0.000 NA
ATOM     26  C   UNL     1      38.421   5.320  16.476  0.00  0.00    +0.000 C 
ATOM     27  O   UNL     1      37.846   5.874  15.533  0.00  0.00    +0.000 OA
BRANCH  26  28
ATOM     28  C   UNL     1      38.634   6.061  17.737  0.00  0.00    +0.000 A 
ATOM     29  C   UNL     1      39.458   5.694  18.776  0.00  0.00    +0.000 A 
ATOM     30  C   UNL     1      39.338   6.678  19.730  0.00  0.00    +0.000 A 
ATOM     31  C   UNL     1      38.450   7.603  19.238  0.00  0.00    +0.000 A 
ATOM     32  O   UNL     1      38.072   7.194  18.074  0.00  0.00    +0.000 OA
ENDBRANCH  26  28
ENDBRANCH   2  25
TORSDOF 6
ENDMDL
MODEL 2
REMARK VINA RESULT:      -7.5      3.129      5.112
REMARK  Name = 
REMARK  6 active torsions:
REMARK  status: ('A' for Active; 'I' for Inactive)
REMARK    1  A    between atoms: C_2  and  N_3
REMARK    2  A    between atoms: C_2  and  C_27
REMARK    3  A    between atoms: C_4  and  C_6
REMARK    4  A    between atoms: C_7  and  N_8
REMARK    5  A    between atoms: C_9  and  C_11
REMARK    6  A    between atoms: C_21  and  C_22
REMARK                            x       y       z     vdW  Elec       q    Type
REMARK                         _______ _______ _______ _____ _____    ______ ____
ROOT
ATOM      1  C   UNL     1      40.540  -1.361  14.215  0.00  0.00    +0.000 A 
ATOM      2  C   UNL     1      40.201  -0.038  14.316  0.00  0.00    +0.000 A 
ATOM      3  S   UNL     1      41.287   0.732  13.249  0.00  0.00    +0.000 S 
ATOM      4  C   UNL     1      42.159  -0.664  12.690  0.00  0.00    +0.000 A 
ATOM      5  C   UNL     1      41.546  -1.667  13.377  0.00  0.00    +0.000 A 
ATOM      6  C   UNL     1      42.211  -2.998  12.996  0.00  0.00    +0.000 C 
ATOM      7  C   UNL     1      43.604  -2.724  13.505  0.00  0.00    +0.000 C 
ATOM      8  C   UNL     1      44.395  -1.883  12.384  0.00  0.00    +0.000 C 
ATOM      9  C   UNL     1      43.241  -0.985  11.770  0.00  0.00    +0.000 C 
ENDROOT
BRANCH   8  10
ATOM     10  C   UNL     1      45.053  -0.770  13.344  0.00  0.00    +0.000 C 
ATOM     11  C   UNL     1      44.624  -0.969  14.742  0.00  0.00    +0.000 C 
ATOM     12  C   UNL     1      44.958   0.585  12.824  0.00  0.00    +0.000 C 
ATOM     13  C   UNL     1      46.533  -1.145  13.116  0.00  0.00    +0.000 C 
ENDBRANCH   8  10
BRANCH   1  15
ATOM     14  N   UNL     1      38.421  -2.529  14.819  0.00  0.00    +0.000 NA
ATOM     15  C   UNL     1      39.810  -2.391  15.007  0.00  0.00    +0.000 C 
ATOM     16  O   UNL     1      40.446  -3.118  15.828  0.00  0.00    +0.000 OA
BRANCH  14  18
ATOM     17  C   UNL     1      36.637  -4.030  14.636  0.00  0.00    +0.000 C 
ATOM     18  C   UNL     1      37.808  -3.650  15.721  0.00  0.00    +0.000 C 
BRANCH  18  19
ATOM     19  C   UNL     1      36.886  -2.659  16.566  0.00  0.00    +0.000 A 
ATOM     20  C   UNL     1      35.549  -2.666  16.252  0.00  0.00    +0.000 A 
ATOM     21  C   UNL     1      34.725  -1.829  16.951  0.00  0.00    +0.000 A 
ATOM     22  C   UNL     1      35.207  -1.001  17.938  0.00  0.00    +0.000 A 
ATOM     23  C   UNL     1      36.555  -1.038  18.206  0.00  0.00    +0.000 A 
ATOM     24  C   UNL     1      37.403  -1.882  17.507  0.00  0.00    +0.000 A 
ENDBRANCH  18  19
ENDBRANCH  14  18
ENDBRANCH   1  15
BRANCH   2  25
ATOM     25  N   UNL     1      39.165   0.540  15.141  0.00  0.00    +0.000 NA
ATOM     26  C   UNL     1      37.941   0.886  14.565  0.00  0.00    +0.000 C 
ATOM     27  O   UNL     1      37.731   0.706  13.361  0.00  0.00    +0.000 OA
BRANCH  26  28
ATOM     28  C   UNL     1      36.880   1.477  15.410  0.00  0.00    +0.000 A 
ATOM     29  C   UNL     1      35.528   1.468  15.156  0.00  0.00    +0.000 A 
ATOM     30  C   UNL     1      34.934   2.130  16.206  0.00  0.00    +0.000 A 
ATOM     31  C   UNL     1      35.943   2.515  17.055  0.00  0.00    +0.000 A 
ATOM     32  O   UNL     1      37.055   2.108  16.543  0.00  0.00    +0.000 OA
ENDBRANCH  26  28
ENDBRANCH   2  25
TORSDOF 6
ENDMDL
MODEL 3
REMARK VINA RESULT:      -7.4      3.169      6.331
REMARK  Name = 
REMARK  6 active torsions:
REMARK  status: ('A' for Active; 'I' for Inactive)
REMARK    1  A    between atoms: C_2  and  N_3
REMARK    2  A    between atoms: C_2  and  C_27
REMARK    3  A    between atoms: C_4  and  C_6
REMARK    4  A    between atoms: C_7  and  N_8
REMARK    5  A    between atoms: C_9  and  C_11
REMARK    6  A    between atoms: C_21  and  C_22
REMARK                            x       y       z     vdW  Elec       q    Type
REMARK                         _______ _______ _______ _____ _____    ______ ____
ROOT
ATOM      1  C   UNL     1      37.671   0.261  15.179  0.00  0.00    +0.000 A 
ATOM      2  C   UNL     1      36.440   0.851  15.071  0.00  0.00    +0.000 A 
ATOM      3  S   UNL     1      35.451  -0.111  16.075  0.00  0.00    +0.000 S 
ATOM      4  C   UNL     1      36.641  -1.256  16.617  0.00  0.00    +0.000 A 
ATOM      5  C   UNL     1      37.759  -0.819  15.976  0.00  0.00    +0.000 A 
ATOM      6  C   UNL     1      38.929  -1.742  16.348  0.00  0.00    +0.000 C 
ATOM      7  C   UNL     1      38.408  -3.034  15.772  0.00  0.00    +0.000 C 
ATOM      8  C   UNL     1      37.403  -3.695  16.842  0.00  0.00    +0.000 C 
ATOM      9  C   UNL     1      36.727  -2.417  17.493  0.00  0.00    +0.000 C 
ENDROOT
BRANCH   8  10
ATOM     10  C   UNL     1      36.210  -4.088  15.834  0.00  0.00    +0.000 C 
ATOM     11  C   UNL     1      36.630  -3.902  14.432  0.00  0.00    +0.000 C 
ATOM     12  C   UNL     1      34.920  -3.525  16.204  0.00  0.00    +0.000 C 
ATOM     13  C   UNL     1      36.086  -5.575  16.227  0.00  0.00    +0.000 C 
ENDBRANCH   8  10
BRANCH   1  15
ATOM     14  N   UNL     1      39.264   0.161  13.263  0.00  0.00    +0.000 NA
ATOM     15  C   UNL     1      38.841   0.812  14.438  0.00  0.00    +0.000 C 
ATOM     16  O   UNL     1      39.428   1.847  14.873  0.00  0.00    +0.000 OA
BRANCH  14  18
ATOM     17  C   UNL     1      40.432  -0.056  11.249  0.00  0.00    +0.000 C 
ATOM     18  C   UNL     1      40.498   0.862  12.607  0.00  0.00    +0.000 C 
BRANCH  18  19
ATOM     19  C   UNL     1      41.582  -0.058  13.333  0.00  0.00    +0.000 A 
ATOM     20  C   UNL     1      41.276  -1.393  13.421  0.00  0.00    +0.000 A 
ATOM     21  C   UNL     1      42.176  -2.215  14.038  0.00  0.00    +0.000 A 
ATOM     22  C   UNL     1      43.355  -1.732  14.559  0.00  0.00    +0.000 A 
ATOM     23  C   UNL     1      43.605  -0.386  14.440  0.00  0.00    +0.000 A 
ATOM     24  C   UNL     1      42.702   0.461  13.817  0.00  0.00    +0.000 A 
ENDBRANCH  18  19
ENDBRANCH  14  18
ENDBRANCH   1  15
BRANCH   2  25
ATOM     25  N   UNL     1      36.091   2.012  14.285  0.00  0.00    +0.000 NA
ATOM     26  C   UNL     1      36.034   3.265  14.897  0.00  0.00    +0.000 C 
ATOM     27  O   UNL     1      36.278   3.396  16.101  0.00  0.00    +0.000 OA
BRANCH  26  28
ATOM     28  C   UNL     1      35.678   4.453  14.092  0.00  0.00    +0.000 A 
ATOM     29  C   UNL     1      36.275   4.861  12.921  0.00  0.00    +0.000 A 
ATOM     30  C   UNL     1      35.619   6.007  12.533  0.00  0.00    +0.000 A 
ATOM     31  C   UNL     1      34.652   6.251  13.477  0.00  0.00    +0.000 A 
ATOM     32  O   UNL     1      34.731   5.315  14.361  0.00  0.00    +0.000 OA
ENDBRANCH  26  28
ENDBRANCH   2  25
TORSDOF 6
ENDMDL
MODEL 4
REMARK VINA RESULT:      -7.4      1.687      2.340
REMARK  Name = 
REMARK  6 active torsions:
REMARK  status: ('A' for Active; 'I' for Inactive)
REMARK    1  A    between atoms: C_2  and  N_3
REMARK    2  A    between atoms: C_2  and  C_27
REMARK    3  A    between atoms: C_4  and  C_6
REMARK    4  A    between atoms: C_7  and  N_8
REMARK    5  A    between atoms: C_9  and  C_11
REMARK    6  A    between atoms: C_21  and  C_22
REMARK                            x       y       z     vdW  Elec       q    Type
REMARK                         _______ _______ _______ _____ _____    ______ ____
ROOT
ATOM      1  C   UNL     1      38.488   0.469  14.321  0.00  0.00    +0.000 A 
ATOM      2  C   UNL     1      39.223   1.624  14.347  0.00  0.00    +0.000 A 
ATOM      3  S   UNL     1      40.144   1.538  12.913  0.00  0.00    +0.000 S 
ATOM      4  C   UNL     1      39.566   0.016  12.305  0.00  0.00    +0.000 A 
ATOM      5  C   UNL     1      38.675  -0.346  13.268  0.00  0.00    +0.000 A 
ATOM      6  C   UNL     1      38.061  -1.700  12.881  0.00  0.00    +0.000 C 
ATOM      7  C   UNL     1      39.309  -2.546  12.910  0.00  0.00    +0.000 C 
ATOM      8  C   UNL     1      40.073  -2.368  11.505  0.00  0.00    +0.000 C 
ATOM      9  C   UNL     1      39.767  -0.852  11.153  0.00  0.00    +0.000 C 
ENDROOT
BRANCH   8  10
ATOM     10  C   UNL     1      41.566  -2.166  12.072  0.00  0.00    +0.000 C 
ATOM     11  C   UNL     1      41.571  -2.191  13.547  0.00  0.00    +0.000 C 
ATOM     12  C   UNL     1      42.291  -1.073  11.441  0.00  0.00    +0.000 C 
ATOM     13  C   UNL     1      42.199  -3.430  11.452  0.00  0.00    +0.000 C 
ENDBRANCH   8  10
BRANCH   1  15
ATOM     14  N   UNL     1      37.905  -0.800  16.387  0.00  0.00    +0.000 NA
ATOM     15  C   UNL     1      37.533   0.156  15.422  0.00  0.00    +0.000 C 
ATOM     16  O   UNL     1      36.414   0.750  15.470  0.00  0.00    +0.000 OA
BRANCH  14  18
ATOM     17  C   UNL     1      37.813  -1.766  18.515  0.00  0.00    +0.000 C 
ATOM     18  C   UNL     1      36.797  -1.012  17.471  0.00  0.00    +0.000 C 
BRANCH  18  19
ATOM     19  C   UNL     1      36.238  -2.364  16.834  0.00  0.00    +0.000 A 
ATOM     20  C   UNL     1      34.949  -2.320  16.362  0.00  0.00    +0.000 A 
ATOM     21  C   UNL     1      34.432  -3.458  15.811  0.00  0.00    +0.000 A 
ATOM     22  C   UNL     1      35.168  -4.618  15.727  0.00  0.00    +0.000 A 
ATOM     23  C   UNL     1      36.452  -4.600  16.216  0.00  0.00    +0.000 A 
ATOM     24  C   UNL     1      36.991  -3.453  16.778  0.00  0.00    +0.000 A 
ENDBRANCH  18  19
ENDBRANCH  14  18
ENDBRANCH   1  15
BRANCH   2  25
ATOM     25  N   UNL     1      39.203   2.652  15.361  0.00  0.00    +0.000 NA
ATOM     26  C   UNL     1      38.444   3.806  15.156  0.00  0.00    +0.000 C 
ATOM     27  O   UNL     1      37.790   3.960  14.120  0.00  0.00    +0.000 OA
BRANCH  26  28
ATOM     28  C   UNL     1      38.423   4.858  16.195  0.00  0.00    +0.000 A 
ATOM     29  C   UNL     1      38.604   4.681  17.547  0.00  0.00    +0.000 A 
ATOM     30  C   UNL     1      38.502   5.929  18.117  0.00  0.00    +0.000 A 
ATOM     31  C   UNL     1      38.264   6.814  17.095  0.00  0.00    +0.000 A 
ATOM     32  O   UNL     1      38.228   6.137  15.998  0.00  0.00    +0.000 OA
ENDBRANCH  26  28
ENDBRANCH   2  25
TORSDOF 6
ENDMDL
MODEL 5
REMARK VINA RESULT:      -7.3      2.777      6.446
REMARK  Name = 
REMARK  6 active torsions:
REMARK  status: ('A' for Active; 'I' for Inactive)
REMARK    1  A    between atoms: C_2  and  N_3
REMARK    2  A    between atoms: C_2  and  C_27
REMARK    3  A    between atoms: C_4  and  C_6
REMARK    4  A    between atoms: C_7  and  N_8
REMARK    5  A    between atoms: C_9  and  C_11
REMARK    6  A    between atoms: C_21  and  C_22
REMARK                            x       y       z     vdW  Elec       q    Type
REMARK                         _______ _______ _______ _____ _____    ______ ____
ROOT
ATOM      1  C   UNL     1      39.144   2.033  13.854  0.00  0.00    +0.000 A 
ATOM      2  C   UNL     1      39.695   0.801  14.081  0.00  0.00    +0.000 A 
ATOM      3  S   UNL     1      40.472   0.437  12.607  0.00  0.00    +0.000 S 
ATOM      4  C   UNL     1      40.075   1.880  11.723  0.00  0.00    +0.000 A 
ATOM      5  C   UNL     1      39.347   2.575  12.640  0.00  0.00    +0.000 A 
ATOM      6  C   UNL     1      38.903   3.903  12.008  0.00  0.00    +0.000 C 
ATOM      7  C   UNL     1      38.049   3.362  10.890  0.00  0.00    +0.000 C 
ATOM      8  C   UNL     1      39.011   2.973   9.661  0.00  0.00    +0.000 C 
ATOM      9  C   UNL     1      40.312   2.463  10.409  0.00  0.00    +0.000 C 
ENDROOT
BRANCH   8  10
ATOM     10  C   UNL     1      38.379   1.534   9.311  0.00  0.00    +0.000 C 
ATOM     11  C   UNL     1      37.272   1.214  10.233  0.00  0.00    +0.000 C 
ATOM     12  C   UNL     1      39.371   0.491   9.104  0.00  0.00    +0.000 C 
ATOM     13  C   UNL     1      37.890   1.862   7.884  0.00  0.00    +0.000 C 
ENDBRANCH   8  10
BRANCH   1  15
ATOM     14  N   UNL     1      38.965   3.779  15.626  0.00  0.00    +0.000 NA
ATOM     15  C   UNL     1      38.361   2.720  14.921  0.00  0.00    +0.000 C 
ATOM     16  O   UNL     1      37.178   2.343  15.172  0.00  0.00    +0.000 OA
BRANCH  14  18
ATOM     17  C   UNL     1      37.578   5.657  15.758  0.00  0.00    +0.000 C 
ATOM     18  C   UNL     1      38.015   4.391  16.707  0.00  0.00    +0.000 C 
BRANCH  18  19
ATOM     19  C   UNL     1      39.168   5.191  17.467  0.00  0.00    +0.000 A 
ATOM     20  C   UNL     1      40.202   5.645  16.687  0.00  0.00    +0.000 A 
ATOM     21  C   UNL     1      41.210   6.332  17.300  0.00  0.00    +0.000 A 
ATOM     22  C   UNL     1      41.203   6.568  18.655  0.00  0.00    +0.000 A 
ATOM     23  C   UNL     1      40.140   6.089  19.384  0.00  0.00    +0.000 A 
ATOM     24  C   UNL     1      39.109   5.390  18.777  0.00  0.00    +0.000 A 
ENDBRANCH  18  19
ENDBRANCH  14  18
ENDBRANCH   1  15
BRANCH   2  25
ATOM     25  N   UNL     1      39.618   0.016  15.292  0.00  0.00    +0.000 NA
ATOM     26  C   UNL     1      38.637  -0.970  15.412  0.00  0.00    +0.000 C 
ATOM     27  O   UNL     1      37.834  -1.181  14.498  0.00  0.00    +0.000 OA
BRANCH  26  28
ATOM     28  C   UNL     1      38.559  -1.772  16.652  0.00  0.00    +0.000 A 
ATOM     29  C   UNL     1      39.028  -3.053  16.831  0.00  0.00    +0.000 A 
ATOM     30  C   UNL     1      38.738  -3.392  18.133  0.00  0.00    +0.000 A 
ATOM     31  C   UNL     1      38.106  -2.308  18.694  0.00  0.00    +0.000 A 
ATOM     32  O   UNL     1      38.029  -1.394  17.787  0.00  0.00    +0.000 OA
ENDBRANCH  26  28
ENDBRANCH   2  25
TORSDOF 6
ENDMDL
MODEL 6
REMARK VINA RESULT:      -7.1      3.076      6.337
REMARK  Name = 
REMARK  6 active torsions:
REMARK  status: ('A' for Active; 'I' for Inactive)
REMARK    1  A    between atoms: C_2  and  N_3
REMARK    2  A    between atoms: C_2  and  C_27
REMARK    3  A    between atoms: C_4  and  C_6
REMARK    4  A    between atoms: C_7  and  N_8
REMARK    5  A    between atoms: C_9  and  C_11
REMARK    6  A    between atoms: C_21  and  C_22
REMARK                            x       y       z     vdW  Elec       q    Type
REMARK                         _______ _______ _______ _____ _____    ______ ____
ROOT
ATOM      1  C   UNL     1      37.799   0.569  14.531  0.00  0.00    +0.000 A 
ATOM      2  C   UNL     1      36.612   1.192  14.812  0.00  0.00    +0.000 A 
ATOM      3  S   UNL     1      36.020   0.327  16.158  0.00  0.00    +0.000 S 
ATOM      4  C   UNL     1      37.312  -0.822  16.336  0.00  0.00    +0.000 A 
ATOM      5  C   UNL     1      38.144  -0.463  15.321  0.00  0.00    +0.000 A 
ATOM      6  C   UNL     1      39.362  -1.399  15.332  0.00  0.00    +0.000 C 
ATOM      7  C   UNL     1      38.661  -2.706  15.060  0.00  0.00    +0.000 C 
ATOM      8  C   UNL     1      38.080  -3.267  16.452  0.00  0.00    +0.000 C 
ATOM      9  C   UNL     1      37.683  -1.930  17.207  0.00  0.00    +0.000 C 
ENDROOT
BRANCH   8  10
ATOM     10  C   UNL     1      36.609  -3.680  15.946  0.00  0.00    +0.000 C 
ATOM     11  C   UNL     1      36.490  -3.496  14.487  0.00  0.00    +0.000 C 
ATOM     12  C   UNL     1      35.533  -3.134  16.758  0.00  0.00    +0.000 C 
ATOM     13  C   UNL     1      36.656  -5.168  16.356  0.00  0.00    +0.000 C 
ENDBRANCH   8  10
BRANCH   1  15
ATOM     14  N   UNL     1      38.563   0.353  12.167  0.00  0.00    +0.000 NA
ATOM     15  C   UNL     1      38.647   1.035  13.397  0.00  0.00    +0.000 C 
ATOM     16  O   UNL     1      39.420   2.026  13.557  0.00  0.00    +0.000 OA
BRANCH  14  18
ATOM     17  C   UNL     1      38.294   1.238  10.019  0.00  0.00    +0.000 C 
ATOM     18  C   UNL     1      39.512   0.964  11.084  0.00  0.00    +0.000 C 
BRANCH  18  19
ATOM     19  C   UNL     1      39.923  -0.443  10.452  0.00  0.00    +0.000 A 
ATOM     20  C   UNL     1      40.274  -0.427   9.125  0.00  0.00    +0.000 A 
ATOM     21  C   UNL     1      40.631  -1.611   8.545  0.00  0.00    +0.000 A 
ATOM     22  C   UNL     1      40.641  -2.789   9.256  0.00  0.00    +0.000 A 
ATOM     23  C   UNL     1      40.281  -2.741  10.582  0.00  0.00    +0.000 A 
ATOM     24  C   UNL     1      39.917  -1.547  11.185  0.00  0.00    +0.000 A 
ENDBRANCH  18  19
ENDBRANCH  14  18
ENDBRANCH   1  15
BRANCH   2  25
ATOM     25  N   UNL     1      36.025   2.313  14.115  0.00  0.00    +0.000 NA
ATOM     26  C   UNL     1      36.259   3.609  14.578  0.00  0.00    +0.000 C 
ATOM     27  O   UNL     1      36.960   3.811  15.575  0.00  0.00    +0.000 OA
BRANCH  26  28
ATOM     28  C   UNL     1      35.658   4.757  13.864  0.00  0.00    +0.000 A 
ATOM     29  C   UNL     1      36.048   5.261  12.645  0.00  0.00    +0.000 A 
ATOM     30  C   UNL     1      35.211   6.320  12.380  0.00  0.00    +0.000 A 
ATOM     31  C   UNL     1      34.347   6.420  13.443  0.00  0.00    +0.000 A 
ATOM     32  O   UNL     1      34.653   5.485  14.278  0.00  0.00    +0.000 OA
ENDBRANCH  26  28
ENDBRANCH   2  25
TORSDOF 6
ENDMDL
MODEL 7
REMARK VINA RESULT:      -7.1      3.329      4.657
REMARK  Name = 
REMARK  6 active torsions:
REMARK  status: ('A' for Active; 'I' for Inactive)
REMARK    1  A    between atoms: C_2  and  N_3
REMARK    2  A    between atoms: C_2  and  C_27
REMARK    3  A    between atoms: C_4  and  C_6
REMARK    4  A    between atoms: C_7  and  N_8
REMARK    5  A    between atoms: C_9  and  C_11
REMARK    6  A    between atoms: C_21  and  C_22
REMARK                            x       y       z     vdW  Elec       q    Type
REMARK                         _______ _______ _______ _____ _____    ______ ____
ROOT
ATOM      1  C   UNL     1      39.203  -1.240  14.048  0.00  0.00    +0.000 A 
ATOM      2  C   UNL     1      38.669  -0.215  13.313  0.00  0.00    +0.000 A 
ATOM      3  S   UNL     1      39.745  -0.069  11.998  0.00  0.00    +0.000 S 
ATOM      4  C   UNL     1      40.864  -1.330  12.416  0.00  0.00    +0.000 A 
ATOM      5  C   UNL     1      40.329  -1.803  13.575  0.00  0.00    +0.000 A 
ATOM      6  C   UNL     1      41.216  -2.944  14.094  0.00  0.00    +0.000 C 
ATOM      7  C   UNL     1      42.490  -2.172  14.325  0.00  0.00    +0.000 C 
ATOM      8  C   UNL     1      43.272  -2.055  12.924  0.00  0.00    +0.000 C 
ATOM      9  C   UNL     1      42.077  -1.941  11.888  0.00  0.00    +0.000 C 
ENDROOT
BRANCH   8  10
ATOM     10  C   UNL     1      43.653  -0.492  12.995  0.00  0.00    +0.000 C 
ATOM     11  C   UNL     1      43.128   0.116  14.232  0.00  0.00    +0.000 C 
ATOM     12  C   UNL     1      43.398   0.232  11.758  0.00  0.00    +0.000 C 
ATOM     13  C   UNL     1      45.188  -0.651  13.014  0.00  0.00    +0.000 C 
ENDBRANCH   8  10
BRANCH   1  15
ATOM     14  N   UNL     1      37.726  -2.837  15.268  0.00  0.00    +0.000 NA
ATOM     15  C   UNL     1      38.545  -1.691  15.307  0.00  0.00    +0.000 C 
ATOM     16  O   UNL     1      38.732  -1.043  16.380  0.00  0.00    +0.000 OA
BRANCH  14  18
ATOM     17  C   UNL     1      38.119  -4.448  16.917  0.00  0.00    +0.000 C 
ATOM     18  C   UNL     1      37.113  -3.175  16.667  0.00  0.00    +0.000 C 
BRANCH  18  19
ATOM     19  C   UNL     1      35.922  -4.064  16.084  0.00  0.00    +0.000 A 
ATOM     20  C   UNL     1      34.885  -3.376  15.504  0.00  0.00    +0.000 A 
ATOM     21  C   UNL     1      33.845  -4.100  14.995  0.00  0.00    +0.000 A 
ATOM     22  C   UNL     1      33.824  -5.474  15.056  0.00  0.00    +0.000 A 
ATOM     23  C   UNL     1      34.891  -6.107  15.648  0.00  0.00    +0.000 A 
ATOM     24  C   UNL     1      35.954  -5.387  16.169  0.00  0.00    +0.000 A 
ENDBRANCH  18  19
ENDBRANCH  14  18
ENDBRANCH   1  15
BRANCH   2  25
ATOM     25  N   UNL     1      37.475   0.544  13.608  0.00  0.00    +0.000 NA
ATOM     26  C   UNL     1      37.559   1.661  14.441  0.00  0.00    +0.000 C 
ATOM     27  O   UNL     1      38.639   2.009  14.930  0.00  0.00    +0.000 OA
BRANCH  26  28
ATOM     28  C   UNL     1      36.338   2.438  14.742  0.00  0.00    +0.000 A 
ATOM     29  C   UNL     1      35.269   2.026  15.504  0.00  0.00    +0.000 A 
ATOM     30  C   UNL     1      34.372   3.070  15.508  0.00  0.00    +0.000 A 
ATOM     31  C   UNL     1      34.928   4.074  14.752  0.00  0.00    +0.000 A 
ATOM     32  O   UNL     1      36.072   3.652  14.331  0.00  0.00    +0.000 OA
ENDBRANCH  26  28
ENDBRANCH   2  25
TORSDOF 6
ENDMDL
MODEL 8
REMARK VINA RESULT:      -7.0      2.507      6.434
REMARK  Name = 
REMARK  6 active torsions:
REMARK  status: ('A' for Active; 'I' for Inactive)
REMARK    1  A    between atoms: C_2  and  N_3
REMARK    2  A    between atoms: C_2  and  C_27
REMARK    3  A    between atoms: C_4  and  C_6
REMARK    4  A    between atoms: C_7  and  N_8
REMARK    5  A    between atoms: C_9  and  C_11
REMARK    6  A    between atoms: C_21  and  C_22
REMARK                            x       y       z     vdW  Elec       q    Type
REMARK                         _______ _______ _______ _____ _____    ______ ____
ROOT
ATOM      1  C   UNL     1      39.818   0.294  14.228  0.00  0.00    +0.000 A 
ATOM      2  C   UNL     1      39.372  -0.701  15.057  0.00  0.00    +0.000 A 
ATOM      3  S   UNL     1      40.533  -1.934  14.855  0.00  0.00    +0.000 S 
ATOM      4  C   UNL     1      41.573  -1.148  13.706  0.00  0.00    +0.000 A 
ATOM      5  C   UNL     1      40.948   0.050  13.542  0.00  0.00    +0.000 A 
ATOM      6  C   UNL     1      41.751   0.886  12.533  0.00  0.00    +0.000 C 
ATOM      7  C   UNL     1      41.612  -0.002  11.323  0.00  0.00    +0.000 C 
ATOM      8  C   UNL     1      42.726  -1.159  11.415  0.00  0.00    +0.000 C 
ATOM      9  C   UNL     1      42.806  -1.417  12.978  0.00  0.00    +0.000 C 
ENDROOT
BRANCH   8  10
ATOM     10  C   UNL     1      41.795  -2.416  11.031  0.00  0.00    +0.000 C 
ATOM     11  C   UNL     1      40.405  -1.980  10.797  0.00  0.00    +0.000 C 
ATOM     12  C   UNL     1      41.975  -3.568  11.900  0.00  0.00    +0.000 C 
ATOM     13  C   UNL     1      42.519  -2.823   9.730  0.00  0.00    +0.000 C 
ENDBRANCH   8  10
BRANCH   1  15
ATOM     14  N   UNL     1      39.337   2.603  15.039  0.00  0.00    +0.000 NA
ATOM     15  C   UNL     1      39.066   1.576  14.113  0.00  0.00    +0.000 C 
ATOM     16  O   UNL     1      38.206   1.718  13.194  0.00  0.00    +0.000 OA
BRANCH  14  18
ATOM     17  C   UNL     1      39.628   4.616  13.885  0.00  0.00    +0.000 C 
ATOM     18  C   UNL     1      38.468   3.878  14.781  0.00  0.00    +0.000 C 
BRANCH  18  19
ATOM     19  C   UNL     1      38.877   4.601  16.144  0.00  0.00    +0.000 A 
ATOM     20  C   UNL     1      39.926   5.484  16.066  0.00  0.00    +0.000 A 
ATOM     21  C   UNL     1      40.309   6.122  17.212  0.00  0.00    +0.000 A 
ATOM     22  C   UNL     1      39.674   5.896  18.411  0.00  0.00    +0.000 A 
ATOM     23  C   UNL     1      38.631   5.001  18.426  0.00  0.00    +0.000 A 
ATOM     24  C   UNL     1      38.230   4.345  17.272  0.00  0.00    +0.000 A 
ENDBRANCH  18  19
ENDBRANCH  14  18
ENDBRANCH   1  15
BRANCH   2  25
ATOM     25  N   UNL     1      38.193  -0.682  15.893  0.00  0.00    +0.000 NA
ATOM     26  C   UNL     1      36.996  -1.207  15.404  0.00  0.00    +0.000 C 
ATOM     27  O   UNL     1      36.930  -1.688  14.268  0.00  0.00    +0.000 OA
BRANCH  26  28
ATOM     28  C   UNL     1      35.789  -1.188  16.260  0.00  0.00    +0.000 A 
ATOM     29  C   UNL     1      34.878  -2.207  16.416  0.00  0.00    +0.000 A 
ATOM     30  C   UNL     1      33.930  -1.744  17.300  0.00  0.00    +0.000 A 
ATOM     31  C   UNL     1      34.300  -0.468  17.647  0.00  0.00    +0.000 A 
ATOM     32  O   UNL     1      35.390  -0.195  17.012  0.00  0.00    +0.000 OA
ENDBRANCH  26  28
ENDBRANCH   2  25
TORSDOF 6
ENDMDL
MODEL 9
REMARK VINA RESULT:      -7.0      3.061      7.835
REMARK  Name = 
REMARK  6 active torsions:
REMARK  status: ('A' for Active; 'I' for Inactive)
REMARK    1  A    between atoms: C_2  and  N_3
REMARK    2  A    between atoms: C_2  and  C_27
REMARK    3  A    between atoms: C_4  and  C_6
REMARK    4  A    between atoms: C_7  and  N_8
REMARK    5  A    between atoms: C_9  and  C_11
REMARK    6  A    between atoms: C_21  and  C_22
REMARK                            x       y       z     vdW  Elec       q    Type
REMARK                         _______ _______ _______ _____ _____    ______ ____
ROOT
ATOM      1  C   UNL     1      37.898   4.646  15.734  0.00  0.00    +0.000 A 
ATOM      2  C   UNL     1      37.492   3.440  15.228  0.00  0.00    +0.000 A 
ATOM      3  S   UNL     1      37.204   3.779  13.582  0.00  0.00    +0.000 S 
ATOM      4  C   UNL     1      37.612   5.468  13.572  0.00  0.00    +0.000 A 
ATOM      5  C   UNL     1      37.955   5.677  14.873  0.00  0.00    +0.000 A 
ATOM      6  C   UNL     1      38.348   7.152  15.044  0.00  0.00    +0.000 C 
ATOM      7  C   UNL     1      37.031   7.793  14.690  0.00  0.00    +0.000 C 
ATOM      8  C   UNL     1      36.931   7.893  13.087  0.00  0.00    +0.000 C 
ATOM      9  C   UNL     1      37.683   6.575  12.628  0.00  0.00    +0.000 C 
ENDROOT
BRANCH   8  10
ATOM     10  C   UNL     1      35.422   7.360  12.910  0.00  0.00    +0.000 C 
ATOM     11  C   UNL     1      34.842   6.997  14.217  0.00  0.00    +0.000 C 
ATOM     12  C   UNL     1      35.264   6.388  11.839  0.00  0.00    +0.000 C 
ATOM     13  C   UNL     1      34.811   8.651  12.324  0.00  0.00    +0.000 C 
ENDBRANCH   8  10
BRANCH   1  15
ATOM     14  N   UNL     1      39.076   5.854  17.571  0.00  0.00    +0.000 NA
ATOM     15  C   UNL     1      38.256   4.779  17.175  0.00  0.00    +0.000 C 
ATOM     16  O   UNL     1      37.819   3.933  18.011  0.00  0.00    +0.000 OA
BRANCH  14  18
ATOM     17  C   UNL     1      38.847   7.399  19.311  0.00  0.00    +0.000 C 
ATOM     18  C   UNL     1      39.356   5.852  19.110  0.00  0.00    +0.000 C 
BRANCH  18  19
ATOM     19  C   UNL     1      40.898   6.239  18.970  0.00  0.00    +0.000 A 
ATOM     20  C   UNL     1      41.592   6.382  20.146  0.00  0.00    +0.000 A 
ATOM     21  C   UNL     1      42.914   6.716  20.070  0.00  0.00    +0.000 A 
ATOM     22  C   UNL     1      43.542   6.906  18.861  0.00  0.00    +0.000 A 
ATOM     23  C   UNL     1      42.795   6.748  17.718  0.00  0.00    +0.000 A 
ATOM     24  C   UNL     1      41.452   6.410  17.778  0.00  0.00    +0.000 A 
ENDBRANCH  18  19
ENDBRANCH  14  18
ENDBRANCH   1  15
BRANCH   2  25
ATOM     25  N   UNL     1      37.349   2.193  15.944  0.00  0.00    +0.000 NA
ATOM     26  C   UNL     1      36.087   1.796  16.389  0.00  0.00    +0.000 C 
ATOM     27  O   UNL     1      35.090   2.495  16.179  0.00  0.00    +0.000 OA
BRANCH  26  28
ATOM     28  C   UNL     1      35.941   0.519  17.121  0.00  0.00    +0.000 A 
ATOM     29  C   UNL     1      35.059  -0.497  16.833  0.00  0.00    +0.000 A 
ATOM     30  C   UNL     1      35.279  -1.477  17.773  0.00  0.00    +0.000 A 
ATOM     31  C   UNL     1      36.281  -1.022  18.594  0.00  0.00    +0.000 A 
ATOM     32  O   UNL     1      36.629   0.145  18.169  0.00  0.00    +0.000 OA
ENDBRANCH  26  28
ENDBRANCH   2  25
TORSDOF 6
ENDMDL
MODEL 10
REMARK VINA RESULT:      -6.9      2.550      7.326
REMARK  Name = 
REMARK  6 active torsions:
REMARK  status: ('A' for Active; 'I' for Inactive)
REMARK    1  A    between atoms: C_2  and  N_3
REMARK    2  A    between atoms: C_2  and  C_27
REMARK    3  A    between atoms: C_4  and  C_6
REMARK    4  A    between atoms: C_7  and  N_8
REMARK    5  A    between atoms: C_9  and  C_11
REMARK    6  A    between atoms: C_21  and  C_22
REMARK                            x       y       z     vdW  Elec       q    Type
REMARK                         _______ _______ _______ _____ _____    ______ ____
ROOT
ATOM      1  C   UNL     1      36.341   0.819  14.975  0.00  0.00    +0.000 A 
ATOM      2  C   UNL     1      36.793  -0.086  14.052  0.00  0.00    +0.000 A 
ATOM      3  S   UNL     1      36.414  -1.592  14.757  0.00  0.00    +0.000 S 
ATOM      4  C   UNL     1      35.680  -1.030  16.229  0.00  0.00    +0.000 A 
ATOM      5  C   UNL     1      35.773   0.320  16.087  0.00  0.00    +0.000 A 
ATOM      6  C   UNL     1      35.161   0.986  17.328  0.00  0.00    +0.000 C 
ATOM      7  C   UNL     1      36.107   0.455  18.375  0.00  0.00    +0.000 C 
ATOM      8  C   UNL     1      35.621  -1.021  18.793  0.00  0.00    +0.000 C 
ATOM      9  C   UNL     1      35.053  -1.582  17.423  0.00  0.00    +0.000 C 
ENDROOT
BRANCH   8  10
ATOM     10  C   UNL     1      37.051  -1.760  18.759  0.00  0.00    +0.000 C 
ATOM     11  C   UNL     1      38.116  -0.814  18.373  0.00  0.00    +0.000 C 
ATOM     12  C   UNL     1      37.036  -3.037  18.063  0.00  0.00    +0.000 C 
ATOM     13  C   UNL     1      37.118  -2.156  20.249  0.00  0.00    +0.000 C 
ENDBRANCH   8  10
BRANCH   1  15
ATOM     14  N   UNL     1      37.671   2.922  15.146  0.00  0.00    +0.000 NA
ATOM     15  C   UNL     1      36.486   2.283  14.732  0.00  0.00    +0.000 C 
ATOM     16  O   UNL     1      35.551   2.920  14.161  0.00  0.00    +0.000 OA
BRANCH  14  18
ATOM     17  C   UNL     1      39.000   4.360  13.868  0.00  0.00    +0.000 C 
ATOM     18  C   UNL     1      37.665   4.452  14.818  0.00  0.00    +0.000 C 
BRANCH  18  19
ATOM     19  C   UNL     1      38.470   4.877  16.130  0.00  0.00    +0.000 A 
ATOM     20  C   UNL     1      39.580   5.659  15.929  0.00  0.00    +0.000 A 
ATOM     21  C   UNL     1      40.298   6.042  17.026  0.00  0.00    +0.000 A 
ATOM     22  C   UNL     1      39.931   5.663  18.297  0.00  0.00    +0.000 A 
ATOM     23  C   UNL     1      38.810   4.880  18.434  0.00  0.00    +0.000 A 
ATOM     24  C   UNL     1      38.071   4.483  17.331  0.00  0.00    +0.000 A 
ENDBRANCH  18  19
ENDBRANCH  14  18
ENDBRANCH   1  15
BRANCH   2  25
ATOM     25  N   UNL     1      37.435   0.197  12.789  0.00  0.00    +0.000 NA
ATOM     26  C   UNL     1      38.829   0.248  12.722  0.00  0.00    +0.000 C 
ATOM     27  O   UNL     1      39.520   0.054  13.728  0.00  0.00    +0.000 OA
BRANCH  26  28
ATOM     28  C   UNL     1      39.486   0.537  11.429  0.00  0.00    +0.000 A 
ATOM     29  C   UNL     1      39.994   1.747  11.019  0.00  0.00    +0.000 A 
ATOM     30  C   UNL     1      40.505   1.544   9.758  0.00  0.00    +0.000 A 
ATOM     31  C   UNL     1      40.289   0.223   9.450  0.00  0.00    +0.000 A 
ATOM     32  O   UNL     1      39.692  -0.316  10.459  0.00  0.00    +0.000 OA
ENDBRANCH  26  28
ENDBRANCH   2  25
TORSDOF 6
ENDMDL
