MODEL 1
REMARK VINA RESULT:      -6.1      0.000      0.000
REMARK  Name = 
REMARK  4 active torsions:
REMARK  status: ('A' for Active; 'I' for Inactive)
REMARK    1  A    between atoms: C_2  and  O_3
REMARK    2  A    between atoms: O_3  and  C_4
REMARK    3  A    between atoms: C_4  and  C_6
REMARK    4  A    between atoms: C_9  and  C_10
REMARK                            x       y       z     vdW  Elec       q    Type
REMARK                         _______ _______ _______ _____ _____    ______ ____
ROOT
ATOM      1  C   UNL     1      18.469  10.030  36.665  0.00  0.00    +0.000 C 
ATOM      2  C   UNL     1      17.902  10.302  37.785  0.00  0.00    +0.000 C 
ATOM      3  C   UNL     1      16.409  10.532  37.733  0.00  0.00    +0.000 C 
ATOM      4  C   UNL     1      18.570  10.421  39.158  0.00  0.00    +0.000 C 
ATOM      5  N   UNL     1      20.030  10.153  38.934  0.00  0.00    +0.000 NA
ATOM      6  C   UNL     1      20.622   9.864  37.744  0.00  0.00    +0.000 C 
ATOM      7  O   UNL     1      21.882   9.638  37.591  0.00  0.00    +0.000 OA
ATOM      8  N   UNL     1      19.854   9.794  36.569  0.00  0.00    +0.000 NA
ENDROOT
BRANCH   4   9
ATOM      9  C   UNL     1      18.161   9.036  39.802  0.00  0.00    +0.000 A 
ATOM     10  C   UNL     1      18.841   7.906  39.568  0.00  0.00    +0.000 A 
ATOM     11  C   UNL     1      18.429   6.700  40.171  0.00  0.00    +0.000 A 
ATOM     12  C   UNL     1      17.333   6.667  41.000  0.00  0.00    +0.000 A 
ATOM     13  F   UNL     1      16.928   5.493  41.591  0.00  0.00    +0.000 F 
ATOM     14  C   UNL     1      16.646   7.833  41.231  0.00  0.00    +0.000 A 
ATOM     15  C   UNL     1      17.068   9.034  40.623  0.00  0.00    +0.000 A 
ENDBRANCH   4   9
BRANCH   1  16
ATOM     16  C   UNL     1      17.695   9.945  35.390  0.00  0.00    +0.000 C 
ATOM     17  O   UNL     1      17.292   8.833  34.974  0.00  0.00    +0.000 OA
BRANCH  16  18
ATOM     18  O   UNL     1      17.437  11.098  34.688  0.00  0.00    +0.000 OA
BRANCH  18  20
ATOM     19  C   UNL     1      15.179  11.943  34.428  0.00  0.00    +0.000 C 
ATOM     20  C   UNL     1      16.338  11.219  33.779  0.00  0.00    +0.000 C 
ENDBRANCH  18  20
ENDBRANCH  16  18
ENDBRANCH   1  16
TORSDOF 4
ENDMDL
MODEL 2
REMARK VINA RESULT:      -5.9     20.105     21.229
REMARK  Name = 
REMARK  4 active torsions:
REMARK  status: ('A' for Active; 'I' for Inactive)
REMARK    1  A    between atoms: C_2  and  O_3
REMARK    2  A    between atoms: O_3  and  C_4
REMARK    3  A    between atoms: C_4  and  C_6
REMARK    4  A    between atoms: C_9  and  C_10
REMARK                            x       y       z     vdW  Elec       q    Type
REMARK                         _______ _______ _______ _____ _____    ______ ____
ROOT
ATOM      1  C   UNL     1      20.045  -7.587  25.521  0.00  0.00    +0.000 C 
ATOM      2  C   UNL     1      19.100  -8.452  25.427  0.00  0.00    +0.000 C 
ATOM      3  C   UNL     1      19.503  -9.821  24.930  0.00  0.00    +0.000 C 
ATOM      4  C   UNL     1      17.619  -8.248  25.759  0.00  0.00    +0.000 C 
ATOM      5  N   UNL     1      17.489  -6.825  26.221  0.00  0.00    +0.000 NA
ATOM      6  C   UNL     1      18.496  -5.915  26.319  0.00  0.00    +0.000 C 
ATOM      7  O   UNL     1      18.345  -4.701  26.722  0.00  0.00    +0.000 OA
ATOM      8  N   UNL     1      19.809  -6.272  25.969  0.00  0.00    +0.000 NA
ENDROOT
BRANCH   4   9
ATOM      9  C   UNL     1      17.531  -8.971  27.162  0.00  0.00    +0.000 A 
ATOM     10  C   UNL     1      18.293  -8.613  28.204  0.00  0.00    +0.000 A 
ATOM     11  C   UNL     1      18.171  -9.296  29.431  0.00  0.00    +0.000 A 
ATOM     12  C   UNL     1      17.278 -10.330  29.574  0.00  0.00    +0.000 A 
ATOM     13  F   UNL     1      17.155 -10.999  30.770  0.00  0.00    +0.000 F 
ATOM     14  C   UNL     1      16.504 -10.686  28.498  0.00  0.00    +0.000 A 
ATOM     15  C   UNL     1      16.633  -9.996  27.275  0.00  0.00    +0.000 A 
ENDBRANCH   4   9
BRANCH   1  16
ATOM     16  C   UNL     1      21.456  -7.919  25.162  0.00  0.00    +0.000 C 
ATOM     17  O   UNL     1      22.174  -8.558  25.966  0.00  0.00    +0.000 OA
BRANCH  16  18
ATOM     18  O   UNL     1      21.948  -7.513  23.945  0.00  0.00    +0.000 OA
BRANCH  18  20
ATOM     19  C   UNL     1      24.090  -6.391  24.125  0.00  0.00    +0.000 C 
ATOM     20  C   UNL     1      22.627  -6.266  23.762  0.00  0.00    +0.000 C 
ENDBRANCH  18  20
ENDBRANCH  16  18
ENDBRANCH   1  16
TORSDOF 4
ENDMDL
MODEL 3
REMARK VINA RESULT:      -5.8     21.280     23.470
REMARK  Name = 
REMARK  4 active torsions:
REMARK  status: ('A' for Active; 'I' for Inactive)
REMARK    1  A    between atoms: C_2  and  O_3
REMARK    2  A    between atoms: O_3  and  C_4
REMARK    3  A    between atoms: C_4  and  C_6
REMARK    4  A    between atoms: C_9  and  C_10
REMARK                            x       y       z     vdW  Elec       q    Type
REMARK                         _______ _______ _______ _____ _____    ______ ____
ROOT
ATOM      1  C   UNL     1      28.306  25.718  22.876  0.00  0.00    +0.000 C 
ATOM      2  C   UNL     1      29.226  24.945  23.328  0.00  0.00    +0.000 C 
ATOM      3  C   UNL     1      30.389  25.629  24.011  0.00  0.00    +0.000 C 
ATOM      4  C   UNL     1      29.276  23.417  23.249  0.00  0.00    +0.000 C 
ATOM      5  N   UNL     1      28.024  22.997  22.533  0.00  0.00    +0.000 NA
ATOM      6  C   UNL     1      27.054  23.822  22.058  0.00  0.00    +0.000 C 
ATOM      7  O   UNL     1      25.991  23.424  21.447  0.00  0.00    +0.000 OA
ATOM      8  N   UNL     1      27.168  25.214  22.216  0.00  0.00    +0.000 NA
ENDROOT
BRANCH   4   9
ATOM      9  C   UNL     1      28.855  23.034  24.725  0.00  0.00    +0.000 A 
ATOM     10  C   UNL     1      27.609  23.205  25.184  0.00  0.00    +0.000 A 
ATOM     11  C   UNL     1      27.293  22.846  26.510  0.00  0.00    +0.000 A 
ATOM     12  C   UNL     1      28.250  22.320  27.343  0.00  0.00    +0.000 A 
ATOM     13  F   UNL     1      27.946  21.968  28.638  0.00  0.00    +0.000 F 
ATOM     14  C   UNL     1      29.524  22.150  26.859  0.00  0.00    +0.000 A 
ATOM     15  C   UNL     1      29.829  22.512  25.530  0.00  0.00    +0.000 A 
ENDBRANCH   4   9
BRANCH   1  16
ATOM     16  C   UNL     1      28.382  27.202  23.019  0.00  0.00    +0.000 C 
ATOM     17  O   UNL     1      27.758  27.776  23.943  0.00  0.00    +0.000 OA
BRANCH  16  18
ATOM     18  O   UNL     1      29.142  27.921  22.128  0.00  0.00    +0.000 OA
BRANCH  18  20
ATOM     19  C   UNL     1      29.767  27.163  19.911  0.00  0.00    +0.000 C 
ATOM     20  C   UNL     1      28.823  28.010  20.735  0.00  0.00    +0.000 C 
ENDBRANCH  18  20
ENDBRANCH  16  18
ENDBRANCH   1  16
TORSDOF 4
ENDMDL
MODEL 4
REMARK VINA RESULT:      -5.7     18.176     20.398
REMARK  Name = 
REMARK  4 active torsions:
REMARK  status: ('A' for Active; 'I' for Inactive)
REMARK    1  A    between atoms: C_2  and  O_3
REMARK    2  A    between atoms: O_3  and  C_4
REMARK    3  A    between atoms: C_4  and  C_6
REMARK    4  A    between atoms: C_9  and  C_10
REMARK                            x       y       z     vdW  Elec       q    Type
REMARK                         _______ _______ _______ _____ _____    ______ ____
ROOT
ATOM      1  C   UNL     1      28.591  23.290  29.812  0.00  0.00    +0.000 C 
ATOM      2  C   UNL     1      28.042  24.332  29.302  0.00  0.00    +0.000 C 
ATOM      3  C   UNL     1      28.985  25.366  28.730  0.00  0.00    +0.000 C 
ATOM      4  C   UNL     1      26.544  24.642  29.213  0.00  0.00    +0.000 C 
ATOM      5  N   UNL     1      25.841  23.475  29.845  0.00  0.00    +0.000 NA
ATOM      6  C   UNL     1      26.431  22.374  30.381  0.00  0.00    +0.000 C 
ATOM      7  O   UNL     1      25.792  21.390  30.915  0.00  0.00    +0.000 OA
ATOM      8  N   UNL     1      27.831  22.249  30.381  0.00  0.00    +0.000 NA
ENDROOT
BRANCH   4   9
ATOM      9  C   UNL     1      26.266  24.305  27.694  0.00  0.00    +0.000 A 
ATOM     10  C   UNL     1      26.768  23.217  27.095  0.00  0.00    +0.000 A 
ATOM     11  C   UNL     1      26.486  22.969  25.737  0.00  0.00    +0.000 A 
ATOM     12  C   UNL     1      25.699  23.832  25.013  0.00  0.00    +0.000 A 
ATOM     13  F   UNL     1      25.420  23.594  23.687  0.00  0.00    +0.000 F 
ATOM     14  C   UNL     1      25.191  24.943  25.640  0.00  0.00    +0.000 A 
ATOM     15  C   UNL     1      25.479  25.181  26.999  0.00  0.00    +0.000 A 
ENDBRANCH   4   9
BRANCH   1  16
ATOM     16  C   UNL     1      30.074  23.112  29.835  0.00  0.00    +0.000 C 
ATOM     17  O   UNL     1      30.767  23.732  30.676  0.00  0.00    +0.000 OA
BRANCH  16  18
ATOM     18  O   UNL     1      30.659  22.264  28.925  0.00  0.00    +0.000 OA
BRANCH  18  20
ATOM     19  C   UNL     1      30.379  22.332  26.517  0.00  0.00    +0.000 C 
ATOM     20  C   UNL     1      31.237  22.725  27.699  0.00  0.00    +0.000 C 
ENDBRANCH  18  20
ENDBRANCH  16  18
ENDBRANCH   1  16
TORSDOF 4
ENDMDL
MODEL 5
REMARK VINA RESULT:      -5.7      3.286      5.574
REMARK  Name = 
REMARK  4 active torsions:
REMARK  status: ('A' for Active; 'I' for Inactive)
REMARK    1  A    between atoms: C_2  and  O_3
REMARK    2  A    between atoms: O_3  and  C_4
REMARK    3  A    between atoms: C_4  and  C_6
REMARK    4  A    between atoms: C_9  and  C_10
REMARK                            x       y       z     vdW  Elec       q    Type
REMARK                         _______ _______ _______ _____ _____    ______ ____
ROOT
ATOM      1  C   UNL     1      20.327  10.611  38.842  0.00  0.00    +0.000 C 
ATOM      2  C   UNL     1      19.297  11.284  38.475  0.00  0.00    +0.000 C 
ATOM      3  C   UNL     1      19.552  12.719  38.073  0.00  0.00    +0.000 C 
ATOM      4  C   UNL     1      17.848  10.795  38.401  0.00  0.00    +0.000 C 
ATOM      5  N   UNL     1      17.869   9.361  38.847  0.00  0.00    +0.000 NA
ATOM      6  C   UNL     1      18.966   8.656  39.234  0.00  0.00    +0.000 C 
ATOM      7  O   UNL     1      18.945   7.423  39.610  0.00  0.00    +0.000 OA
ATOM      8  N   UNL     1      20.233   9.264  39.244  0.00  0.00    +0.000 NA
ENDROOT
BRANCH   4   9
ATOM      9  C   UNL     1      17.695  10.566  36.844  0.00  0.00    +0.000 A 
ATOM     10  C   UNL     1      18.166   9.474  36.228  0.00  0.00    +0.000 A 
ATOM     11  C   UNL     1      18.001   9.325  34.836  0.00  0.00    +0.000 A 
ATOM     12  C   UNL     1      17.360  10.290  34.097  0.00  0.00    +0.000 A 
ATOM     13  F   UNL     1      17.196  10.149  32.738  0.00  0.00    +0.000 F 
ATOM     14  C   UNL     1      16.882  11.404  34.742  0.00  0.00    +0.000 A 
ATOM     15  C   UNL     1      17.052  11.542  36.134  0.00  0.00    +0.000 A 
ENDBRANCH   4   9
BRANCH   1  16
ATOM     16  C   UNL     1      21.693  11.213  38.869  0.00  0.00    +0.000 C 
ATOM     17  O   UNL     1      22.188  11.597  39.955  0.00  0.00    +0.000 OA
BRANCH  16  18
ATOM     18  O   UNL     1      22.391  11.338  37.692  0.00  0.00    +0.000 OA
BRANCH  18  20
ATOM     19  C   UNL     1      22.895   9.351  36.396  0.00  0.00    +0.000 C 
ATOM     20  C   UNL     1      23.431  10.432  37.309  0.00  0.00    +0.000 C 
ENDBRANCH  18  20
ENDBRANCH  16  18
ENDBRANCH   1  16
TORSDOF 4
ENDMDL
MODEL 6
REMARK VINA RESULT:      -5.7     20.264     22.255
REMARK  Name = 
REMARK  4 active torsions:
REMARK  status: ('A' for Active; 'I' for Inactive)
REMARK    1  A    between atoms: C_2  and  O_3
REMARK    2  A    between atoms: O_3  and  C_4
REMARK    3  A    between atoms: C_4  and  C_6
REMARK    4  A    between atoms: C_9  and  C_10
REMARK                            x       y       z     vdW  Elec       q    Type
REMARK                         _______ _______ _______ _____ _____    ______ ____
ROOT
ATOM      1  C   UNL     1      26.103  25.365  24.431  0.00  0.00    +0.000 C 
ATOM      2  C   UNL     1      27.363  25.416  24.188  0.00  0.00    +0.000 C 
ATOM      3  C   UNL     1      28.111  26.573  24.810  0.00  0.00    +0.000 C 
ATOM      4  C   UNL     1      28.185  24.440  23.341  0.00  0.00    +0.000 C 
ATOM      5  N   UNL     1      27.218  23.403  22.847  0.00  0.00    +0.000 NA
ATOM      6  C   UNL     1      25.884  23.355  23.110  0.00  0.00    +0.000 C 
ATOM      7  O   UNL     1      25.085  22.447  22.667  0.00  0.00    +0.000 OA
ATOM      8  N   UNL     1      25.285  24.341  23.913  0.00  0.00    +0.000 NA
ENDROOT
BRANCH   4   9
ATOM      9  C   UNL     1      28.894  23.596  24.474  0.00  0.00    +0.000 A 
ATOM     10  C   UNL     1      28.222  23.069  25.506  0.00  0.00    +0.000 A 
ATOM     11  C   UNL     1      28.909  22.326  26.486  0.00  0.00    +0.000 A 
ATOM     12  C   UNL     1      30.267  22.132  26.399  0.00  0.00    +0.000 A 
ATOM     13  F   UNL     1      30.942  21.407  27.354  0.00  0.00    +0.000 F 
ATOM     14  C   UNL     1      30.943  22.678  25.336  0.00  0.00    +0.000 A 
ATOM     15  C   UNL     1      30.245  23.419  24.360  0.00  0.00    +0.000 A 
ENDBRANCH   4   9
BRANCH   1  16
ATOM     16  C   UNL     1      25.421  26.388  25.278  0.00  0.00    +0.000 C 
ATOM     17  O   UNL     1      25.209  27.537  24.824  0.00  0.00    +0.000 OA
BRANCH  16  18
ATOM     18  O   UNL     1      25.036  26.050  26.553  0.00  0.00    +0.000 OA
BRANCH  18  20
ATOM     19  C   UNL     1      25.712  24.212  27.983  0.00  0.00    +0.000 C 
ATOM     20  C   UNL     1      25.968  25.641  27.560  0.00  0.00    +0.000 C 
ENDBRANCH  18  20
ENDBRANCH  16  18
ENDBRANCH   1  16
TORSDOF 4
ENDMDL
MODEL 7
REMARK VINA RESULT:      -5.5      3.359      6.037
REMARK  Name = 
REMARK  4 active torsions:
REMARK  status: ('A' for Active; 'I' for Inactive)
REMARK    1  A    between atoms: C_2  and  O_3
REMARK    2  A    between atoms: O_3  and  C_4
REMARK    3  A    between atoms: C_4  and  C_6
REMARK    4  A    between atoms: C_9  and  C_10
REMARK                            x       y       z     vdW  Elec       q    Type
REMARK                         _______ _______ _______ _____ _____    ______ ____
ROOT
ATOM      1  C   UNL     1      18.401   9.556  39.291  0.00  0.00    +0.000 C 
ATOM      2  C   UNL     1      19.394  10.325  39.556  0.00  0.00    +0.000 C 
ATOM      3  C   UNL     1      20.260   9.911  40.725  0.00  0.00    +0.000 C 
ATOM      4  C   UNL     1      19.795  11.608  38.823  0.00  0.00    +0.000 C 
ATOM      5  N   UNL     1      18.788  11.791  37.724  0.00  0.00    +0.000 NA
ATOM      6  C   UNL     1      17.739  10.970  37.450  0.00  0.00    +0.000 C 
ATOM      7  O   UNL     1      16.894  11.159  36.495  0.00  0.00    +0.000 OA
ATOM      8  N   UNL     1      17.514   9.823  38.230  0.00  0.00    +0.000 NA
ENDROOT
BRANCH   4   9
ATOM      9  C   UNL     1      21.011  11.085  37.959  0.00  0.00    +0.000 A 
ATOM     10  C   UNL     1      20.896  10.060  37.104  0.00  0.00    +0.000 A 
ATOM     11  C   UNL     1      22.016   9.637  36.360  0.00  0.00    +0.000 A 
ATOM     12  C   UNL     1      23.231  10.264  36.500  0.00  0.00    +0.000 A 
ATOM     13  F   UNL     1      24.327   9.854  35.776  0.00  0.00    +0.000 F 
ATOM     14  C   UNL     1      23.334  11.312  37.381  0.00  0.00    +0.000 A 
ATOM     15  C   UNL     1      22.207  11.728  38.119  0.00  0.00    +0.000 A 
ENDBRANCH   4   9
BRANCH   1  16
ATOM     16  C   UNL     1      18.122   8.326  40.091  0.00  0.00    +0.000 C 
ATOM     17  O   UNL     1      17.302   8.368  41.039  0.00  0.00    +0.000 OA
BRANCH  16  18
ATOM     18  O   UNL     1      18.774   7.159  39.773  0.00  0.00    +0.000 OA
BRANCH  18  20
ATOM     19  C   UNL     1      19.538   4.871  40.024  0.00  0.00    +0.000 C 
ATOM     20  C   UNL     1      18.584   5.943  40.503  0.00  0.00    +0.000 C 
ENDBRANCH  18  20
ENDBRANCH  16  18
ENDBRANCH   1  16
TORSDOF 4
ENDMDL
MODEL 8
REMARK VINA RESULT:      -5.4     10.474     11.546
REMARK  Name = 
REMARK  4 active torsions:
REMARK  status: ('A' for Active; 'I' for Inactive)
REMARK    1  A    between atoms: C_2  and  O_3
REMARK    2  A    between atoms: O_3  and  C_4
REMARK    3  A    between atoms: C_4  and  C_6
REMARK    4  A    between atoms: C_9  and  C_10
REMARK                            x       y       z     vdW  Elec       q    Type
REMARK                         _______ _______ _______ _____ _____    ______ ____
ROOT
ATOM      1  C   UNL     1      19.688  21.695  36.713  0.00  0.00    +0.000 C 
ATOM      2  C   UNL     1      19.700  21.176  37.887  0.00  0.00    +0.000 C 
ATOM      3  C   UNL     1      18.430  20.476  38.315  0.00  0.00    +0.000 C 
ATOM      4  C   UNL     1      20.853  21.189  38.894  0.00  0.00    +0.000 C 
ATOM      5  N   UNL     1      21.975  21.935  38.232  0.00  0.00    +0.000 NA
ATOM      6  C   UNL     1      21.954  22.482  36.987  0.00  0.00    +0.000 C 
ATOM      7  O   UNL     1      22.939  23.116  36.451  0.00  0.00    +0.000 OA
ATOM      8  N   UNL     1      20.803  22.378  36.187  0.00  0.00    +0.000 NA
ENDROOT
BRANCH   4   9
ATOM      9  C   UNL     1      21.404  19.716  38.727  0.00  0.00    +0.000 A 
ATOM     10  C   UNL     1      22.227  19.366  37.730  0.00  0.00    +0.000 A 
ATOM     11  C   UNL     1      22.685  18.036  37.632  0.00  0.00    +0.000 A 
ATOM     12  C   UNL     1      22.299  17.090  38.549  0.00  0.00    +0.000 A 
ATOM     13  F   UNL     1      22.744  15.791  38.458  0.00  0.00    +0.000 F 
ATOM     14  C   UNL     1      21.455  17.463  39.566  0.00  0.00    +0.000 A 
ATOM     15  C   UNL     1      21.003  18.796  39.655  0.00  0.00    +0.000 A 
ENDBRANCH   4   9
BRANCH   1  16
ATOM     16  C   UNL     1      18.489  21.611  35.826  0.00  0.00    +0.000 C 
ATOM     17  O   UNL     1      17.593  22.485  35.898  0.00  0.00    +0.000 OA
BRANCH  16  18
ATOM     18  O   UNL     1      18.386  20.566  34.939  0.00  0.00    +0.000 OA
BRANCH  18  20
ATOM     19  C   UNL     1      17.352  20.446  32.749  0.00  0.00    +0.000 C 
ATOM     20  C   UNL     1      18.616  20.718  33.535  0.00  0.00    +0.000 C 
ENDBRANCH  18  20
ENDBRANCH  16  18
ENDBRANCH   1  16
TORSDOF 4
ENDMDL
MODEL 9
REMARK VINA RESULT:      -5.4     20.620     22.032
REMARK  Name = 
REMARK  4 active torsions:
REMARK  status: ('A' for Active; 'I' for Inactive)
REMARK    1  A    between atoms: C_2  and  O_3
REMARK    2  A    between atoms: O_3  and  C_4
REMARK    3  A    between atoms: C_4  and  C_6
REMARK    4  A    between atoms: C_9  and  C_10
REMARK                            x       y       z     vdW  Elec       q    Type
REMARK                         _______ _______ _______ _____ _____    ______ ____
ROOT
ATOM      1  C   UNL     1      16.908  -9.737  27.326  0.00  0.00    +0.000 C 
ATOM      2  C   UNL     1      17.533  -8.752  27.861  0.00  0.00    +0.000 C 
ATOM      3  C   UNL     1      18.426  -9.090  29.033  0.00  0.00    +0.000 C 
ATOM      4  C   UNL     1      17.473  -7.279  27.444  0.00  0.00    +0.000 C 
ATOM      5  N   UNL     1      16.530  -7.216  26.276  0.00  0.00    +0.000 NA
ATOM      6  C   UNL     1      15.873  -8.266  25.716  0.00  0.00    +0.000 C 
ATOM      7  O   UNL     1      15.071  -8.173  24.711  0.00  0.00    +0.000 OA
ATOM      8  N   UNL     1      16.043  -9.564  26.227  0.00  0.00    +0.000 NA
ENDROOT
BRANCH   4   9
ATOM      9  C   UNL     1      18.841  -7.139  26.664  0.00  0.00    +0.000 A 
ATOM     10  C   UNL     1      19.629  -8.190  26.402  0.00  0.00    +0.000 A 
ATOM     11  C   UNL     1      20.839  -8.004  25.702  0.00  0.00    +0.000 A 
ATOM     12  C   UNL     1      21.224  -6.753  25.283  0.00  0.00    +0.000 A 
ATOM     13  F   UNL     1      22.403  -6.567  24.600  0.00  0.00    +0.000 F 
ATOM     14  C   UNL     1      20.406  -5.686  25.559  0.00  0.00    +0.000 A 
ATOM     15  C   UNL     1      19.198  -5.883  26.259  0.00  0.00    +0.000 A 
ENDBRANCH   4   9
BRANCH   1  16
ATOM     16  C   UNL     1      17.057 -11.134  27.834  0.00  0.00    +0.000 C 
ATOM     17  O   UNL     1      16.526 -11.466  28.920  0.00  0.00    +0.000 OA
BRANCH  16  18
ATOM     18  O   UNL     1      17.782 -12.039  27.096  0.00  0.00    +0.000 OA
BRANCH  18  20
ATOM     19  C   UNL     1      20.195 -11.826  27.211  0.00  0.00    +0.000 C 
ATOM     20  C   UNL     1      18.954 -11.675  26.359  0.00  0.00    +0.000 C 
ENDBRANCH  18  20
ENDBRANCH  16  18
ENDBRANCH   1  16
TORSDOF 4
ENDMDL
MODEL 10
REMARK VINA RESULT:      -5.3     20.625     21.831
REMARK  Name = 
REMARK  4 active torsions:
REMARK  status: ('A' for Active; 'I' for Inactive)
REMARK    1  A    between atoms: C_2  and  O_3
REMARK    2  A    between atoms: O_3  and  C_4
REMARK    3  A    between atoms: C_4  and  C_6
REMARK    4  A    between atoms: C_9  and  C_10
REMARK                            x       y       z     vdW  Elec       q    Type
REMARK                         _______ _______ _______ _____ _____    ______ ____
ROOT
ATOM      1  C   UNL     1      16.734 -10.575  27.293  0.00  0.00    +0.000 C 
ATOM      2  C   UNL     1      17.849 -10.299  26.720  0.00  0.00    +0.000 C 
ATOM      3  C   UNL     1      17.898 -10.516  25.225  0.00  0.00    +0.000 C 
ATOM      4  C   UNL     1      19.128  -9.777  27.382  0.00  0.00    +0.000 C 
ATOM      5  N   UNL     1      18.817  -9.653  28.846  0.00  0.00    +0.000 NA
ATOM      6  C   UNL     1      17.632  -9.948  29.445  0.00  0.00    +0.000 C 
ATOM      7  O   UNL     1      17.402  -9.827  30.707  0.00  0.00    +0.000 OA
ATOM      8  N   UNL     1      16.551 -10.421  28.681  0.00  0.00    +0.000 NA
ENDROOT
BRANCH   4   9
ATOM      9  C   UNL     1      19.061  -8.248  26.985  0.00  0.00    +0.000 A 
ATOM     10  C   UNL     1      18.084  -7.437  27.412  0.00  0.00    +0.000 A 
ATOM     11  C   UNL     1      18.076  -6.082  27.024  0.00  0.00    +0.000 A 
ATOM     12  C   UNL     1      19.061  -5.578  26.210  0.00  0.00    +0.000 A 
ATOM     13  F   UNL     1      19.057  -4.256  25.829  0.00  0.00    +0.000 F 
ATOM     14  C   UNL     1      20.056  -6.421  25.780  0.00  0.00    +0.000 A 
ATOM     15  C   UNL     1      20.054  -7.775  26.174  0.00  0.00    +0.000 A 
ENDBRANCH   4   9
BRANCH   1  16
ATOM     16  C   UNL     1      15.557 -11.081  26.525  0.00  0.00    +0.000 C 
ATOM     17  O   UNL     1      15.528 -12.272  26.135  0.00  0.00    +0.000 OA
BRANCH  16  18
ATOM     18  O   UNL     1      14.518 -10.223  26.255  0.00  0.00    +0.000 OA
BRANCH  18  20
ATOM     19  C   UNL     1      14.951  -8.572  24.532  0.00  0.00    +0.000 C 
ATOM     20  C   UNL     1      14.713  -8.827  26.004  0.00  0.00    +0.000 C 
ENDBRANCH  18  20
ENDBRANCH  16  18
ENDBRANCH   1  16
TORSDOF 4
ENDMDL
