MODEL 1
REMARK VINA RESULT:      -8.9      0.000      0.000
REMARK  Name = 
REMARK  1 active torsions:
REMARK  status: ('A' for Active; 'I' for Inactive)
REMARK    1  A    between atoms: C_5  and  C_6
REMARK                            x       y       z     vdW  Elec       q    Type
REMARK                         _______ _______ _______ _____ _____    ______ ____
ROOT
ATOM      1  C   UNL     1      15.179  11.634  36.306  0.00  0.00    +0.000 A 
ATOM      2  C   UNL     1      14.305  12.688  36.191  0.00  0.00    +0.000 A 
ATOM      3  C   UNL     1      14.061  13.266  34.966  0.00  0.00    +0.000 A 
ATOM      4  N   UNL     1      13.261  14.250  34.783  0.00  0.00    +0.000 NA
ATOM      5  O   UNL     1      13.073  14.772  33.514  0.00  0.00    +0.000 OA
ATOM      6  C   UNL     1      14.726  12.743  33.878  0.00  0.00    +0.000 A 
ATOM      7  C   UNL     1      14.546  13.257  32.610  0.00  0.00    +0.000 A 
ATOM      8  C   UNL     1      15.196  12.757  31.502  0.00  0.00    +0.000 A 
ATOM      9  C   UNL     1      15.010  13.302  30.135  0.00  0.00    +0.000 C 
ATOM     10  C   UNL     1      16.053  11.709  31.673  0.00  0.00    +0.000 A 
ATOM     11  C   UNL     1      16.252  11.179  32.916  0.00  0.00    +0.000 A 
ATOM     12  C   UNL     1      17.184  10.046  33.077  0.00  0.00    +0.000 C 
ATOM     13  C   UNL     1      15.610  11.670  34.022  0.00  0.00    +0.000 A 
ATOM     14  O   UNL     1      15.774  11.190  35.227  0.00  0.00    +0.000 OA
ENDROOT
BRANCH   1  19
ATOM     15  C   UNL     1      16.237   9.225  41.446  0.00  0.00    +0.000 C 
ATOM     16  C   UNL     1      15.943   9.850  40.124  0.00  0.00    +0.000 A 
ATOM     17  C   UNL     1      16.944  10.001  39.188  0.00  0.00    +0.000 A 
ATOM     18  C   UNL     1      16.691  10.582  37.945  0.00  0.00    +0.000 A 
ATOM     19  C   UNL     1      15.430  11.027  37.609  0.00  0.00    +0.000 A 
ATOM     20  C   UNL     1      14.438  10.871  38.552  0.00  0.00    +0.000 A 
ATOM     21  C   UNL     1      14.682  10.294  39.788  0.00  0.00    +0.000 A 
ENDBRANCH   1  19
TORSDOF 1
ENDMDL
MODEL 2
REMARK VINA RESULT:      -8.6      2.218      7.154
REMARK  Name = 
REMARK  1 active torsions:
REMARK  status: ('A' for Active; 'I' for Inactive)
REMARK    1  A    between atoms: C_5  and  C_6
REMARK                            x       y       z     vdW  Elec       q    Type
REMARK                         _______ _______ _______ _____ _____    ______ ____
ROOT
ATOM      1  C   UNL     1      15.795  11.541  35.878  0.00  0.00    +0.000 A 
ATOM      2  C   UNL     1      17.137  11.249  35.938  0.00  0.00    +0.000 A 
ATOM      3  C   UNL     1      17.681  10.683  37.068  0.00  0.00    +0.000 A 
ATOM      4  N   UNL     1      18.920  10.384  37.195  0.00  0.00    +0.000 NA
ATOM      5  O   UNL     1      19.386   9.815  38.369  0.00  0.00    +0.000 OA
ATOM      6  C   UNL     1      16.827  10.427  38.120  0.00  0.00    +0.000 A 
ATOM      7  C   UNL     1      17.282   9.861  39.294  0.00  0.00    +0.000 A 
ATOM      8  C   UNL     1      16.454   9.593  40.363  0.00  0.00    +0.000 A 
ATOM      9  C   UNL     1      16.933   8.986  41.629  0.00  0.00    +0.000 C 
ATOM     10  C   UNL     1      15.130   9.903  40.250  0.00  0.00    +0.000 A 
ATOM     11  C   UNL     1      14.651  10.464  39.100  0.00  0.00    +0.000 A 
ATOM     12  C   UNL     1      13.216  10.792  39.001  0.00  0.00    +0.000 C 
ATOM     13  C   UNL     1      15.466  10.734  38.033  0.00  0.00    +0.000 A 
ATOM     14  O   UNL     1      15.046  11.269  36.917  0.00  0.00    +0.000 OA
ENDROOT
BRANCH   1  19
ATOM     15  C   UNL     1      13.582  13.875  31.083  0.00  0.00    +0.000 C 
ATOM     16  C   UNL     1      14.142  13.286  32.333  0.00  0.00    +0.000 A 
ATOM     17  C   UNL     1      15.027  12.230  32.270  0.00  0.00    +0.000 A 
ATOM     18  C   UNL     1      15.564  11.664  33.427  0.00  0.00    +0.000 A 
ATOM     19  C   UNL     1      15.227  12.141  34.676  0.00  0.00    +0.000 A 
ATOM     20  C   UNL     1      14.343  13.197  34.727  0.00  0.00    +0.000 A 
ATOM     21  C   UNL     1      13.807  13.763  33.582  0.00  0.00    +0.000 A 
ENDBRANCH   1  19
TORSDOF 1
ENDMDL
MODEL 3
REMARK VINA RESULT:      -8.5      1.801      3.022
REMARK  Name = 
REMARK  1 active torsions:
REMARK  status: ('A' for Active; 'I' for Inactive)
REMARK    1  A    between atoms: C_5  and  C_6
REMARK                            x       y       z     vdW  Elec       q    Type
REMARK                         _______ _______ _______ _____ _____    ______ ____
ROOT
ATOM      1  C   UNL     1      15.935  11.095  36.050  0.00  0.00    +0.000 A 
ATOM      2  C   UNL     1      16.546  10.485  34.981  0.00  0.00    +0.000 A 
ATOM      3  C   UNL     1      16.270  10.887  33.693  0.00  0.00    +0.000 A 
ATOM      4  N   UNL     1      16.801  10.366  32.650  0.00  0.00    +0.000 NA
ATOM      5  O   UNL     1      16.467  10.832  31.389  0.00  0.00    +0.000 OA
ATOM      6  C   UNL     1      15.366  11.915  33.534  0.00  0.00    +0.000 A 
ATOM      7  C   UNL     1      15.026  12.385  32.281  0.00  0.00    +0.000 A 
ATOM      8  C   UNL     1      14.125  13.410  32.087  0.00  0.00    +0.000 A 
ATOM      9  C   UNL     1      13.754  13.923  30.746  0.00  0.00    +0.000 C 
ATOM     10  C   UNL     1      13.548  13.980  33.184  0.00  0.00    +0.000 A 
ATOM     11  C   UNL     1      13.864  13.536  34.437  0.00  0.00    +0.000 A 
ATOM     12  C   UNL     1      13.227  14.167  35.609  0.00  0.00    +0.000 C 
ATOM     13  C   UNL     1      14.758  12.518  34.638  0.00  0.00    +0.000 A 
ATOM     14  O   UNL     1      15.086  12.065  35.820  0.00  0.00    +0.000 OA
ENDROOT
BRANCH   1  19
ATOM     15  C   UNL     1      17.057   9.395  41.453  0.00  0.00    +0.000 C 
ATOM     16  C   UNL     1      16.787   9.830  40.052  0.00  0.00    +0.000 A 
ATOM     17  C   UNL     1      15.530  10.262  39.687  0.00  0.00    +0.000 A 
ATOM     18  C   UNL     1      15.256  10.674  38.383  0.00  0.00    +0.000 A 
ATOM     19  C   UNL     1      16.234  10.662  37.411  0.00  0.00    +0.000 A 
ATOM     20  C   UNL     1      17.487  10.228  37.787  0.00  0.00    +0.000 A 
ATOM     21  C   UNL     1      17.765   9.819  39.081  0.00  0.00    +0.000 A 
ENDBRANCH   1  19
TORSDOF 1
ENDMDL
MODEL 4
REMARK VINA RESULT:      -7.9      2.081      6.823
REMARK  Name = 
REMARK  1 active torsions:
REMARK  status: ('A' for Active; 'I' for Inactive)
REMARK    1  A    between atoms: C_5  and  C_6
REMARK                            x       y       z     vdW  Elec       q    Type
REMARK                         _______ _______ _______ _____ _____    ______ ____
ROOT
ATOM      1  C   UNL     1      15.970  11.253  35.604  0.00  0.00    +0.000 A 
ATOM      2  C   UNL     1      15.008  11.316  36.582  0.00  0.00    +0.000 A 
ATOM      3  C   UNL     1      15.270  10.858  37.854  0.00  0.00    +0.000 A 
ATOM      4  N   UNL     1      14.423  10.885  38.814  0.00  0.00    +0.000 NA
ATOM      5  O   UNL     1      14.769  10.403  40.066  0.00  0.00    +0.000 OA
ATOM      6  C   UNL     1      16.525  10.342  38.092  0.00  0.00    +0.000 A 
ATOM      7  C   UNL     1      16.880   9.859  39.335  0.00  0.00    +0.000 A 
ATOM      8  C   UNL     1      18.126   9.336  39.606  0.00  0.00    +0.000 A 
ATOM      9  C   UNL     1      18.517   8.814  40.938  0.00  0.00    +0.000 C 
ATOM     10  C   UNL     1      19.044   9.298  38.597  0.00  0.00    +0.000 A 
ATOM     11  C   UNL     1      18.723   9.768  37.356  0.00  0.00    +0.000 A 
ATOM     12  C   UNL     1      19.731   9.716  36.280  0.00  0.00    +0.000 C 
ATOM     13  C   UNL     1      17.487  10.289  37.079  0.00  0.00    +0.000 A 
ATOM     14  O   UNL     1      17.141  10.749  35.905  0.00  0.00    +0.000 OA
ENDROOT
BRANCH   1  19
ATOM     15  C   UNL     1      14.786  13.220  30.306  0.00  0.00    +0.000 C 
ATOM     16  C   UNL     1      15.108  12.700  31.666  0.00  0.00    +0.000 A 
ATOM     17  C   UNL     1      14.372  13.108  32.759  0.00  0.00    +0.000 A 
ATOM     18  C   UNL     1      14.656  12.634  34.040  0.00  0.00    +0.000 A 
ATOM     19  C   UNL     1      15.683  11.741  34.259  0.00  0.00    +0.000 A 
ATOM     20  C   UNL     1      16.411  11.340  33.160  0.00  0.00    +0.000 A 
ATOM     21  C   UNL     1      16.134  11.807  31.885  0.00  0.00    +0.000 A 
ENDBRANCH   1  19
TORSDOF 1
ENDMDL
MODEL 5
REMARK VINA RESULT:      -7.6      2.903      5.225
REMARK  Name = 
REMARK  1 active torsions:
REMARK  status: ('A' for Active; 'I' for Inactive)
REMARK    1  A    between atoms: C_5  and  C_6
REMARK                            x       y       z     vdW  Elec       q    Type
REMARK                         _______ _______ _______ _____ _____    ______ ____
ROOT
ATOM      1  C   UNL     1      17.323  11.717  37.410  0.00  0.00    +0.000 A 
ATOM      2  C   UNL     1      16.857  12.430  36.332  0.00  0.00    +0.000 A 
ATOM      3  C   UNL     1      15.506  12.536  36.093  0.00  0.00    +0.000 A 
ATOM      4  N   UNL     1      15.000  13.183  35.110  0.00  0.00    +0.000 NA
ATOM      5  O   UNL     1      13.626  13.240  34.942  0.00  0.00    +0.000 OA
ATOM      6  C   UNL     1      14.658  11.902  36.974  0.00  0.00    +0.000 A 
ATOM      7  C   UNL     1      13.287  11.951  36.816  0.00  0.00    +0.000 A 
ATOM      8  C   UNL     1      12.413  11.327  37.679  0.00  0.00    +0.000 A 
ATOM      9  C   UNL     1      10.939  11.375  37.518  0.00  0.00    +0.000 C 
ATOM     10  C   UNL     1      12.929  10.633  38.733  0.00  0.00    +0.000 A 
ATOM     11  C   UNL     1      14.282  10.565  38.917  0.00  0.00    +0.000 A 
ATOM     12  C   UNL     1      14.818   9.807  40.063  0.00  0.00    +0.000 C 
ATOM     13  C   UNL     1      15.158  11.182  38.063  0.00  0.00    +0.000 A 
ATOM     14  O   UNL     1      16.457  11.141  38.204  0.00  0.00    +0.000 OA
ENDROOT
BRANCH   1  19
ATOM     15  C   UNL     1      23.000  11.358  38.399  0.00  0.00    +0.000 C 
ATOM     16  C   UNL     1      21.534  11.431  38.137  0.00  0.00    +0.000 A 
ATOM     17  C   UNL     1      20.843  12.601  38.369  0.00  0.00    +0.000 A 
ATOM     18  C   UNL     1      19.471  12.691  38.130  0.00  0.00    +0.000 A 
ATOM     19  C   UNL     1      18.758  11.611  37.655  0.00  0.00    +0.000 A 
ATOM     20  C   UNL     1      19.459  10.447  37.427  0.00  0.00    +0.000 A 
ATOM     21  C   UNL     1      20.821  10.352  37.662  0.00  0.00    +0.000 A 
ENDBRANCH   1  19
TORSDOF 1
ENDMDL
MODEL 6
REMARK VINA RESULT:      -7.4      3.329      7.373
REMARK  Name = 
REMARK  1 active torsions:
REMARK  status: ('A' for Active; 'I' for Inactive)
REMARK    1  A    between atoms: C_5  and  C_6
REMARK                            x       y       z     vdW  Elec       q    Type
REMARK                         _______ _______ _______ _____ _____    ______ ____
ROOT
ATOM      1  C   UNL     1      17.491  10.412  36.381  0.00  0.00    +0.000 A 
ATOM      2  C   UNL     1      16.687  10.316  37.490  0.00  0.00    +0.000 A 
ATOM      3  C   UNL     1      17.226  10.036  38.725  0.00  0.00    +0.000 A 
ATOM      4  N   UNL     1      16.538   9.932  39.801  0.00  0.00    +0.000 NA
ATOM      5  O   UNL     1      17.162   9.647  41.005  0.00  0.00    +0.000 OA
ATOM      6  C   UNL     1      18.591   9.859  38.792  0.00  0.00    +0.000 A 
ATOM      7  C   UNL     1      19.222   9.574  39.986  0.00  0.00    +0.000 A 
ATOM      8  C   UNL     1      20.584   9.392  40.086  0.00  0.00    +0.000 A 
ATOM      9  C   UNL     1      21.271   9.086  41.364  0.00  0.00    +0.000 C 
ATOM     10  C   UNL     1      21.336   9.498  38.953  0.00  0.00    +0.000 A 
ATOM     11  C   UNL     1      20.741   9.779  37.756  0.00  0.00    +0.000 A 
ATOM     12  C   UNL     1      21.573   9.889  36.543  0.00  0.00    +0.000 C 
ATOM     13  C   UNL     1      19.387   9.962  37.648  0.00  0.00    +0.000 A 
ATOM     14  O   UNL     1      18.781  10.232  36.522  0.00  0.00    +0.000 OA
ENDROOT
BRANCH   1  19
ATOM     15  C   UNL     1      15.238  11.554  31.189  0.00  0.00    +0.000 C 
ATOM     16  C   UNL     1      15.805  11.272  32.539  0.00  0.00    +0.000 A 
ATOM     17  C   UNL     1      16.905  10.451  32.673  0.00  0.00    +0.000 A 
ATOM     18  C   UNL     1      17.452  10.174  33.927  0.00  0.00    +0.000 A 
ATOM     19  C   UNL     1      16.910  10.710  35.076  0.00  0.00    +0.000 A 
ATOM     20  C   UNL     1      15.811  11.528  34.929  0.00  0.00    +0.000 A 
ATOM     21  C   UNL     1      15.264  11.808  33.687  0.00  0.00    +0.000 A 
ENDBRANCH   1  19
TORSDOF 1
ENDMDL
MODEL 7
REMARK VINA RESULT:      -7.4     20.433     21.750
REMARK  Name = 
REMARK  1 active torsions:
REMARK  status: ('A' for Active; 'I' for Inactive)
REMARK    1  A    between atoms: C_5  and  C_6
REMARK                            x       y       z     vdW  Elec       q    Type
REMARK                         _______ _______ _______ _____ _____    ______ ____
ROOT
ATOM      1  C   UNL     1      33.549   0.324  35.479  0.00  0.00    +0.000 A 
ATOM      2  C   UNL     1      33.771   0.581  36.810  0.00  0.00    +0.000 A 
ATOM      3  C   UNL     1      34.014   1.864  37.244  0.00  0.00    +0.000 A 
ATOM      4  N   UNL     1      34.229   2.179  38.467  0.00  0.00    +0.000 NA
ATOM      5  O   UNL     1      34.465   3.497  38.819  0.00  0.00    +0.000 OA
ATOM      6  C   UNL     1      34.022   2.861  36.293  0.00  0.00    +0.000 A 
ATOM      7  C   UNL     1      34.256   4.178  36.634  0.00  0.00    +0.000 A 
ATOM      8  C   UNL     1      34.271   5.198  35.707  0.00  0.00    +0.000 A 
ATOM      9  C   UNL     1      34.522   6.616  36.063  0.00  0.00    +0.000 C 
ATOM     10  C   UNL     1      34.044   4.887  34.398  0.00  0.00    +0.000 A 
ATOM     11  C   UNL     1      33.809   3.592  34.030  0.00  0.00    +0.000 A 
ATOM     12  C   UNL     1      33.566   3.278  32.609  0.00  0.00    +0.000 C 
ATOM     13  C   UNL     1      33.792   2.573  34.945  0.00  0.00    +0.000 A 
ATOM     14  O   UNL     1      33.572   1.323  34.632  0.00  0.00    +0.000 OA
ENDROOT
BRANCH   1  19
ATOM     15  C   UNL     1      32.566  -5.060  33.638  0.00  0.00    +0.000 C 
ATOM     16  C   UNL     1      32.809  -3.674  34.131  0.00  0.00    +0.000 A 
ATOM     17  C   UNL     1      33.534  -2.782  33.370  0.00  0.00    +0.000 A 
ATOM     18  C   UNL     1      33.772  -1.480  33.812  0.00  0.00    +0.000 A 
ATOM     19  C   UNL     1      33.292  -1.040  35.027  0.00  0.00    +0.000 A 
ATOM     20  C   UNL     1      32.569  -1.940  35.779  0.00  0.00    +0.000 A 
ATOM     21  C   UNL     1      32.328  -3.234  35.346  0.00  0.00    +0.000 A 
ENDBRANCH   1  19
TORSDOF 1
ENDMDL
MODEL 8
REMARK VINA RESULT:      -7.2     28.586     31.732
REMARK  Name = 
REMARK  1 active torsions:
REMARK  status: ('A' for Active; 'I' for Inactive)
REMARK    1  A    between atoms: C_5  and  C_6
REMARK                            x       y       z     vdW  Elec       q    Type
REMARK                         _______ _______ _______ _____ _____    ______ ____
ROOT
ATOM      1  C   UNL     1      31.354  21.400  11.125  0.00  0.00    +0.000 A 
ATOM      2  C   UNL     1      32.407  21.024  11.923  0.00  0.00    +0.000 A 
ATOM      3  C   UNL     1      33.516  20.416  11.379  0.00  0.00    +0.000 A 
ATOM      4  N   UNL     1      34.533  20.039  12.060  0.00  0.00    +0.000 NA
ATOM      5  O   UNL     1      35.610  19.435  11.433  0.00  0.00    +0.000 OA
ATOM      6  C   UNL     1      33.517  20.208  10.017  0.00  0.00    +0.000 A 
ATOM      7  C   UNL     1      34.585  19.606   9.382  0.00  0.00    +0.000 A 
ATOM      8  C   UNL     1      34.617  19.383   8.022  0.00  0.00    +0.000 A 
ATOM      9  C   UNL     1      35.759  18.738   7.331  0.00  0.00    +0.000 C 
ATOM     10  C   UNL     1      33.544  19.777   7.277  0.00  0.00    +0.000 A 
ATOM     11  C   UNL     1      32.472  20.376   7.877  0.00  0.00    +0.000 A 
ATOM     12  C   UNL     1      31.323  20.792   7.051  0.00  0.00    +0.000 C 
ATOM     13  C   UNL     1      32.433  20.601   9.227  0.00  0.00    +0.000 A 
ATOM     14  O   UNL     1      31.426  21.169   9.838  0.00  0.00    +0.000 OA
ENDROOT
BRANCH   1  19
ATOM     15  C   UNL     1      26.682  23.926  13.391  0.00  0.00    +0.000 C 
ATOM     16  C   UNL     1      27.900  23.281  12.822  0.00  0.00    +0.000 A 
ATOM     17  C   UNL     1      27.826  22.575  11.639  0.00  0.00    +0.000 A 
ATOM     18  C   UNL     1      28.954  21.964  11.089  0.00  0.00    +0.000 A 
ATOM     19  C   UNL     1      30.182  22.043  11.710  0.00  0.00    +0.000 A 
ATOM     20  C   UNL     1      30.244  22.751  12.891  0.00  0.00    +0.000 A 
ATOM     21  C   UNL     1      29.129  23.360  13.442  0.00  0.00    +0.000 A 
ENDBRANCH   1  19
TORSDOF 1
ENDMDL
MODEL 9
REMARK VINA RESULT:      -7.2      3.140      7.870
REMARK  Name = 
REMARK  1 active torsions:
REMARK  status: ('A' for Active; 'I' for Inactive)
REMARK    1  A    between atoms: C_5  and  C_6
REMARK                            x       y       z     vdW  Elec       q    Type
REMARK                         _______ _______ _______ _____ _____    ______ ____
ROOT
ATOM      1  C   UNL     1      17.544  10.342  36.968  0.00  0.00    +0.000 A 
ATOM      2  C   UNL     1      18.907  10.182  37.023  0.00  0.00    +0.000 A 
ATOM      3  C   UNL     1      19.525   9.831  38.202  0.00  0.00    +0.000 A 
ATOM      4  N   UNL     1      20.788   9.664  38.328  0.00  0.00    +0.000 NA
ATOM      5  O   UNL     1      21.328   9.310  39.553  0.00  0.00    +0.000 OA
ATOM      6  C   UNL     1      18.720   9.651  39.306  0.00  0.00    +0.000 A 
ATOM      7  C   UNL     1      19.248   9.299  40.532  0.00  0.00    +0.000 A 
ATOM      8  C   UNL     1      18.471   9.112  41.654  0.00  0.00    +0.000 A 
ATOM      9  C   UNL     1      19.029   8.733  42.975  0.00  0.00    +0.000 C 
ATOM     10  C   UNL     1      17.122   9.284  41.543  0.00  0.00    +0.000 A 
ATOM     11  C   UNL     1      16.569   9.633  40.343  0.00  0.00    +0.000 A 
ATOM     12  C   UNL     1      15.108   9.814  40.247  0.00  0.00    +0.000 C 
ATOM     13  C   UNL     1      17.335   9.820  39.223  0.00  0.00    +0.000 A 
ATOM     14  O   UNL     1      16.844  10.154  38.058  0.00  0.00    +0.000 OA
ENDROOT
BRANCH   1  19
ATOM     15  C   UNL     1      15.034  11.779  31.970  0.00  0.00    +0.000 C 
ATOM     16  C   UNL     1      15.668  11.420  33.271  0.00  0.00    +0.000 A 
ATOM     17  C   UNL     1      16.766  10.587  33.304  0.00  0.00    +0.000 A 
ATOM     18  C   UNL     1      17.375  10.238  34.510  0.00  0.00    +0.000 A 
ATOM     19  C   UNL     1      16.898  10.714  35.713  0.00  0.00    +0.000 A 
ATOM     20  C   UNL     1      15.801  11.546  35.668  0.00  0.00    +0.000 A 
ATOM     21  C   UNL     1      15.192  11.896  34.474  0.00  0.00    +0.000 A 
ENDBRANCH   1  19
TORSDOF 1
ENDMDL
MODEL 10
REMARK VINA RESULT:      -7.2     20.790     22.407
REMARK  Name = 
REMARK  1 active torsions:
REMARK  status: ('A' for Active; 'I' for Inactive)
REMARK    1  A    between atoms: C_5  and  C_6
REMARK                            x       y       z     vdW  Elec       q    Type
REMARK                         _______ _______ _______ _____ _____    ______ ____
ROOT
ATOM      1  C   UNL     1      18.294  -8.798  27.772  0.00  0.00    +0.000 A 
ATOM      2  C   UNL     1      17.898  -7.504  27.534  0.00  0.00    +0.000 A 
ATOM      3  C   UNL     1      18.664  -6.670  26.752  0.00  0.00    +0.000 A 
ATOM      4  N   UNL     1      18.358  -5.455  26.487  0.00  0.00    +0.000 NA
ATOM      5  O   UNL     1      19.187  -4.683  25.689  0.00  0.00    +0.000 OA
ATOM      6  C   UNL     1      19.828  -7.189  26.228  0.00  0.00    +0.000 A 
ATOM      7  C   UNL     1      20.661  -6.428  25.432  0.00  0.00    +0.000 A 
ATOM      8  C   UNL     1      21.832  -6.917  24.894  0.00  0.00    +0.000 A 
ATOM      9  C   UNL     1      22.733  -6.108  24.038  0.00  0.00    +0.000 C 
ATOM     10  C   UNL     1      22.176  -8.209  25.163  0.00  0.00    +0.000 A 
ATOM     11  C   UNL     1      21.373  -8.988  25.947  0.00  0.00    +0.000 A 
ATOM     12  C   UNL     1      21.767 -10.382  26.225  0.00  0.00    +0.000 C 
ATOM     13  C   UNL     1      20.208  -8.509  26.486  0.00  0.00    +0.000 A 
ATOM     14  O   UNL     1      19.413  -9.222  27.241  0.00  0.00    +0.000 OA
ENDROOT
BRANCH   1  19
ATOM     15  C   UNL     1      15.024 -12.291  31.005  0.00  0.00    +0.000 C 
ATOM     16  C   UNL     1      15.878 -11.381  30.188  0.00  0.00    +0.000 A 
ATOM     17  C   UNL     1      15.748 -11.352  28.815  0.00  0.00    +0.000 A 
ATOM     18  C   UNL     1      16.537 -10.509  28.032  0.00  0.00    +0.000 A 
ATOM     19  C   UNL     1      17.475  -9.676  28.603  0.00  0.00    +0.000 A 
ATOM     20  C   UNL     1      17.595  -9.713  29.975  0.00  0.00    +0.000 A 
ATOM     21  C   UNL     1      16.815 -10.547  30.759  0.00  0.00    +0.000 A 
ENDBRANCH   1  19
TORSDOF 1
ENDMDL
