MODEL 1
REMARK VINA RESULT:      -6.3      0.000      0.000
REMARK  Name = 
REMARK  4 active torsions:
REMARK  status: ('A' for Active; 'I' for Inactive)
REMARK    1  A    between atoms: C_2  and  C_3
REMARK    2  A    between atoms: C_2  and  C_12
REMARK    3  A    between atoms: C_6  and  N_7
REMARK    4  A    between atoms: C_18  and  N_19
REMARK                            x       y       z     vdW  Elec       q    Type
REMARK                         _______ _______ _______ _____ _____    ______ ____
ROOT
ATOM      1  C   UNL     1      31.768  23.145  24.632  0.00  0.00    +0.000 C 
ATOM      2  C   UNL     1      30.190  23.123  24.213  0.00  0.00    +0.000 C 
ENDROOT
BRANCH   2   3
ATOM      3  C   UNL     1      30.005  24.667  24.079  0.00  0.00    +0.000 A 
ATOM      4  C   UNL     1      30.361  25.562  25.007  0.00  0.00    +0.000 A 
ATOM      5  C   UNL     1      30.179  26.938  24.859  0.00  0.00    +0.000 A 
ATOM      6  C   UNL     1      29.609  27.399  23.708  0.00  0.00    +0.000 A 
ATOM      7  N   UNL     1      29.395  28.814  23.499  0.00  0.00    +0.000 NA
ATOM      8  C   UNL     1      29.231  26.506  22.733  0.00  0.00    +0.000 A 
ATOM      9  C   UNL     1      29.432  25.121  22.919  0.00  0.00    +0.000 A 
BRANCH   9  10
ATOM     10  N   UNL     1      29.017  24.273  21.871  0.00  0.00    +0.000 N 
ATOM     11  O   UNL     1      29.662  24.233  20.816  0.00  0.00    +0.000 OA
ATOM     12  O   UNL     1      27.897  23.520  22.071  0.00  0.00    +0.000 OA
ENDBRANCH   9  10
ENDBRANCH   2   3
BRANCH   2  13
ATOM     13  C   UNL     1      29.575  22.951  25.631  0.00  0.00    +0.000 A 
ATOM     14  C   UNL     1      28.292  23.020  25.968  0.00  0.00    +0.000 A 
ATOM     15  C   UNL     1      27.880  22.844  27.284  0.00  0.00    +0.000 A 
ATOM     16  C   UNL     1      28.782  22.594  28.274  0.00  0.00    +0.000 A 
ATOM     17  C   UNL     1      30.116  22.517  27.948  0.00  0.00    +0.000 A 
ATOM     18  C   UNL     1      30.487  22.700  26.614  0.00  0.00    +0.000 A 
BRANCH  16  19
ATOM     19  N   UNL     1      28.329  22.417  29.626  0.00  0.00    +0.000 N 
ATOM     20  C   UNL     1      27.004  21.915  29.834  0.00  0.00    +0.000 C 
ATOM     21  C   UNL     1      29.214  22.747  30.710  0.00  0.00    +0.000 C 
ENDBRANCH  16  19
ENDBRANCH   2  13
TORSDOF 4
ENDMDL
MODEL 2
REMARK VINA RESULT:      -6.3     12.925     15.359
REMARK  Name = 
REMARK  4 active torsions:
REMARK  status: ('A' for Active; 'I' for Inactive)
REMARK    1  A    between atoms: C_2  and  C_3
REMARK    2  A    between atoms: C_2  and  C_12
REMARK    3  A    between atoms: C_6  and  N_7
REMARK    4  A    between atoms: C_18  and  N_19
REMARK                            x       y       z     vdW  Elec       q    Type
REMARK                         _______ _______ _______ _____ _____    ______ ____
ROOT
ATOM      1  C   UNL     1      33.150  20.442  12.079  0.00  0.00    +0.000 C 
ATOM      2  C   UNL     1      32.183  20.435  10.764  0.00  0.00    +0.000 C 
ENDROOT
BRANCH   2   3
ATOM      3  C   UNL     1      32.908  21.578   9.986  0.00  0.00    +0.000 A 
ATOM      4  C   UNL     1      33.588  22.578  10.557  0.00  0.00    +0.000 A 
ATOM      5  C   UNL     1      34.224  23.588   9.833  0.00  0.00    +0.000 A 
ATOM      6  C   UNL     1      34.150  23.557   8.470  0.00  0.00    +0.000 A 
ATOM      7  N   UNL     1      34.789  24.577   7.668  0.00  0.00    +0.000 NA
ATOM      8  C   UNL     1      33.459  22.543   7.851  0.00  0.00    +0.000 A 
ATOM      9  C   UNL     1      32.829  21.539   8.618  0.00  0.00    +0.000 A 
BRANCH   9  10
ATOM     10  N   UNL     1      32.140  20.535   7.905  0.00  0.00    +0.000 N 
ATOM     11  O   UNL     1      30.954  20.699   7.596  0.00  0.00    +0.000 OA
ATOM     12  O   UNL     1      32.829  19.402   7.583  0.00  0.00    +0.000 OA
ENDBRANCH   9  10
ENDBRANCH   2   3
BRANCH   2  13
ATOM     13  C   UNL     1      31.005  21.274  11.338  0.00  0.00    +0.000 A 
ATOM     14  C   UNL     1      29.878  21.612  10.720  0.00  0.00    +0.000 A 
ATOM     15  C   UNL     1      28.904  22.370  11.359  0.00  0.00    +0.000 A 
ATOM     16  C   UNL     1      29.073  22.794  12.643  0.00  0.00    +0.000 A 
ATOM     17  C   UNL     1      30.232  22.455  13.302  0.00  0.00    +0.000 A 
ATOM     18  C   UNL     1      31.186  21.692  12.624  0.00  0.00    +0.000 A 
BRANCH  16  19
ATOM     19  N   UNL     1      28.051  23.577  13.279  0.00  0.00    +0.000 N 
ATOM     20  C   UNL     1      26.688  23.338  12.906  0.00  0.00    +0.000 C 
ATOM     21  C   UNL     1      28.428  24.562  14.256  0.00  0.00    +0.000 C 
ENDBRANCH  16  19
ENDBRANCH   2  13
TORSDOF 4
ENDMDL
MODEL 3
REMARK VINA RESULT:      -6.0     32.131     34.588
REMARK  Name = 
REMARK  4 active torsions:
REMARK  status: ('A' for Active; 'I' for Inactive)
REMARK    1  A    between atoms: C_2  and  C_3
REMARK    2  A    between atoms: C_2  and  C_12
REMARK    3  A    between atoms: C_6  and  N_7
REMARK    4  A    between atoms: C_18  and  N_19
REMARK                            x       y       z     vdW  Elec       q    Type
REMARK                         _______ _______ _______ _____ _____    ______ ____
ROOT
ATOM      1  C   UNL     1      18.221  -5.835  27.241  0.00  0.00    +0.000 C 
ATOM      2  C   UNL     1      17.849  -6.927  26.086  0.00  0.00    +0.000 C 
ENDROOT
BRANCH   2   3
ATOM      3  C   UNL     1      17.593  -8.137  27.039  0.00  0.00    +0.000 A 
ATOM      4  C   UNL     1      18.226  -8.341  28.200  0.00  0.00    +0.000 A 
ATOM      5  C   UNL     1      17.976  -9.435  29.030  0.00  0.00    +0.000 A 
ATOM      6  C   UNL     1      17.037 -10.346  28.641  0.00  0.00    +0.000 A 
ATOM      7  N   UNL     1      16.737 -11.500  29.460  0.00  0.00    +0.000 NA
ATOM      8  C   UNL     1      16.368 -10.166  27.454  0.00  0.00    +0.000 A 
ATOM      9  C   UNL     1      16.648  -9.047  26.641  0.00  0.00    +0.000 A 
BRANCH   9  10
ATOM     10  N   UNL     1      15.917  -8.936  25.440  0.00  0.00    +0.000 N 
ATOM     11  O   UNL     1      16.330  -9.486  24.412  0.00  0.00    +0.000 OA
ATOM     12  O   UNL     1      14.763  -8.210  25.466  0.00  0.00    +0.000 OA
ENDBRANCH   9  10
ENDBRANCH   2   3
BRANCH   2  13
ATOM     13  C   UNL     1      19.294  -7.299  25.644  0.00  0.00    +0.000 A 
ATOM     14  C   UNL     1      19.736  -8.488  25.248  0.00  0.00    +0.000 A 
ATOM     15  C   UNL     1      21.063  -8.678  24.879  0.00  0.00    +0.000 A 
ATOM     16  C   UNL     1      21.955  -7.649  24.911  0.00  0.00    +0.000 A 
ATOM     17  C   UNL     1      21.519  -6.409  25.317  0.00  0.00    +0.000 A 
ATOM     18  C   UNL     1      20.178  -6.261  25.680  0.00  0.00    +0.000 A 
BRANCH  16  19
ATOM     19  N   UNL     1      23.320  -7.874  24.524  0.00  0.00    +0.000 N 
ATOM     20  C   UNL     1      24.100  -6.745  24.112  0.00  0.00    +0.000 C 
ATOM     21  C   UNL     1      23.849  -9.210  24.564  0.00  0.00    +0.000 C 
ENDBRANCH  16  19
ENDBRANCH   2  13
TORSDOF 4
ENDMDL
MODEL 4
REMARK VINA RESULT:      -5.8      1.920      2.416
REMARK  Name = 
REMARK  4 active torsions:
REMARK  status: ('A' for Active; 'I' for Inactive)
REMARK    1  A    between atoms: C_2  and  C_3
REMARK    2  A    between atoms: C_2  and  C_12
REMARK    3  A    between atoms: C_6  and  N_7
REMARK    4  A    between atoms: C_18  and  N_19
REMARK                            x       y       z     vdW  Elec       q    Type
REMARK                         _______ _______ _______ _____ _____    ______ ____
ROOT
ATOM      1  C   UNL     1      30.677  22.973  24.352  0.00  0.00    +0.000 C 
ATOM      2  C   UNL     1      29.139  22.708  24.830  0.00  0.00    +0.000 C 
ENDROOT
BRANCH   2   3
ATOM      3  C   UNL     1      28.643  24.183  24.710  0.00  0.00    +0.000 A 
ATOM      4  C   UNL     1      29.397  25.264  24.939  0.00  0.00    +0.000 A 
ATOM      5  C   UNL     1      28.923  26.572  24.825  0.00  0.00    +0.000 A 
ATOM      6  C   UNL     1      27.622  26.763  24.461  0.00  0.00    +0.000 A 
ATOM      7  N   UNL     1      27.075  28.095  24.327  0.00  0.00    +0.000 NA
ATOM      8  C   UNL     1      26.819  25.674  24.217  0.00  0.00    +0.000 A 
ATOM      9  C   UNL     1      27.335  24.366  24.342  0.00  0.00    +0.000 A 
BRANCH   9  10
ATOM     10  N   UNL     1      26.445  23.305  24.074  0.00  0.00    +0.000 N 
ATOM     11  O   UNL     1      25.852  22.745  25.005  0.00  0.00    +0.000 OA
ATOM     12  O   UNL     1      26.276  22.934  22.773  0.00  0.00    +0.000 OA
ENDBRANCH   9  10
ENDBRANCH   2   3
BRANCH   2  13
ATOM     13  C   UNL     1      29.375  22.682  26.368  0.00  0.00    +0.000 A 
ATOM     14  C   UNL     1      28.466  22.820  27.327  0.00  0.00    +0.000 A 
ATOM     15  C   UNL     1      28.820  22.775  28.670  0.00  0.00    +0.000 A 
ATOM     16  C   UNL     1      30.115  22.587  29.049  0.00  0.00    +0.000 A 
ATOM     17  C   UNL     1      31.073  22.441  28.073  0.00  0.00    +0.000 A 
ATOM     18  C   UNL     1      30.675  22.492  26.735  0.00  0.00    +0.000 A 
BRANCH  16  19
ATOM     19  N   UNL     1      30.453  22.544  30.444  0.00  0.00    +0.000 N 
ATOM     20  C   UNL     1      31.606  21.789  30.837  0.00  0.00    +0.000 C 
ATOM     21  C   UNL     1      29.632  23.254  31.387  0.00  0.00    +0.000 C 
ENDBRANCH  16  19
ENDBRANCH   2  13
TORSDOF 4
ENDMDL
MODEL 5
REMARK VINA RESULT:      -5.7      2.035      3.322
REMARK  Name = 
REMARK  4 active torsions:
REMARK  status: ('A' for Active; 'I' for Inactive)
REMARK    1  A    between atoms: C_2  and  C_3
REMARK    2  A    between atoms: C_2  and  C_12
REMARK    3  A    between atoms: C_6  and  N_7
REMARK    4  A    between atoms: C_18  and  N_19
REMARK                            x       y       z     vdW  Elec       q    Type
REMARK                         _______ _______ _______ _____ _____    ______ ____
ROOT
ATOM      1  C   UNL     1      29.475  26.581  24.418  0.00  0.00    +0.000 C 
ATOM      2  C   UNL     1      30.049  25.124  23.957  0.00  0.00    +0.000 C 
ENDROOT
BRANCH   2   3
ATOM      3  C   UNL     1      28.668  24.456  23.665  0.00  0.00    +0.000 A 
ATOM      4  C   UNL     1      27.890  23.879  24.587  0.00  0.00    +0.000 A 
ATOM      5  C   UNL     1      26.659  23.287  24.295  0.00  0.00    +0.000 A 
ATOM      6  C   UNL     1      26.224  23.297  23.002  0.00  0.00    +0.000 A 
ATOM      7  N   UNL     1      24.958  22.700  22.639  0.00  0.00    +0.000 NA
ATOM      8  C   UNL     1      26.999  23.883  22.029  0.00  0.00    +0.000 A 
ATOM      9  C   UNL     1      28.238  24.472  22.364  0.00  0.00    +0.000 A 
BRANCH   9  10
ATOM     10  N   UNL     1      28.971  25.052  21.307  0.00  0.00    +0.000 N 
ATOM     11  O   UNL     1      29.828  24.388  20.713  0.00  0.00    +0.000 OA
ATOM     12  O   UNL     1      28.696  26.348  20.982  0.00  0.00    +0.000 OA
ENDBRANCH   9  10
ENDBRANCH   2   3
BRANCH   2  13
ATOM     13  C   UNL     1      30.294  24.513  25.366  0.00  0.00    +0.000 A 
ATOM     14  C   UNL     1      30.089  25.094  26.544  0.00  0.00    +0.000 A 
ATOM     15  C   UNL     1      30.353  24.425  27.734  0.00  0.00    +0.000 A 
ATOM     16  C   UNL     1      30.831  23.150  27.732  0.00  0.00    +0.000 A 
ATOM     17  C   UNL     1      31.050  22.529  26.524  0.00  0.00    +0.000 A 
ATOM     18  C   UNL     1      30.771  23.236  25.352  0.00  0.00    +0.000 A 
BRANCH  16  19
ATOM     19  N   UNL     1      31.095  22.483  28.976  0.00  0.00    +0.000 N 
ATOM     20  C   UNL     1      30.198  22.713  30.070  0.00  0.00    +0.000 C 
ATOM     21  C   UNL     1      32.239  21.618  29.079  0.00  0.00    +0.000 C 
ENDBRANCH  16  19
ENDBRANCH   2  13
TORSDOF 4
ENDMDL
MODEL 6
REMARK VINA RESULT:      -5.4     19.049     21.990
REMARK  Name = 
REMARK  4 active torsions:
REMARK  status: ('A' for Active; 'I' for Inactive)
REMARK    1  A    between atoms: C_2  and  C_3
REMARK    2  A    between atoms: C_2  and  C_12
REMARK    3  A    between atoms: C_6  and  N_7
REMARK    4  A    between atoms: C_18  and  N_19
REMARK                            x       y       z     vdW  Elec       q    Type
REMARK                         _______ _______ _______ _____ _____    ______ ____
ROOT
ATOM      1  C   UNL     1      18.333  11.240  37.391  0.00  0.00    +0.000 C 
ATOM      2  C   UNL     1      19.376  11.637  38.582  0.00  0.00    +0.000 C 
ENDROOT
BRANCH   2   3
ATOM      3  C   UNL     1      20.671  11.112  37.887  0.00  0.00    +0.000 A 
ATOM      4  C   UNL     1      20.721  10.062  37.059  0.00  0.00    +0.000 A 
ATOM      5  C   UNL     1      21.897   9.614  36.454  0.00  0.00    +0.000 A 
ATOM      6  C   UNL     1      23.059  10.280  36.718  0.00  0.00    +0.000 A 
ATOM      7  N   UNL     1      24.308   9.862  36.121  0.00  0.00    +0.000 NA
ATOM      8  C   UNL     1      23.043  11.364  37.565  0.00  0.00    +0.000 A 
ATOM      9  C   UNL     1      21.834  11.787  38.157  0.00  0.00    +0.000 A 
BRANCH   9  10
ATOM     10  N   UNL     1      21.904  12.907  39.012  0.00  0.00    +0.000 N 
ATOM     11  O   UNL     1      21.708  14.041  38.562  0.00  0.00    +0.000 OA
ATOM     12  O   UNL     1      22.191  12.682  40.327  0.00  0.00    +0.000 OA
ENDBRANCH   9  10
ENDBRANCH   2   3
BRANCH   2  13
ATOM     13  C   UNL     1      19.126  10.424  39.523  0.00  0.00    +0.000 A 
ATOM     14  C   UNL     1      19.940   9.946  40.458  0.00  0.00    +0.000 A 
ATOM     15  C   UNL     1      19.585   8.847  41.233  0.00  0.00    +0.000 A 
ATOM     16  C   UNL     1      18.387   8.223  41.057  0.00  0.00    +0.000 A 
ATOM     17  C   UNL     1      17.528   8.700  40.094  0.00  0.00    +0.000 A 
ATOM     18  C   UNL     1      17.923   9.807  39.339  0.00  0.00    +0.000 A 
BRANCH  16  19
ATOM     19  N   UNL     1      18.046   7.089  41.870  0.00  0.00    +0.000 N 
ATOM     20  C   UNL     1      18.531   7.054  43.218  0.00  0.00    +0.000 C 
ATOM     21  C   UNL     1      17.238   6.040  41.308  0.00  0.00    +0.000 C 
ENDBRANCH  16  19
ENDBRANCH   2  13
TORSDOF 4
ENDMDL
MODEL 7
REMARK VINA RESULT:      -5.4     20.675     21.959
REMARK  Name = 
REMARK  4 active torsions:
REMARK  status: ('A' for Active; 'I' for Inactive)
REMARK    1  A    between atoms: C_2  and  C_3
REMARK    2  A    between atoms: C_2  and  C_12
REMARK    3  A    between atoms: C_6  and  N_7
REMARK    4  A    between atoms: C_18  and  N_19
REMARK                            x       y       z     vdW  Elec       q    Type
REMARK                         _______ _______ _______ _____ _____    ______ ____
ROOT
ATOM      1  C   UNL     1      26.442   6.877  17.864  0.00  0.00    +0.000 C 
ATOM      2  C   UNL     1      27.603   5.821  17.416  0.00  0.00    +0.000 C 
ENDROOT
BRANCH   2   3
ATOM      3  C   UNL     1      27.558   6.123  15.885  0.00  0.00    +0.000 A 
ATOM      4  C   UNL     1      26.464   6.497  15.213  0.00  0.00    +0.000 A 
ATOM      5  C   UNL     1      26.456   6.758  13.841  0.00  0.00    +0.000 A 
ATOM      6  C   UNL     1      27.624   6.625  13.146  0.00  0.00    +0.000 A 
ATOM      7  N   UNL     1      27.675   6.881  11.724  0.00  0.00    +0.000 NA
ATOM      8  C   UNL     1      28.766   6.242  13.807  0.00  0.00    +0.000 A 
ATOM      9  C   UNL     1      28.736   5.988  15.195  0.00  0.00    +0.000 A 
BRANCH   9  10
ATOM     10  N   UNL     1      29.951   5.600  15.797  0.00  0.00    +0.000 N 
ATOM     11  O   UNL     1      30.718   6.458  16.250  0.00  0.00    +0.000 OA
ATOM     12  O   UNL     1      30.233   4.266  15.852  0.00  0.00    +0.000 OA
ENDBRANCH   9  10
ENDBRANCH   2   3
BRANCH   2  13
ATOM     13  C   UNL     1      26.745   4.523  17.408  0.00  0.00    +0.000 A 
ATOM     14  C   UNL     1      26.939   3.432  16.675  0.00  0.00    +0.000 A 
ATOM     15  C   UNL     1      26.088   2.337  16.771  0.00  0.00    +0.000 A 
ATOM     16  C   UNL     1      25.024   2.347  17.621  0.00  0.00    +0.000 A 
ATOM     17  C   UNL     1      24.804   3.466  18.390  0.00  0.00    +0.000 A 
ATOM     18  C   UNL     1      25.683   4.544  18.264  0.00  0.00    +0.000 A 
BRANCH  16  19
ATOM     19  N   UNL     1      24.160   1.202  17.699  0.00  0.00    +0.000 N 
ATOM     20  C   UNL     1      24.752  -0.099  17.599  0.00  0.00    +0.000 C 
ATOM     21  C   UNL     1      22.747   1.400  17.873  0.00  0.00    +0.000 C 
ENDBRANCH  16  19
ENDBRANCH   2  13
TORSDOF 4
ENDMDL
MODEL 8
REMARK VINA RESULT:      -5.4     32.205     34.646
REMARK  Name = 
REMARK  4 active torsions:
REMARK  status: ('A' for Active; 'I' for Inactive)
REMARK    1  A    between atoms: C_2  and  C_3
REMARK    2  A    between atoms: C_2  and  C_12
REMARK    3  A    between atoms: C_6  and  N_7
REMARK    4  A    between atoms: C_18  and  N_19
REMARK                            x       y       z     vdW  Elec       q    Type
REMARK                         _______ _______ _______ _____ _____    ______ ____
ROOT
ATOM      1  C   UNL     1      16.951  -9.167  25.184  0.00  0.00    +0.000 C 
ATOM      2  C   UNL     1      17.238  -8.051  26.340  0.00  0.00    +0.000 C 
ENDROOT
BRANCH   2   3
ATOM      3  C   UNL     1      18.722  -7.753  25.958  0.00  0.00    +0.000 A 
ATOM      4  C   UNL     1      19.594  -8.667  25.518  0.00  0.00    +0.000 A 
ATOM      5  C   UNL     1      20.918  -8.371  25.186  0.00  0.00    +0.000 A 
ATOM      6  C   UNL     1      21.347  -7.081  25.314  0.00  0.00    +0.000 A 
ATOM      7  N   UNL     1      22.707  -6.715  24.986  0.00  0.00    +0.000 NA
ATOM      8  C   UNL     1      20.476  -6.117  25.763  0.00  0.00    +0.000 A 
ATOM      9  C   UNL     1      19.145  -6.456  26.089  0.00  0.00    +0.000 A 
BRANCH   9  10
ATOM     10  N   UNL     1      18.316  -5.408  26.541  0.00  0.00    +0.000 N 
ATOM     11  O   UNL     1      18.581  -4.237  26.243  0.00  0.00    +0.000 OA
ATOM     12  O   UNL     1      17.235  -5.740  27.304  0.00  0.00    +0.000 OA
ENDBRANCH   9  10
ENDBRANCH   2   3
BRANCH   2  13
ATOM     13  C   UNL     1      17.508  -9.014  27.532  0.00  0.00    +0.000 A 
ATOM     14  C   UNL     1      18.255  -8.780  28.606  0.00  0.00    +0.000 A 
ATOM     15  C   UNL     1      18.409  -9.739  29.600  0.00  0.00    +0.000 A 
ATOM     16  C   UNL     1      17.798 -10.953  29.506  0.00  0.00    +0.000 A 
ATOM     17  C   UNL     1      17.020 -11.217  28.403  0.00  0.00    +0.000 A 
ATOM     18  C   UNL     1      16.891 -10.226  27.427  0.00  0.00    +0.000 A 
BRANCH  16  19
ATOM     19  N   UNL     1      17.975 -11.926  30.548  0.00  0.00    +0.000 N 
ATOM     20  C   UNL     1      19.312 -12.304  30.899  0.00  0.00    +0.000 C 
ATOM     21  C   UNL     1      16.816 -12.479  31.195  0.00  0.00    +0.000 C 
ENDBRANCH  16  19
ENDBRANCH   2  13
TORSDOF 4
ENDMDL
MODEL 9
REMARK VINA RESULT:      -5.3      3.316      7.500
REMARK  Name = 
REMARK  4 active torsions:
REMARK  status: ('A' for Active; 'I' for Inactive)
REMARK    1  A    between atoms: C_2  and  C_3
REMARK    2  A    between atoms: C_2  and  C_12
REMARK    3  A    between atoms: C_6  and  N_7
REMARK    4  A    between atoms: C_18  and  N_19
REMARK                            x       y       z     vdW  Elec       q    Type
REMARK                         _______ _______ _______ _____ _____    ______ ____
ROOT
ATOM      1  C   UNL     1      27.803  27.620  23.758  0.00  0.00    +0.000 C 
ATOM      2  C   UNL     1      27.498  26.464  22.646  0.00  0.00    +0.000 C 
ENDROOT
BRANCH   2   3
ATOM      3  C   UNL     1      28.437  25.370  23.243  0.00  0.00    +0.000 A 
ATOM      4  C   UNL     1      29.683  25.588  23.677  0.00  0.00    +0.000 A 
ATOM      5  C   UNL     1      30.501  24.586  24.204  0.00  0.00    +0.000 A 
ATOM      6  C   UNL     1      30.006  23.316  24.282  0.00  0.00    +0.000 A 
ATOM      7  N   UNL     1      30.807  22.238  24.817  0.00  0.00    +0.000 NA
ATOM      8  C   UNL     1      28.729  23.058  23.844  0.00  0.00    +0.000 A 
ATOM      9  C   UNL     1      27.932  24.097  23.318  0.00  0.00    +0.000 A 
BRANCH   9  10
ATOM     10  N   UNL     1      26.633  23.748  22.892  0.00  0.00    +0.000 N 
ATOM     11  O   UNL     1      25.709  23.688  23.712  0.00  0.00    +0.000 OA
ATOM     12  O   UNL     1      26.451  23.486  21.566  0.00  0.00    +0.000 OA
ENDBRANCH   9  10
ENDBRANCH   2   3
BRANCH   2  13
ATOM     13  C   UNL     1      28.442  26.972  21.519  0.00  0.00    +0.000 A 
ATOM     14  C   UNL     1      29.064  26.244  20.598  0.00  0.00    +0.000 A 
ATOM     15  C   UNL     1      29.884  26.835  19.643  0.00  0.00    +0.000 A 
ATOM     16  C   UNL     1      30.077  28.183  19.621  0.00  0.00    +0.000 A 
ATOM     17  C   UNL     1      29.442  28.957  20.564  0.00  0.00    +0.000 A 
ATOM     18  C   UNL     1      28.626  28.324  21.506  0.00  0.00    +0.000 A 
BRANCH  16  19
ATOM     19  N   UNL     1      30.929  28.767  18.623  0.00  0.00    +0.000 N 
ATOM     20  C   UNL     1      31.828  27.906  17.914  0.00  0.00    +0.000 C 
ATOM     21  C   UNL     1      30.851  30.181  18.374  0.00  0.00    +0.000 C 
ENDBRANCH  16  19
ENDBRANCH   2  13
TORSDOF 4
ENDMDL
MODEL 10
REMARK VINA RESULT:      -5.3     19.608     21.371
REMARK  Name = 
REMARK  4 active torsions:
REMARK  status: ('A' for Active; 'I' for Inactive)
REMARK    1  A    between atoms: C_2  and  C_3
REMARK    2  A    between atoms: C_2  and  C_12
REMARK    3  A    between atoms: C_6  and  N_7
REMARK    4  A    between atoms: C_18  and  N_19
REMARK                            x       y       z     vdW  Elec       q    Type
REMARK                         _______ _______ _______ _____ _____    ______ ____
ROOT
ATOM      1  C   UNL     1      20.814  12.961  38.766  0.00  0.00    +0.000 C 
ATOM      2  C   UNL     1      20.474  11.814  37.655  0.00  0.00    +0.000 C 
ENDROOT
BRANCH   2   3
ATOM      3  C   UNL     1      19.611  10.899  38.580  0.00  0.00    +0.000 A 
ATOM      4  C   UNL     1      19.835  10.705  39.884  0.00  0.00    +0.000 A 
ATOM      5  C   UNL     1      19.046   9.877  40.685  0.00  0.00    +0.000 A 
ATOM      6  C   UNL     1      17.989   9.231  40.111  0.00  0.00    +0.000 A 
ATOM      7  N   UNL     1      17.137   8.361  40.890  0.00  0.00    +0.000 NA
ATOM      8  C   UNL     1      17.732   9.409  38.772  0.00  0.00    +0.000 A 
ATOM      9  C   UNL     1      18.552  10.255  37.995  0.00  0.00    +0.000 A 
BRANCH   9  10
ATOM     10  N   UNL     1      18.219  10.383  36.630  0.00  0.00    +0.000 N 
ATOM     11  O   UNL     1      17.391  11.229  36.273  0.00  0.00    +0.000 OA
ATOM     12  O   UNL     1      18.838   9.549  35.746  0.00  0.00    +0.000 OA
ENDBRANCH   9  10
ENDBRANCH   2   3
BRANCH   2  13
ATOM     13  C   UNL     1      21.805  11.012  37.734  0.00  0.00    +0.000 A 
ATOM     14  C   UNL     1      22.063   9.821  37.205  0.00  0.00    +0.000 A 
ATOM     15  C   UNL     1      23.306   9.217  37.355  0.00  0.00    +0.000 A 
ATOM     16  C   UNL     1      24.304   9.829  38.052  0.00  0.00    +0.000 A 
ATOM     17  C   UNL     1      24.060  11.063  38.608  0.00  0.00    +0.000 A 
ATOM     18  C   UNL     1      22.797  11.635  38.433  0.00  0.00    +0.000 A 
BRANCH  16  19
ATOM     19  N   UNL     1      25.579   9.183  38.192  0.00  0.00    +0.000 N 
ATOM     20  C   UNL     1      25.630   7.936  38.896  0.00  0.00    +0.000 C 
ATOM     21  C   UNL     1      26.746   9.804  37.626  0.00  0.00    +0.000 C 
ENDBRANCH  16  19
ENDBRANCH   2  13
TORSDOF 4
ENDMDL
