MODEL 1
REMARK VINA RESULT:      -5.8      0.000      0.000
REMARK  Name = 
REMARK  4 active torsions:
REMARK  status: ('A' for Active; 'I' for Inactive)
REMARK    1  A    between atoms: C_2  and  C_3
REMARK    2  A    between atoms: C_7  and  N_8
REMARK    3  A    between atoms: C_9  and  C_11
REMARK    4  A    between atoms: C_18  and  C_19
REMARK                            x       y       z     vdW  Elec       q    Type
REMARK                         _______ _______ _______ _____ _____    ______ ____
ROOT
ATOM      1  C   UNL     1      28.921  22.887  25.345  0.00  0.00    +0.000 A 
ATOM      2  C   UNL     1      29.241  22.572  26.618  0.00  0.00    +0.000 A 
ATOM      3  C   UNL     1      30.533  22.011  27.157  0.00  0.00    +0.000 C 
ATOM      4  S   UNL     1      27.837  22.960  27.490  0.00  0.00    +0.000 S 
ATOM      5  C   UNL     1      26.867  23.518  26.202  0.00  0.00    +0.000 A 
ATOM      6  C   UNL     1      27.678  23.386  25.104  0.00  0.00    +0.000 A 
ENDROOT
BRANCH   5   7
ATOM      7  N   UNL     1      25.503  24.019  26.254  0.00  0.00    +0.000 NA
ATOM      8  C   UNL     1      25.269  25.393  26.386  0.00  0.00    +0.000 C 
ATOM      9  O   UNL     1      26.288  26.148  26.455  0.00  0.00    +0.000 OA
BRANCH   8  10
ATOM     10  C   UNL     1      23.961  26.020  26.451  0.00  0.00    +0.000 A 
ATOM     11  C   UNL     1      23.235  26.304  25.304  0.00  0.00    +0.000 A 
ATOM     12  C   UNL     1      21.997  26.900  25.345  0.00  0.00    +0.000 A 
ATOM     13  C   UNL     1      21.434  27.236  26.533  0.00  0.00    +0.000 A 
ATOM     14  C   UNL     1      22.141  26.963  27.699  0.00  0.00    +0.000 A 
ATOM     15  C   UNL     1      23.385  26.364  27.659  0.00  0.00    +0.000 A 
ATOM     16  C   UNL     1      24.124  26.079  28.919  0.00  0.00    +0.000 C 
ENDBRANCH   8  10
ENDBRANCH   5   7
BRANCH   6  17
ATOM     17  C   UNL     1      27.170  23.781  23.755  0.00  0.00    +0.000 C 
ATOM     18  N   UNL     1      27.352  25.100  23.252  0.00  0.00    +0.000 NA
ATOM     19  O   UNL     1      26.581  22.972  23.048  0.00  0.00    +0.000 OA
ENDBRANCH   6  17
BRANCH   1  21
ATOM     20  C   UNL     1      30.810  23.878  24.068  0.00  0.00    +0.000 C 
ATOM     21  C   UNL     1      29.937  22.680  24.239  0.00  0.00    +0.000 C 
ENDBRANCH   1  21
TORSDOF 4
ENDMDL
MODEL 2
REMARK VINA RESULT:      -5.6     31.970     33.359
REMARK  Name = 
REMARK  4 active torsions:
REMARK  status: ('A' for Active; 'I' for Inactive)
REMARK    1  A    between atoms: C_2  and  C_3
REMARK    2  A    between atoms: C_7  and  N_8
REMARK    3  A    between atoms: C_9  and  C_11
REMARK    4  A    between atoms: C_18  and  C_19
REMARK                            x       y       z     vdW  Elec       q    Type
REMARK                         _______ _______ _______ _____ _____    ______ ____
ROOT
ATOM      1  C   UNL     1      24.593 -10.007  23.217  0.00  0.00    +0.000 A 
ATOM      2  C   UNL     1      24.455 -11.222  23.791  0.00  0.00    +0.000 A 
ATOM      3  C   UNL     1      25.105 -12.528  23.408  0.00  0.00    +0.000 C 
ATOM      4  S   UNL     1      23.368 -10.940  25.064  0.00  0.00    +0.000 S 
ATOM      5  C   UNL     1      23.112  -9.269  24.833  0.00  0.00    +0.000 A 
ATOM      6  C   UNL     1      23.895  -8.967  23.749  0.00  0.00    +0.000 A 
ENDROOT
BRANCH   5   7
ATOM      7  N   UNL     1      22.265  -8.373  25.604  0.00  0.00    +0.000 NA
ATOM      8  C   UNL     1      20.941  -8.150  25.207  0.00  0.00    +0.000 C 
ATOM      9  O   UNL     1      20.540  -8.759  24.167  0.00  0.00    +0.000 OA
BRANCH   8  10
ATOM     10  C   UNL     1      19.995  -7.283  25.886  0.00  0.00    +0.000 A 
ATOM     11  C   UNL     1      20.014  -5.908  25.710  0.00  0.00    +0.000 A 
ATOM     12  C   UNL     1      19.129  -5.071  26.346  0.00  0.00    +0.000 A 
ATOM     13  C   UNL     1      18.187  -5.575  27.184  0.00  0.00    +0.000 A 
ATOM     14  C   UNL     1      18.145  -6.951  27.379  0.00  0.00    +0.000 A 
ATOM     15  C   UNL     1      19.035  -7.792  26.740  0.00  0.00    +0.000 A 
ATOM     16  C   UNL     1      18.972  -9.262  26.962  0.00  0.00    +0.000 C 
ENDBRANCH   8  10
ENDBRANCH   5   7
BRANCH   6  17
ATOM     17  C   UNL     1      23.937  -7.566  23.232  0.00  0.00    +0.000 C 
ATOM     18  N   UNL     1      24.896  -6.628  23.710  0.00  0.00    +0.000 NA
ATOM     19  O   UNL     1      23.142  -7.192  22.378  0.00  0.00    +0.000 OA
ENDBRANCH   6  17
BRANCH   1  21
ATOM     20  C   UNL     1      26.886  -9.455  22.430  0.00  0.00    +0.000 C 
ATOM     21  C   UNL     1      25.504  -9.841  22.018  0.00  0.00    +0.000 C 
ENDBRANCH   1  21
TORSDOF 4
ENDMDL
MODEL 3
REMARK VINA RESULT:      -5.6      3.335      7.651
REMARK  Name = 
REMARK  4 active torsions:
REMARK  status: ('A' for Active; 'I' for Inactive)
REMARK    1  A    between atoms: C_2  and  C_3
REMARK    2  A    between atoms: C_7  and  N_8
REMARK    3  A    between atoms: C_9  and  C_11
REMARK    4  A    between atoms: C_18  and  C_19
REMARK                            x       y       z     vdW  Elec       q    Type
REMARK                         _______ _______ _______ _____ _____    ______ ____
ROOT
ATOM      1  C   UNL     1      25.871  24.152  27.171  0.00  0.00    +0.000 A 
ATOM      2  C   UNL     1      26.111  23.847  25.877  0.00  0.00    +0.000 A 
ATOM      3  C   UNL     1      25.345  24.268  24.648  0.00  0.00    +0.000 C 
ATOM      4  S   UNL     1      27.495  22.868  25.950  0.00  0.00    +0.000 S 
ATOM      5  C   UNL     1      27.737  22.869  27.639  0.00  0.00    +0.000 A 
ATOM      6  C   UNL     1      26.713  23.648  28.113  0.00  0.00    +0.000 A 
ENDROOT
BRANCH   5   7
ATOM      7  N   UNL     1      28.783  22.204  28.399  0.00  0.00    +0.000 NA
ATOM      8  C   UNL     1      29.947  22.903  28.743  0.00  0.00    +0.000 C 
ATOM      9  O   UNL     1      30.028  24.112  28.363  0.00  0.00    +0.000 OA
BRANCH   8  10
ATOM     10  C   UNL     1      31.063  22.358  29.496  0.00  0.00    +0.000 A 
ATOM     11  C   UNL     1      32.261  22.029  28.882  0.00  0.00    +0.000 A 
ATOM     12  C   UNL     1      33.327  21.510  29.577  0.00  0.00    +0.000 A 
ATOM     13  C   UNL     1      33.239  21.299  30.915  0.00  0.00    +0.000 A 
ATOM     14  C   UNL     1      32.047  21.620  31.556  0.00  0.00    +0.000 A 
ATOM     15  C   UNL     1      30.976  22.141  30.858  0.00  0.00    +0.000 A 
ATOM     16  C   UNL     1      29.711  22.480  31.564  0.00  0.00    +0.000 C 
ENDBRANCH   8  10
ENDBRANCH   5   7
BRANCH   6  17
ATOM     17  C   UNL     1      26.584  23.891  29.582  0.00  0.00    +0.000 C 
ATOM     18  N   UNL     1      25.923  22.960  30.431  0.00  0.00    +0.000 NA
ATOM     19  O   UNL     1      27.049  24.904  30.090  0.00  0.00    +0.000 OA
ENDBRANCH   6  17
BRANCH   1  21
ATOM     20  C   UNL     1      25.072  26.475  27.559  0.00  0.00    +0.000 C 
ATOM     21  C   UNL     1      24.689  25.032  27.530  0.00  0.00    +0.000 C 
ENDBRANCH   1  21
TORSDOF 4
ENDMDL
MODEL 4
REMARK VINA RESULT:      -5.6     31.468     32.854
REMARK  Name = 
REMARK  4 active torsions:
REMARK  status: ('A' for Active; 'I' for Inactive)
REMARK    1  A    between atoms: C_2  and  C_3
REMARK    2  A    between atoms: C_7  and  N_8
REMARK    3  A    between atoms: C_9  and  C_11
REMARK    4  A    between atoms: C_18  and  C_19
REMARK                            x       y       z     vdW  Elec       q    Type
REMARK                         _______ _______ _______ _____ _____    ______ ____
ROOT
ATOM      1  C   UNL     1      24.854  -8.632  22.206  0.00  0.00    +0.000 A 
ATOM      2  C   UNL     1      25.813  -7.888  22.796  0.00  0.00    +0.000 A 
ATOM      3  C   UNL     1      27.312  -8.000  22.665  0.00  0.00    +0.000 C 
ATOM      4  S   UNL     1      24.936  -6.779  23.735  0.00  0.00    +0.000 S 
ATOM      5  C   UNL     1      23.355  -7.293  23.351  0.00  0.00    +0.000 A 
ATOM      6  C   UNL     1      23.555  -8.336  22.483  0.00  0.00    +0.000 A 
ENDROOT
BRANCH   5   7
ATOM      7  N   UNL     1      22.092  -6.752  23.826  0.00  0.00    +0.000 NA
ATOM      8  C   UNL     1      21.541  -7.219  25.026  0.00  0.00    +0.000 C 
ATOM      9  O   UNL     1      22.192  -8.112  25.651  0.00  0.00    +0.000 OA
BRANCH   8  10
ATOM     10  C   UNL     1      20.292  -6.764  25.610  0.00  0.00    +0.000 A 
ATOM     11  C   UNL     1      20.104  -5.443  25.985  0.00  0.00    +0.000 A 
ATOM     12  C   UNL     1      18.930  -4.994  26.542  0.00  0.00    +0.000 A 
ATOM     13  C   UNL     1      17.895  -5.849  26.745  0.00  0.00    +0.000 A 
ATOM     14  C   UNL     1      18.057  -7.180  26.379  0.00  0.00    +0.000 A 
ATOM     15  C   UNL     1      19.236  -7.632  25.819  0.00  0.00    +0.000 A 
ATOM     16  C   UNL     1      19.388  -9.060  25.432  0.00  0.00    +0.000 C 
ENDBRANCH   8  10
ENDBRANCH   5   7
BRANCH   6  17
ATOM     17  C   UNL     1      22.380  -9.062  21.914  0.00  0.00    +0.000 C 
ATOM     18  N   UNL     1      21.726 -10.097  22.639  0.00  0.00    +0.000 NA
ATOM     19  O   UNL     1      21.951  -8.780  20.801  0.00  0.00    +0.000 OA
ENDBRANCH   6  17
BRANCH   1  21
ATOM     20  C   UNL     1      25.341 -11.060  21.985  0.00  0.00    +0.000 C 
ATOM     21  C   UNL     1      25.244  -9.756  21.266  0.00  0.00    +0.000 C 
ENDBRANCH   1  21
TORSDOF 4
ENDMDL
MODEL 5
REMARK VINA RESULT:      -5.4      3.179      4.963
REMARK  Name = 
REMARK  4 active torsions:
REMARK  status: ('A' for Active; 'I' for Inactive)
REMARK    1  A    between atoms: C_2  and  C_3
REMARK    2  A    between atoms: C_7  and  N_8
REMARK    3  A    between atoms: C_9  and  C_11
REMARK    4  A    between atoms: C_18  and  C_19
REMARK                            x       y       z     vdW  Elec       q    Type
REMARK                         _______ _______ _______ _____ _____    ______ ____
ROOT
ATOM      1  C   UNL     1      27.398  26.159  22.489  0.00  0.00    +0.000 A 
ATOM      2  C   UNL     1      27.183  27.454  22.808  0.00  0.00    +0.000 A 
ATOM      3  C   UNL     1      27.388  28.684  21.959  0.00  0.00    +0.000 C 
ATOM      4  S   UNL     1      26.620  27.382  24.408  0.00  0.00    +0.000 S 
ATOM      5  C   UNL     1      26.671  25.692  24.635  0.00  0.00    +0.000 A 
ATOM      6  C   UNL     1      27.135  25.217  23.435  0.00  0.00    +0.000 A 
ENDROOT
BRANCH   5   7
ATOM      7  N   UNL     1      26.307  24.931  25.819  0.00  0.00    +0.000 NA
ATOM      8  C   UNL     1      27.226  24.786  26.865  0.00  0.00    +0.000 C 
ATOM      9  O   UNL     1      28.359  25.342  26.719  0.00  0.00    +0.000 OA
BRANCH   8  10
ATOM     10  C   UNL     1      26.989  24.054  28.097  0.00  0.00    +0.000 A 
ATOM     11  C   UNL     1      26.273  24.611  29.145  0.00  0.00    +0.000 A 
ATOM     12  C   UNL     1      26.040  23.936  30.319  0.00  0.00    +0.000 A 
ATOM     13  C   UNL     1      26.515  22.676  30.494  0.00  0.00    +0.000 A 
ATOM     14  C   UNL     1      27.237  22.093  29.458  0.00  0.00    +0.000 A 
ATOM     15  C   UNL     1      27.471  22.772  28.278  0.00  0.00    +0.000 A 
ATOM     16  C   UNL     1      28.245  22.129  27.182  0.00  0.00    +0.000 C 
ENDBRANCH   8  10
ENDBRANCH   5   7
BRANCH   6  17
ATOM     17  C   UNL     1      27.320  23.747  23.241  0.00  0.00    +0.000 C 
ATOM     18  N   UNL     1      28.531  23.097  23.612  0.00  0.00    +0.000 NA
ATOM     19  O   UNL     1      26.427  23.065  22.754  0.00  0.00    +0.000 OA
ENDBRANCH   6  17
BRANCH   1  21
ATOM     20  C   UNL     1      29.405  25.704  21.094  0.00  0.00    +0.000 C 
ATOM     21  C   UNL     1      27.916  25.800  21.111  0.00  0.00    +0.000 C 
ENDBRANCH   1  21
TORSDOF 4
ENDMDL
MODEL 6
REMARK VINA RESULT:      -5.3      2.490      7.120
REMARK  Name = 
REMARK  4 active torsions:
REMARK  status: ('A' for Active; 'I' for Inactive)
REMARK    1  A    between atoms: C_2  and  C_3
REMARK    2  A    between atoms: C_7  and  N_8
REMARK    3  A    between atoms: C_9  and  C_11
REMARK    4  A    between atoms: C_18  and  C_19
REMARK                            x       y       z     vdW  Elec       q    Type
REMARK                         _______ _______ _______ _____ _____    ______ ____
ROOT
ATOM      1  C   UNL     1      24.376  26.048  29.795  0.00  0.00    +0.000 A 
ATOM      2  C   UNL     1      23.582  26.561  28.831  0.00  0.00    +0.000 A 
ATOM      3  C   UNL     1      22.437  27.533  28.966  0.00  0.00    +0.000 C 
ATOM      4  S   UNL     1      24.176  25.854  27.407  0.00  0.00    +0.000 S 
ATOM      5  C   UNL     1      25.432  24.913  28.079  0.00  0.00    +0.000 A 
ATOM      6  C   UNL     1      25.354  25.180  29.422  0.00  0.00    +0.000 A 
ENDROOT
BRANCH   5   7
ATOM      7  N   UNL     1      26.366  24.037  27.392  0.00  0.00    +0.000 NA
ATOM      8  C   UNL     1      27.589  24.543  26.933  0.00  0.00    +0.000 C 
ATOM      9  O   UNL     1      27.822  25.773  27.148  0.00  0.00    +0.000 OA
BRANCH   8  10
ATOM     10  C   UNL     1      28.606  23.778  26.234  0.00  0.00    +0.000 A 
ATOM     11  C   UNL     1      28.679  23.759  24.850  0.00  0.00    +0.000 A 
ATOM     12  C   UNL     1      29.632  23.039  24.171  0.00  0.00    +0.000 A 
ATOM     13  C   UNL     1      30.554  22.308  24.849  0.00  0.00    +0.000 A 
ATOM     14  C   UNL     1      30.504  22.308  26.239  0.00  0.00    +0.000 A 
ATOM     15  C   UNL     1      29.546  23.032  26.921  0.00  0.00    +0.000 A 
ATOM     16  C   UNL     1      29.512  23.020  28.409  0.00  0.00    +0.000 C 
ENDBRANCH   8  10
ENDBRANCH   5   7
BRANCH   6  17
ATOM     17  C   UNL     1      26.312  24.526  30.364  0.00  0.00    +0.000 C 
ATOM     18  N   UNL     1      27.545  25.145  30.715  0.00  0.00    +0.000 NA
ATOM     19  O   UNL     1      26.055  23.435  30.858  0.00  0.00    +0.000 OA
ENDBRANCH   6  17
BRANCH   1  21
ATOM     20  C   UNL     1      24.946  27.665  31.597  0.00  0.00    +0.000 C 
ATOM     21  C   UNL     1      24.158  26.448  31.241  0.00  0.00    +0.000 C 
ENDBRANCH   1  21
TORSDOF 4
ENDMDL
MODEL 7
REMARK VINA RESULT:      -5.3      3.666      5.900
REMARK  Name = 
REMARK  4 active torsions:
REMARK  status: ('A' for Active; 'I' for Inactive)
REMARK    1  A    between atoms: C_2  and  C_3
REMARK    2  A    between atoms: C_7  and  N_8
REMARK    3  A    between atoms: C_9  and  C_11
REMARK    4  A    between atoms: C_18  and  C_19
REMARK                            x       y       z     vdW  Elec       q    Type
REMARK                         _______ _______ _______ _____ _____    ______ ____
ROOT
ATOM      1  C   UNL     1      30.486  22.726  30.478  0.00  0.00    +0.000 A 
ATOM      2  C   UNL     1      31.746  22.623  30.004  0.00  0.00    +0.000 A 
ATOM      3  C   UNL     1      33.049  22.696  30.759  0.00  0.00    +0.000 C 
ATOM      4  S   UNL     1      31.527  22.386  28.337  0.00  0.00    +0.000 S 
ATOM      5  C   UNL     1      29.822  22.425  28.282  0.00  0.00    +0.000 A 
ATOM      6  C   UNL     1      29.460  22.625  29.590  0.00  0.00    +0.000 A 
ENDROOT
BRANCH   5   7
ATOM      7  N   UNL     1      28.955  22.279  27.124  0.00  0.00    +0.000 NA
ATOM      8  C   UNL     1      28.580  23.408  26.386  0.00  0.00    +0.000 C 
ATOM      9  O   UNL     1      29.030  24.529  26.778  0.00  0.00    +0.000 OA
BRANCH   8  10
ATOM     10  C   UNL     1      27.723  23.399  25.214  0.00  0.00    +0.000 A 
ATOM     11  C   UNL     1      26.343  23.338  25.324  0.00  0.00    +0.000 A 
ATOM     12  C   UNL     1      25.515  23.326  24.227  0.00  0.00    +0.000 A 
ATOM     13  C   UNL     1      26.034  23.375  22.974  0.00  0.00    +0.000 A 
ATOM     14  C   UNL     1      27.416  23.436  22.834  0.00  0.00    +0.000 A 
ATOM     15  C   UNL     1      28.248  23.448  23.936  0.00  0.00    +0.000 A 
ATOM     16  C   UNL     1      29.725  23.515  23.764  0.00  0.00    +0.000 C 
ENDBRANCH   8  10
ENDBRANCH   5   7
BRANCH   6  17
ATOM     17  C   UNL     1      28.013  22.718  29.952  0.00  0.00    +0.000 C 
ATOM     18  N   UNL     1      27.314  23.957  29.901  0.00  0.00    +0.000 NA
ATOM     19  O   UNL     1      27.392  21.722  30.304  0.00  0.00    +0.000 OA
ENDBRANCH   6  17
BRANCH   1  21
ATOM     20  C   UNL     1      30.288  21.660  32.716  0.00  0.00    +0.000 C 
ATOM     21  C   UNL     1      30.254  22.946  31.959  0.00  0.00    +0.000 C 
ENDBRANCH   1  21
TORSDOF 4
ENDMDL
MODEL 8
REMARK VINA RESULT:      -5.3      3.410      7.245
REMARK  Name = 
REMARK  4 active torsions:
REMARK  status: ('A' for Active; 'I' for Inactive)
REMARK    1  A    between atoms: C_2  and  C_3
REMARK    2  A    between atoms: C_7  and  N_8
REMARK    3  A    between atoms: C_9  and  C_11
REMARK    4  A    between atoms: C_18  and  C_19
REMARK                            x       y       z     vdW  Elec       q    Type
REMARK                         _______ _______ _______ _____ _____    ______ ____
ROOT
ATOM      1  C   UNL     1      28.174  24.086  24.712  0.00  0.00    +0.000 A 
ATOM      2  C   UNL     1      28.946  23.638  23.698  0.00  0.00    +0.000 A 
ATOM      3  C   UNL     1      28.864  23.970  22.229  0.00  0.00    +0.000 C 
ATOM      4  S   UNL     1      30.048  22.600  24.465  0.00  0.00    +0.000 S 
ATOM      5  C   UNL     1      29.496  22.762  26.072  0.00  0.00    +0.000 A 
ATOM      6  C   UNL     1      28.446  23.638  25.967  0.00  0.00    +0.000 A 
ENDROOT
BRANCH   5   7
ATOM      7  N   UNL     1      30.016  22.124  27.270  0.00  0.00    +0.000 NA
ATOM      8  C   UNL     1      30.929  22.807  28.084  0.00  0.00    +0.000 C 
ATOM      9  O   UNL     1      31.261  23.978  27.721  0.00  0.00    +0.000 OA
BRANCH   8  10
ATOM     10  C   UNL     1      31.521  22.286  29.303  0.00  0.00    +0.000 A 
ATOM     11  C   UNL     1      32.823  21.811  29.332  0.00  0.00    +0.000 A 
ATOM     12  C   UNL     1      33.401  21.312  30.474  0.00  0.00    +0.000 A 
ATOM     13  C   UNL     1      32.700  21.268  31.636  0.00  0.00    +0.000 A 
ATOM     14  C   UNL     1      31.391  21.738  31.636  0.00  0.00    +0.000 A 
ATOM     15  C   UNL     1      30.811  22.239  30.487  0.00  0.00    +0.000 A 
ATOM     16  C   UNL     1      29.409  22.739  30.509  0.00  0.00    +0.000 C 
ENDBRANCH   8  10
ENDBRANCH   5   7
BRANCH   6  17
ATOM     17  C   UNL     1      27.688  24.036  27.192  0.00  0.00    +0.000 C 
ATOM     18  N   UNL     1      26.609  23.248  27.684  0.00  0.00    +0.000 NA
ATOM     19  O   UNL     1      27.981  25.056  27.804  0.00  0.00    +0.000 OA
ENDBRANCH   6  17
BRANCH   1  21
ATOM     20  C   UNL     1      25.743  24.351  24.261  0.00  0.00    +0.000 C 
ATOM     21  C   UNL     1      27.047  25.059  24.427  0.00  0.00    +0.000 C 
ENDBRANCH   1  21
TORSDOF 4
ENDMDL
MODEL 9
REMARK VINA RESULT:      -5.2      1.942      7.070
REMARK  Name = 
REMARK  4 active torsions:
REMARK  status: ('A' for Active; 'I' for Inactive)
REMARK    1  A    between atoms: C_2  and  C_3
REMARK    2  A    between atoms: C_7  and  N_8
REMARK    3  A    between atoms: C_9  and  C_11
REMARK    4  A    between atoms: C_18  and  C_19
REMARK                            x       y       z     vdW  Elec       q    Type
REMARK                         _______ _______ _______ _____ _____    ______ ____
ROOT
ATOM      1  C   UNL     1      23.275  26.347  27.651  0.00  0.00    +0.000 A 
ATOM      2  C   UNL     1      22.716  26.536  26.437  0.00  0.00    +0.000 A 
ATOM      3  C   UNL     1      21.319  26.993  26.099  0.00  0.00    +0.000 C 
ATOM      4  S   UNL     1      23.964  26.139  25.358  0.00  0.00    +0.000 S 
ATOM      5  C   UNL     1      25.178  25.736  26.488  0.00  0.00    +0.000 A 
ATOM      6  C   UNL     1      24.568  25.926  27.701  0.00  0.00    +0.000 A 
ENDROOT
BRANCH   5   7
ATOM      7  N   UNL     1      26.540  25.298  26.228  0.00  0.00    +0.000 NA
ATOM      8  C   UNL     1      26.785  23.976  25.837  0.00  0.00    +0.000 C 
ATOM      9  O   UNL     1      25.777  23.211  25.726  0.00  0.00    +0.000 OA
BRANCH   8  10
ATOM     10  C   UNL     1      28.093  23.414  25.549  0.00  0.00    +0.000 A 
ATOM     11  C   UNL     1      28.674  23.533  24.296  0.00  0.00    +0.000 A 
ATOM     12  C   UNL     1      29.909  23.005  24.004  0.00  0.00    +0.000 A 
ATOM     13  C   UNL     1      30.613  22.337  24.952  0.00  0.00    +0.000 A 
ATOM     14  C   UNL     1      30.053  22.202  26.218  0.00  0.00    +0.000 A 
ATOM     15  C   UNL     1      28.812  22.732  26.512  0.00  0.00    +0.000 A 
ATOM     16  C   UNL     1      28.232  22.578  27.873  0.00  0.00    +0.000 C 
ENDBRANCH   8  10
ENDBRANCH   5   7
BRANCH   6  17
ATOM     17  C   UNL     1      25.328  25.670  28.962  0.00  0.00    +0.000 C 
ATOM     18  N   UNL     1      25.462  24.355  29.491  0.00  0.00    +0.000 NA
ATOM     19  O   UNL     1      25.856  26.592  29.571  0.00  0.00    +0.000 OA
ENDBRANCH   6  17
BRANCH   1  21
ATOM     20  C   UNL     1      22.583  28.021  29.355  0.00  0.00    +0.000 C 
ATOM     21  C   UNL     1      22.459  26.603  28.903  0.00  0.00    +0.000 C 
ENDBRANCH   1  21
TORSDOF 4
ENDMDL
MODEL 10
REMARK VINA RESULT:      -5.2      2.032      7.170
REMARK  Name = 
REMARK  4 active torsions:
REMARK  status: ('A' for Active; 'I' for Inactive)
REMARK    1  A    between atoms: C_2  and  C_3
REMARK    2  A    between atoms: C_7  and  N_8
REMARK    3  A    between atoms: C_9  and  C_11
REMARK    4  A    between atoms: C_18  and  C_19
REMARK                            x       y       z     vdW  Elec       q    Type
REMARK                         _______ _______ _______ _____ _____    ______ ____
ROOT
ATOM      1  C   UNL     1      23.170  26.352  27.526  0.00  0.00    +0.000 A 
ATOM      2  C   UNL     1      22.619  26.575  26.313  0.00  0.00    +0.000 A 
ATOM      3  C   UNL     1      21.225  27.045  25.980  0.00  0.00    +0.000 C 
ATOM      4  S   UNL     1      23.872  26.202  25.232  0.00  0.00    +0.000 S 
ATOM      5  C   UNL     1      25.078  25.767  26.358  0.00  0.00    +0.000 A 
ATOM      6  C   UNL     1      24.461  25.927  27.572  0.00  0.00    +0.000 A 
ENDROOT
BRANCH   5   7
ATOM      7  N   UNL     1      26.440  25.332  26.095  0.00  0.00    +0.000 NA
ATOM      8  C   UNL     1      26.695  23.994  25.768  0.00  0.00    +0.000 C 
ATOM      9  O   UNL     1      25.695  23.213  25.716  0.00  0.00    +0.000 OA
BRANCH   8  10
ATOM     10  C   UNL     1      28.003  23.433  25.484  0.00  0.00    +0.000 A 
ATOM     11  C   UNL     1      28.776  22.852  26.477  0.00  0.00    +0.000 A 
ATOM     12  C   UNL     1      30.017  22.318  26.229  0.00  0.00    +0.000 A 
ATOM     13  C   UNL     1      30.538  22.342  24.975  0.00  0.00    +0.000 A 
ATOM     14  C   UNL     1      29.784  22.918  23.959  0.00  0.00    +0.000 A 
ATOM     15  C   UNL     1      28.536  23.456  24.208  0.00  0.00    +0.000 A 
ATOM     16  C   UNL     1      27.745  24.066  23.106  0.00  0.00    +0.000 C 
ENDBRANCH   8  10
ENDBRANCH   5   7
BRANCH   6  17
ATOM     17  C   UNL     1      25.213  25.635  28.830  0.00  0.00    +0.000 C 
ATOM     18  N   UNL     1      25.829  26.674  29.583  0.00  0.00    +0.000 NA
ATOM     19  O   UNL     1      25.316  24.486  29.243  0.00  0.00    +0.000 OA
ENDBRANCH   6  17
BRANCH   1  21
ATOM     20  C   UNL     1      22.441  27.993  29.246  0.00  0.00    +0.000 C 
ATOM     21  C   UNL     1      22.347  26.578  28.779  0.00  0.00    +0.000 C 
ENDBRANCH   1  21
TORSDOF 4
ENDMDL
