MODEL 1
REMARK VINA RESULT:      -7.9      0.000      0.000
REMARK  Name = 
REMARK  1 active torsions:
REMARK  status: ('A' for Active; 'I' for Inactive)
REMARK    1  A    between atoms: C_5  and  C_6
REMARK                            x       y       z     vdW  Elec       q    Type
REMARK                         _______ _______ _______ _____ _____    ______ ____
ROOT
ATOM      1  C   UNL     1      16.063  11.270  36.192  0.00  0.00    +0.000 A 
ATOM      2  C   UNL     1      16.191  11.123  34.835  0.00  0.00    +0.000 A 
ATOM      3  N   UNL     1      15.371  12.013  34.170  0.00  0.00    +0.000 N 
ATOM      4  C   UNL     1      15.077  12.328  32.920  0.00  0.00    +0.000 A 
ATOM      5  C   UNL     1      14.167  13.318  32.712  0.00  0.00    +0.000 A 
ATOM      6  S   UNL     1      13.762  13.768  34.306  0.00  0.00    +0.000 S 
ATOM      7  C   UNL     1      14.771  12.672  35.142  0.00  0.00    +0.000 A 
ATOM      8  N   UNL     1      15.166  12.248  36.381  0.00  0.00    +0.000 NA
ATOM      9  C   UNL     1      13.800  13.711  31.299  0.00  0.00    +0.000 C 
ATOM     10  C   UNL     1      15.097  13.960  30.576  0.00  0.00    +0.000 C 
ATOM     11  C   UNL     1      16.089  12.846  30.719  0.00  0.00    +0.000 C 
ATOM     12  C   UNL     1      15.614  11.736  31.626  0.00  0.00    +0.000 C 
ENDROOT
BRANCH   1  17
ATOM     13  N   UNL     1      18.800   8.316  40.253  0.00  0.00    +0.000 NA
ATOM     14  C   UNL     1      18.107   9.058  39.253  0.00  0.00    +0.000 A 
ATOM     15  C   UNL     1      18.557   9.082  37.949  0.00  0.00    +0.000 A 
ATOM     16  C   UNL     1      17.905   9.791  36.961  0.00  0.00    +0.000 A 
ATOM     17  C   UNL     1      16.765  10.510  37.242  0.00  0.00    +0.000 A 
ATOM     18  C   UNL     1      16.306  10.492  38.541  0.00  0.00    +0.000 A 
ATOM     19  C   UNL     1      16.964   9.781  39.523  0.00  0.00    +0.000 A 
ENDBRANCH   1  17
TORSDOF 1
ENDMDL
MODEL 2
REMARK VINA RESULT:      -7.0      3.417      4.720
REMARK  Name = 
REMARK  1 active torsions:
REMARK  status: ('A' for Active; 'I' for Inactive)
REMARK    1  A    between atoms: C_5  and  C_6
REMARK                            x       y       z     vdW  Elec       q    Type
REMARK                         _______ _______ _______ _____ _____    ______ ____
ROOT
ATOM      1  C   UNL     1      17.735  10.604  37.740  0.00  0.00    +0.000 A 
ATOM      2  C   UNL     1      16.540  10.525  38.407  0.00  0.00    +0.000 A 
ATOM      3  N   UNL     1      15.533  11.117  37.672  0.00  0.00    +0.000 N 
ATOM      4  C   UNL     1      14.234  11.339  37.789  0.00  0.00    +0.000 A 
ATOM      5  C   UNL     1      13.607  11.992  36.773  0.00  0.00    +0.000 A 
ATOM      6  S   UNL     1      14.890  12.266  35.683  0.00  0.00    +0.000 S 
ATOM      7  C   UNL     1      16.145  11.537  36.582  0.00  0.00    +0.000 A 
ATOM      8  N   UNL     1      17.482  11.243  36.589  0.00  0.00    +0.000 NA
ATOM      9  C   UNL     1      12.124  12.268  36.865  0.00  0.00    +0.000 C 
ATOM     10  C   UNL     1      11.467  10.954  37.198  0.00  0.00    +0.000 C 
ATOM     11  C   UNL     1      12.085  10.252  38.368  0.00  0.00    +0.000 C 
ATOM     12  C   UNL     1      13.293  10.968  38.925  0.00  0.00    +0.000 C 
ENDROOT
BRANCH   1  17
ATOM     13  N   UNL     1      22.800   8.610  39.495  0.00  0.00    +0.000 NA
ATOM     14  C   UNL     1      21.546   9.113  39.043  0.00  0.00    +0.000 A 
ATOM     15  C   UNL     1      20.396   8.912  39.779  0.00  0.00    +0.000 A 
ATOM     16  C   UNL     1      19.168   9.388  39.365  0.00  0.00    +0.000 A 
ATOM     17  C   UNL     1      19.043  10.092  38.189  0.00  0.00    +0.000 A 
ATOM     18  C   UNL     1      20.185  10.299  37.447  0.00  0.00    +0.000 A 
ATOM     19  C   UNL     1      21.408   9.820  37.867  0.00  0.00    +0.000 A 
ENDBRANCH   1  17
TORSDOF 1
ENDMDL
MODEL 3
REMARK VINA RESULT:      -6.9      2.237      7.380
REMARK  Name = 
REMARK  1 active torsions:
REMARK  status: ('A' for Active; 'I' for Inactive)
REMARK    1  A    between atoms: C_5  and  C_6
REMARK                            x       y       z     vdW  Elec       q    Type
REMARK                         _______ _______ _______ _____ _____    ______ ____
ROOT
ATOM      1  C   UNL     1      14.973  11.816  36.045  0.00  0.00    +0.000 A 
ATOM      2  C   UNL     1      16.193  11.384  36.497  0.00  0.00    +0.000 A 
ATOM      3  N   UNL     1      16.081  10.855  37.767  0.00  0.00    +0.000 N 
ATOM      4  C   UNL     1      16.873  10.308  38.675  0.00  0.00    +0.000 A 
ATOM      5  C   UNL     1      16.313   9.908  39.849  0.00  0.00    +0.000 A 
ATOM      6  S   UNL     1      14.675  10.324  39.619  0.00  0.00    +0.000 S 
ATOM      7  C   UNL     1      14.799  10.981  38.048  0.00  0.00    +0.000 A 
ATOM      8  N   UNL     1      14.097  11.560  37.026  0.00  0.00    +0.000 NA
ATOM      9  C   UNL     1      17.180   9.278  40.914  0.00  0.00    +0.000 C 
ATOM     10  C   UNL     1      17.950   8.175  40.239  0.00  0.00    +0.000 C 
ATOM     11  C   UNL     1      18.648   8.608  38.985  0.00  0.00    +0.000 C 
ATOM     12  C   UNL     1      18.370  10.045  38.613  0.00  0.00    +0.000 C 
ENDROOT
BRANCH   1  17
ATOM     13  N   UNL     1      13.803  14.243  31.000  0.00  0.00    +0.000 NA
ATOM     14  C   UNL     1      14.104  13.626  32.249  0.00  0.00    +0.000 A 
ATOM     15  C   UNL     1      13.633  14.157  33.433  0.00  0.00    +0.000 A 
ATOM     16  C   UNL     1      13.909  13.579  34.656  0.00  0.00    +0.000 A 
ATOM     17  C   UNL     1      14.674  12.438  34.742  0.00  0.00    +0.000 A 
ATOM     18  C   UNL     1      15.149  11.900  33.567  0.00  0.00    +0.000 A 
ATOM     19  C   UNL     1      14.869  12.483  32.348  0.00  0.00    +0.000 A 
ENDBRANCH   1  17
TORSDOF 1
ENDMDL
MODEL 4
REMARK VINA RESULT:      -6.7      1.528      2.313
REMARK  Name = 
REMARK  1 active torsions:
REMARK  status: ('A' for Active; 'I' for Inactive)
REMARK    1  A    between atoms: C_5  and  C_6
REMARK                            x       y       z     vdW  Elec       q    Type
REMARK                         _______ _______ _______ _____ _____    ______ ____
ROOT
ATOM      1  C   UNL     1      16.652  10.592  35.435  0.00  0.00    +0.000 A 
ATOM      2  C   UNL     1      16.001  11.725  35.021  0.00  0.00    +0.000 A 
ATOM      3  N   UNL     1      15.839  11.720  33.651  0.00  0.00    +0.000 N 
ATOM      4  C   UNL     1      15.312  12.502  32.723  0.00  0.00    +0.000 A 
ATOM      5  C   UNL     1      15.378  12.086  31.429  0.00  0.00    +0.000 A 
ATOM      6  S   UNL     1      16.188  10.592  31.578  0.00  0.00    +0.000 S 
ATOM      7  C   UNL     1      16.395  10.586  33.273  0.00  0.00    +0.000 A 
ATOM      8  N   UNL     1      16.899   9.876  34.329  0.00  0.00    +0.000 NA
ATOM      9  C   UNL     1      14.789  12.948  30.336  0.00  0.00    +0.000 C 
ATOM     10  C   UNL     1      13.384  13.277  30.764  0.00  0.00    +0.000 C 
ATOM     11  C   UNL     1      13.291  13.817  32.159  0.00  0.00    +0.000 C 
ATOM     12  C   UNL     1      14.618  13.847  32.878  0.00  0.00    +0.000 C 
ENDROOT
BRANCH   1  17
ATOM     13  N   UNL     1      18.038   9.173  40.799  0.00  0.00    +0.000 NA
ATOM     14  C   UNL     1      17.707   9.517  39.457  0.00  0.00    +0.000 A 
ATOM     15  C   UNL     1      16.581  10.264  39.175  0.00  0.00    +0.000 A 
ATOM     16  C   UNL     1      16.237  10.613  37.884  0.00  0.00    +0.000 A 
ATOM     17  C   UNL     1      17.013  10.224  36.816  0.00  0.00    +0.000 A 
ATOM     18  C   UNL     1      18.140   9.478  37.086  0.00  0.00    +0.000 A 
ATOM     19  C   UNL     1      18.477   9.134  38.379  0.00  0.00    +0.000 A 
ENDBRANCH   1  17
TORSDOF 1
ENDMDL
MODEL 5
REMARK VINA RESULT:      -6.6     19.216     21.102
REMARK  Name = 
REMARK  1 active torsions:
REMARK  status: ('A' for Active; 'I' for Inactive)
REMARK    1  A    between atoms: C_5  and  C_6
REMARK                            x       y       z     vdW  Elec       q    Type
REMARK                         _______ _______ _______ _____ _____    ______ ____
ROOT
ATOM      1  C   UNL     1      33.236  -0.295  34.329  0.00  0.00    +0.000 A 
ATOM      2  C   UNL     1      33.639   0.494  35.375  0.00  0.00    +0.000 A 
ATOM      3  N   UNL     1      33.733   1.814  34.982  0.00  0.00    +0.000 N 
ATOM      4  C   UNL     1      34.055   2.977  35.522  0.00  0.00    +0.000 A 
ATOM      5  C   UNL     1      34.009   4.081  34.728  0.00  0.00    +0.000 A 
ATOM      6  S   UNL     1      33.505   3.424  33.236  0.00  0.00    +0.000 S 
ATOM      7  C   UNL     1      33.385   1.787  33.710  0.00  0.00    +0.000 A 
ATOM      8  N   UNL     1      33.077   0.525  33.280  0.00  0.00    +0.000 NA
ATOM      9  C   UNL     1      34.369   5.431  35.303  0.00  0.00    +0.000 C 
ATOM     10  C   UNL     1      33.553   5.591  36.558  0.00  0.00    +0.000 C 
ATOM     11  C   UNL     1      33.652   4.423  37.492  0.00  0.00    +0.000 C 
ATOM     12  C   UNL     1      34.488   3.290  36.946  0.00  0.00    +0.000 C 
ENDROOT
BRANCH   1  17
ATOM     13  N   UNL     1      32.380  -5.949  34.397  0.00  0.00    +0.000 NA
ATOM     14  C   UNL     1      32.603  -4.542  34.365  0.00  0.00    +0.000 A 
ATOM     15  C   UNL     1      32.030  -3.713  35.308  0.00  0.00    +0.000 A 
ATOM     16  C   UNL     1      32.230  -2.347  35.302  0.00  0.00    +0.000 A 
ATOM     17  C   UNL     1      33.018  -1.753  34.342  0.00  0.00    +0.000 A 
ATOM     18  C   UNL     1      33.595  -2.571  33.396  0.00  0.00    +0.000 A 
ATOM     19  C   UNL     1      33.391  -3.935  33.409  0.00  0.00    +0.000 A 
ENDBRANCH   1  17
TORSDOF 1
ENDMDL
MODEL 6
REMARK VINA RESULT:      -6.5      2.756      7.777
REMARK  Name = 
REMARK  1 active torsions:
REMARK  status: ('A' for Active; 'I' for Inactive)
REMARK    1  A    between atoms: C_5  and  C_6
REMARK                            x       y       z     vdW  Elec       q    Type
REMARK                         _______ _______ _______ _____ _____    ______ ____
ROOT
ATOM      1  C   UNL     1      17.129  10.872  36.693  0.00  0.00    +0.000 A 
ATOM      2  C   UNL     1      16.523  10.281  37.771  0.00  0.00    +0.000 A 
ATOM      3  N   UNL     1      17.427  10.098  38.798  0.00  0.00    +0.000 N 
ATOM      4  C   UNL     1      17.431   9.604  40.025  0.00  0.00    +0.000 A 
ATOM      5  C   UNL     1      18.603   9.625  40.715  0.00  0.00    +0.000 A 
ATOM      6  S   UNL     1      19.662  10.351  39.592  0.00  0.00    +0.000 S 
ATOM      7  C   UNL     1      18.554  10.583  38.314  0.00  0.00    +0.000 A 
ATOM      8  N   UNL     1      18.410  11.060  37.039  0.00  0.00    +0.000 NA
ATOM      9  C   UNL     1      18.654   9.071  42.120  0.00  0.00    +0.000 C 
ATOM     10  C   UNL     1      17.529   9.726  42.877  0.00  0.00    +0.000 C 
ATOM     11  C   UNL     1      16.206   9.644  42.177  0.00  0.00    +0.000 C 
ATOM     12  C   UNL     1      16.288   8.990  40.819  0.00  0.00    +0.000 C 
ENDROOT
BRANCH   1  17
ATOM     13  N   UNL     1      14.726  12.260  31.692  0.00  0.00    +0.000 NA
ATOM     14  C   UNL     1      15.312  11.923  32.947  0.00  0.00    +0.000 A 
ATOM     15  C   UNL     1      16.419  11.101  33.013  0.00  0.00    +0.000 A 
ATOM     16  C   UNL     1      17.007  10.759  34.214  0.00  0.00    +0.000 A 
ATOM     17  C   UNL     1      16.506  11.232  35.406  0.00  0.00    +0.000 A 
ATOM     18  C   UNL     1      15.403  12.054  35.351  0.00  0.00    +0.000 A 
ATOM     19  C   UNL     1      14.820  12.391  34.147  0.00  0.00    +0.000 A 
ENDBRANCH   1  17
TORSDOF 1
ENDMDL
MODEL 7
REMARK VINA RESULT:      -6.5     18.232     20.283
REMARK  Name = 
REMARK  1 active torsions:
REMARK  status: ('A' for Active; 'I' for Inactive)
REMARK    1  A    between atoms: C_5  and  C_6
REMARK                            x       y       z     vdW  Elec       q    Type
REMARK                         _______ _______ _______ _____ _____    ______ ____
ROOT
ATOM      1  C   UNL     1      28.272  22.927  26.771  0.00  0.00    +0.000 A 
ATOM      2  C   UNL     1      29.604  22.820  27.077  0.00  0.00    +0.000 A 
ATOM      3  N   UNL     1      29.783  22.714  28.441  0.00  0.00    +0.000 N 
ATOM      4  C   UNL     1      30.788  22.590  29.292  0.00  0.00    +0.000 A 
ATOM      5  C   UNL     1      30.494  22.518  30.618  0.00  0.00    +0.000 A 
ATOM      6  S   UNL     1      28.792  22.628  30.609  0.00  0.00    +0.000 S 
ATOM      7  C   UNL     1      28.556  22.760  28.923  0.00  0.00    +0.000 A 
ATOM      8  N   UNL     1      27.614  22.889  27.939  0.00  0.00    +0.000 NA
ATOM      9  C   UNL     1      31.611  22.376  31.625  0.00  0.00    +0.000 C 
ATOM     10  C   UNL     1      32.459  21.222  31.161  0.00  0.00    +0.000 C 
ATOM     11  C   UNL     1      32.869  21.317  29.723  0.00  0.00    +0.000 C 
ATOM     12  C   UNL     1      32.282  22.513  29.012  0.00  0.00    +0.000 C 
ENDROOT
BRANCH   1  17
ATOM     13  N   UNL     1      25.927  23.434  21.580  0.00  0.00    +0.000 NA
ATOM     14  C   UNL     1      26.527  23.310  22.866  0.00  0.00    +0.000 A 
ATOM     15  C   UNL     1      25.753  23.124  23.993  0.00  0.00    +0.000 A 
ATOM     16  C   UNL     1      26.308  23.000  25.251  0.00  0.00    +0.000 A 
ATOM     17  C   UNL     1      27.672  23.058  25.431  0.00  0.00    +0.000 A 
ATOM     18  C   UNL     1      28.454  23.243  24.312  0.00  0.00    +0.000 A 
ATOM     19  C   UNL     1      27.892  23.366  23.058  0.00  0.00    +0.000 A 
ENDBRANCH   1  17
TORSDOF 1
ENDMDL
MODEL 8
REMARK VINA RESULT:      -6.4     20.125     22.329
REMARK  Name = 
REMARK  1 active torsions:
REMARK  status: ('A' for Active; 'I' for Inactive)
REMARK    1  A    between atoms: C_5  and  C_6
REMARK                            x       y       z     vdW  Elec       q    Type
REMARK                         _______ _______ _______ _____ _____    ______ ____
ROOT
ATOM      1  C   UNL     1      33.197  -0.720  34.492  0.00  0.00    +0.000 A 
ATOM      2  C   UNL     1      33.619  -1.633  33.560  0.00  0.00    +0.000 A 
ATOM      3  N   UNL     1      33.173  -2.898  33.884  0.00  0.00    +0.000 N 
ATOM      4  C   UNL     1      33.256  -4.123  33.390  0.00  0.00    +0.000 A 
ATOM      5  C   UNL     1      32.634  -5.125  34.069  0.00  0.00    +0.000 A 
ATOM      6  S   UNL     1      31.950  -4.288  35.388  0.00  0.00    +0.000 S 
ATOM      7  C   UNL     1      32.495  -2.717  35.000  0.00  0.00    +0.000 A 
ATOM      8  N   UNL     1      32.489  -1.407  35.398  0.00  0.00    +0.000 NA
ATOM      9  C   UNL     1      32.702  -6.539  33.541  0.00  0.00    +0.000 C 
ATOM     10  C   UNL     1      32.283  -6.476  32.097  0.00  0.00    +0.000 C 
ATOM     11  C   UNL     1      33.013  -5.436  31.304  0.00  0.00    +0.000 C 
ATOM     12  C   UNL     1      33.965  -4.609  32.135  0.00  0.00    +0.000 C 
ENDROOT
BRANCH   1  17
ATOM     13  N   UNL     1      34.227   4.906  34.521  0.00  0.00    +0.000 NA
ATOM     14  C   UNL     1      33.973   3.504  34.531  0.00  0.00    +0.000 A 
ATOM     15  C   UNL     1      33.664   2.832  33.366  0.00  0.00    +0.000 A 
ATOM     16  C   UNL     1      33.413   1.474  33.347  0.00  0.00    +0.000 A 
ATOM     17  C   UNL     1      33.464   0.730  34.504  0.00  0.00    +0.000 A 
ATOM     18  C   UNL     1      33.772   1.391  35.673  0.00  0.00    +0.000 A 
ATOM     19  C   UNL     1      34.021   2.748  35.684  0.00  0.00    +0.000 A 
ENDBRANCH   1  17
TORSDOF 1
ENDMDL
MODEL 9
REMARK VINA RESULT:      -6.4     22.465     23.760
REMARK  Name = 
REMARK  1 active torsions:
REMARK  status: ('A' for Active; 'I' for Inactive)
REMARK    1  A    between atoms: C_5  and  C_6
REMARK                            x       y       z     vdW  Elec       q    Type
REMARK                         _______ _______ _______ _____ _____    ______ ____
ROOT
ATOM      1  C   UNL     1      22.034  -7.418  25.050  0.00  0.00    +0.000 A 
ATOM      2  C   UNL     1      22.711  -8.610  25.018  0.00  0.00    +0.000 A 
ATOM      3  N   UNL     1      23.940  -8.456  24.411  0.00  0.00    +0.000 N 
ATOM      4  C   UNL     1      24.984  -9.209  24.105  0.00  0.00    +0.000 A 
ATOM      5  C   UNL     1      26.034  -8.614  23.476  0.00  0.00    +0.000 A 
ATOM      6  S   UNL     1      25.499  -6.999  23.344  0.00  0.00    +0.000 S 
ATOM      7  C   UNL     1      23.975  -7.176  24.093  0.00  0.00    +0.000 A 
ATOM      8  N   UNL     1      22.835  -6.516  24.465  0.00  0.00    +0.000 NA
ATOM      9  C   UNL     1      27.248  -9.435  23.108  0.00  0.00    +0.000 C 
ATOM     10  C   UNL     1      27.664 -10.164  24.358  0.00  0.00    +0.000 C 
ATOM     11  C   UNL     1      26.542 -10.899  25.027  0.00  0.00    +0.000 C 
ATOM     12  C   UNL     1      25.206 -10.693  24.353  0.00  0.00    +0.000 C 
ENDROOT
BRANCH   1  17
ATOM     13  N   UNL     1      16.840  -6.425  27.228  0.00  0.00    +0.000 NA
ATOM     14  C   UNL     1      18.132  -6.690  26.688  0.00  0.00    +0.000 A 
ATOM     15  C   UNL     1      18.929  -5.664  26.225  0.00  0.00    +0.000 A 
ATOM     16  C   UNL     1      20.185  -5.891  25.697  0.00  0.00    +0.000 A 
ATOM     17  C   UNL     1      20.695  -7.167  25.612  0.00  0.00    +0.000 A 
ATOM     18  C   UNL     1      19.907  -8.199  26.073  0.00  0.00    +0.000 A 
ATOM     19  C   UNL     1      18.654  -7.964  26.598  0.00  0.00    +0.000 A 
ENDBRANCH   1  17
TORSDOF 1
ENDMDL
MODEL 10
REMARK VINA RESULT:      -6.3      2.494      4.007
REMARK  Name = 
REMARK  1 active torsions:
REMARK  status: ('A' for Active; 'I' for Inactive)
REMARK    1  A    between atoms: C_5  and  C_6
REMARK                            x       y       z     vdW  Elec       q    Type
REMARK                         _______ _______ _______ _____ _____    ______ ____
ROOT
ATOM      1  C   UNL     1      17.443   9.806  38.864  0.00  0.00    +0.000 A 
ATOM      2  C   UNL     1      16.761  10.776  38.174  0.00  0.00    +0.000 A 
ATOM      3  N   UNL     1      16.981  10.653  36.818  0.00  0.00    +0.000 N 
ATOM      4  C   UNL     1      16.612  11.267  35.705  0.00  0.00    +0.000 A 
ATOM      5  C   UNL     1      17.092  10.786  34.526  0.00  0.00    +0.000 A 
ATOM      6  S   UNL     1      18.052   9.474  35.042  0.00  0.00    +0.000 S 
ATOM      7  C   UNL     1      17.789   9.615  36.723  0.00  0.00    +0.000 A 
ATOM      8  N   UNL     1      18.090   9.076  37.944  0.00  0.00    +0.000 NA
ATOM      9  C   UNL     1      16.696  11.456  33.230  0.00  0.00    +0.000 C 
ATOM     10  C   UNL     1      15.193  11.554  33.243  0.00  0.00    +0.000 C 
ATOM     11  C   UNL     1      14.641  12.158  34.498  0.00  0.00    +0.000 C 
ATOM     12  C   UNL     1      15.701  12.472  35.527  0.00  0.00    +0.000 C 
ENDROOT
BRANCH   1  17
ATOM     13  N   UNL     1      17.554   9.003  44.525  0.00  0.00    +0.000 NA
ATOM     14  C   UNL     1      17.509   9.204  43.115  0.00  0.00    +0.000 A 
ATOM     15  C   UNL     1      18.670   9.276  42.373  0.00  0.00    +0.000 A 
ATOM     16  C   UNL     1      18.655   9.469  41.006  0.00  0.00    +0.000 A 
ATOM     17  C   UNL     1      17.467   9.599  40.323  0.00  0.00    +0.000 A 
ATOM     18  C   UNL     1      16.302   9.528  41.055  0.00  0.00    +0.000 A 
ATOM     19  C   UNL     1      16.324   9.335  42.420  0.00  0.00    +0.000 A 
ENDBRANCH   1  17
TORSDOF 1
ENDMDL
