MODEL 1
REMARK VINA RESULT:      -6.1      0.000      0.000
REMARK  Name = 
REMARK  4 active torsions:
REMARK  status: ('A' for Active; 'I' for Inactive)
REMARK    1  A    between atoms: C_2  and  C_5
REMARK    2  A    between atoms: C_5  and  C_7
REMARK    3  A    between atoms: C_7  and  C_8
REMARK    4  A    between atoms: C_12  and  C_13
REMARK                            x       y       z     vdW  Elec       q    Type
REMARK                         _______ _______ _______ _____ _____    ______ ____
ROOT
ATOM      1  C   UNL     1      28.934  25.718  21.788  0.00  0.00    +0.000 C 
ATOM      2  C   UNL     1      29.789  25.485  22.991  0.00  0.00    +0.000 C 
ATOM      3  N   UNL     1      29.488  25.014  20.671  0.00  0.00    +0.000 NA
ATOM      4  N   UNL     1      29.922  25.708  19.628  0.00  0.00    +0.000 NA
ATOM      5  C   UNL     1      29.856  26.952  19.601  0.00  0.00    +0.000 C 
ATOM      6  S   UNL     1      29.106  27.444  21.170  0.00  0.00    +0.000 S 
ENDROOT
BRANCH   5   7
ATOM      7  C   UNL     1      30.295  27.823  18.522  0.00  0.00    +0.000 A 
ATOM      8  C   UNL     1      31.627  27.923  18.180  0.00  0.00    +0.000 A 
ATOM      9  C   UNL     1      32.045  28.761  17.141  0.00  0.00    +0.000 A 
ATOM     10  C   UNL     1      31.143  29.516  16.424  0.00  0.00    +0.000 A 
ATOM     11  C   UNL     1      29.813  29.415  16.766  0.00  0.00    +0.000 A 
ATOM     12  C   UNL     1      29.402  28.580  17.799  0.00  0.00    +0.000 A 
ATOM     13  O   UNL     1      28.066  28.526  18.088  0.00  0.00    +0.000 OA
ENDBRANCH   5   7
BRANCH   1  14
ATOM     14  C   UNL     1      27.494  25.373  21.976  0.00  0.00    +0.000 C 
BRANCH  14  15
ATOM     15  C   UNL     1      27.339  24.064  22.626  0.00  0.00    +0.000 C 
ATOM     16  O   UNL     1      27.759  23.071  22.078  0.00  0.00    +0.000 OA
BRANCH  15  18
ATOM     17  C   UNL     1      25.381  23.187  23.752  0.00  0.00    +0.000 C 
ATOM     18  C   UNL     1      26.670  23.989  23.946  0.00  0.00    +0.000 C 
ATOM     19  C   UNL     1      26.380  25.358  24.520  0.00  0.00    +0.000 C 
ATOM     20  C   UNL     1      27.520  23.214  24.924  0.00  0.00    +0.000 C 
ENDBRANCH  15  18
ENDBRANCH  14  15
ENDBRANCH   1  14
TORSDOF 4
ENDMDL
MODEL 2
REMARK VINA RESULT:      -6.0     10.512     13.058
REMARK  Name = 
REMARK  4 active torsions:
REMARK  status: ('A' for Active; 'I' for Inactive)
REMARK    1  A    between atoms: C_2  and  C_5
REMARK    2  A    between atoms: C_5  and  C_7
REMARK    3  A    between atoms: C_7  and  C_8
REMARK    4  A    between atoms: C_12  and  C_13
REMARK                            x       y       z     vdW  Elec       q    Type
REMARK                         _______ _______ _______ _____ _____    ______ ____
ROOT
ATOM      1  C   UNL     1      31.567  21.211   9.542  0.00  0.00    +0.000 C 
ATOM      2  C   UNL     1      31.097  20.517   8.305  0.00  0.00    +0.000 C 
ATOM      3  N   UNL     1      31.191  20.440  10.689  0.00  0.00    +0.000 NA
ATOM      4  N   UNL     1      30.342  20.962  11.562  0.00  0.00    +0.000 NA
ATOM      5  C   UNL     1      29.869  22.104  11.407  0.00  0.00    +0.000 C 
ATOM      6  S   UNL     1      30.582  22.732   9.869  0.00  0.00    +0.000 S 
ENDROOT
BRANCH   5   7
ATOM      7  C   UNL     1      28.934  22.786  12.289  0.00  0.00    +0.000 A 
ATOM      8  C   UNL     1      29.372  23.487  13.391  0.00  0.00    +0.000 A 
ATOM      9  C   UNL     1      28.470  24.142  14.236  0.00  0.00    +0.000 A 
ATOM     10  C   UNL     1      27.114  24.108  13.999  0.00  0.00    +0.000 A 
ATOM     11  C   UNL     1      26.677  23.406  12.897  0.00  0.00    +0.000 A 
ATOM     12  C   UNL     1      27.578  22.758  12.059  0.00  0.00    +0.000 A 
ATOM     13  O   UNL     1      27.078  22.079  10.982  0.00  0.00    +0.000 OA
ENDBRANCH   5   7
BRANCH   1  14
ATOM     14  C   UNL     1      33.027  21.521   9.561  0.00  0.00    +0.000 C 
BRANCH  14  15
ATOM     15  C   UNL     1      33.820  20.386   9.070  0.00  0.00    +0.000 C 
ATOM     16  O   UNL     1      33.803  19.338   9.675  0.00  0.00    +0.000 OA
BRANCH  15  18
ATOM     17  C   UNL     1      36.098  20.464   8.248  0.00  0.00    +0.000 C 
ATOM     18  C   UNL     1      34.626  20.550   7.838  0.00  0.00    +0.000 C 
ATOM     19  C   UNL     1      34.332  21.853   7.130  0.00  0.00    +0.000 C 
ATOM     20  C   UNL     1      34.374  19.404   6.887  0.00  0.00    +0.000 C 
ENDBRANCH  15  18
ENDBRANCH  14  15
ENDBRANCH   1  14
TORSDOF 4
ENDMDL
MODEL 3
REMARK VINA RESULT:      -6.0     10.332     12.711
REMARK  Name = 
REMARK  4 active torsions:
REMARK  status: ('A' for Active; 'I' for Inactive)
REMARK    1  A    between atoms: C_2  and  C_5
REMARK    2  A    between atoms: C_5  and  C_7
REMARK    3  A    between atoms: C_7  and  C_8
REMARK    4  A    between atoms: C_12  and  C_13
REMARK                            x       y       z     vdW  Elec       q    Type
REMARK                         _______ _______ _______ _____ _____    ______ ____
ROOT
ATOM      1  C   UNL     1      32.675  21.058  10.736  0.00  0.00    +0.000 C 
ATOM      2  C   UNL     1      34.012  21.114  11.400  0.00  0.00    +0.000 C 
ATOM      3  N   UNL     1      32.294  22.377  10.327  0.00  0.00    +0.000 NA
ATOM      4  N   UNL     1      31.220  22.931  10.871  0.00  0.00    +0.000 NA
ATOM      5  C   UNL     1      30.538  22.330  11.724  0.00  0.00    +0.000 C 
ATOM      6  S   UNL     1      31.336  20.725  11.956  0.00  0.00    +0.000 S 
ENDROOT
BRANCH   5   7
ATOM      7  C   UNL     1      29.345  22.827  12.391  0.00  0.00    +0.000 A 
ATOM      8  C   UNL     1      29.428  23.546  13.564  0.00  0.00    +0.000 A 
ATOM      9  C   UNL     1      28.278  24.023  14.202  0.00  0.00    +0.000 A 
ATOM     10  C   UNL     1      27.024  23.790  13.683  0.00  0.00    +0.000 A 
ATOM     11  C   UNL     1      26.942  23.072  12.511  0.00  0.00    +0.000 A 
ATOM     12  C   UNL     1      28.088  22.601  11.880  0.00  0.00    +0.000 A 
ATOM     13  O   UNL     1      27.937  21.893  10.719  0.00  0.00    +0.000 OA
ENDBRANCH   5   7
BRANCH   1  14
ATOM     14  C   UNL     1      32.589  20.099   9.595  0.00  0.00    +0.000 C 
BRANCH  14  15
ATOM     15  C   UNL     1      32.777  20.784   8.308  0.00  0.00    +0.000 C 
ATOM     16  O   UNL     1      33.830  21.330   8.069  0.00  0.00    +0.000 OA
BRANCH  15  18
ATOM     17  C   UNL     1      31.291  22.252   7.080  0.00  0.00    +0.000 C 
ATOM     18  C   UNL     1      31.667  20.789   7.326  0.00  0.00    +0.000 C 
ATOM     19  C   UNL     1      30.475  19.992   7.805  0.00  0.00    +0.000 C 
ATOM     20  C   UNL     1      32.133  20.233   6.002  0.00  0.00    +0.000 C 
ENDBRANCH  15  18
ENDBRANCH  14  15
ENDBRANCH   1  14
TORSDOF 4
ENDMDL
MODEL 4
REMARK VINA RESULT:      -5.8     24.211     26.501
REMARK  Name = 
REMARK  4 active torsions:
REMARK  status: ('A' for Active; 'I' for Inactive)
REMARK    1  A    between atoms: C_2  and  C_5
REMARK    2  A    between atoms: C_5  and  C_7
REMARK    3  A    between atoms: C_7  and  C_8
REMARK    4  A    between atoms: C_12  and  C_13
REMARK                            x       y       z     vdW  Elec       q    Type
REMARK                         _______ _______ _______ _____ _____    ______ ____
ROOT
ATOM      1  C   UNL     1      19.331   9.939  38.834  0.00  0.00    +0.000 C 
ATOM      2  C   UNL     1      20.795   9.682  38.676  0.00  0.00    +0.000 C 
ATOM      3  N   UNL     1      18.595   8.905  38.171  0.00  0.00    +0.000 NA
ATOM      4  N   UNL     1      17.826   9.225  37.140  0.00  0.00    +0.000 NA
ATOM      5  C   UNL     1      17.731  10.402  36.740  0.00  0.00    +0.000 C 
ATOM      6  S   UNL     1      18.793  11.383  37.825  0.00  0.00    +0.000 S 
ENDROOT
BRANCH   5   7
ATOM      7  C   UNL     1      16.925  10.879  35.627  0.00  0.00    +0.000 A 
ATOM      8  C   UNL     1      17.311  10.665  34.321  0.00  0.00    +0.000 A 
ATOM      9  C   UNL     1      16.533  11.125  33.254  0.00  0.00    +0.000 A 
ATOM     10  C   UNL     1      15.357  11.809  33.469  0.00  0.00    +0.000 A 
ATOM     11  C   UNL     1      14.972  12.022  34.774  0.00  0.00    +0.000 A 
ATOM     12  C   UNL     1      15.748  11.562  35.832  0.00  0.00    +0.000 A 
ATOM     13  O   UNL     1      15.309  11.807  37.104  0.00  0.00    +0.000 OA
ENDBRANCH   5   7
BRANCH   1  14
ATOM     14  C   UNL     1      18.879  10.094  40.248  0.00  0.00    +0.000 C 
BRANCH  14  15
ATOM     15  C   UNL     1      18.282   8.851  40.756  0.00  0.00    +0.000 C 
ATOM     16  O   UNL     1      18.947   7.841  40.797  0.00  0.00    +0.000 OA
BRANCH  15  18
ATOM     17  C   UNL     1      16.846   9.540  42.583  0.00  0.00    +0.000 C 
ATOM     18  C   UNL     1      16.872   8.863  41.211  0.00  0.00    +0.000 C 
ATOM     19  C   UNL     1      16.280   7.472  41.277  0.00  0.00    +0.000 C 
ATOM     20  C   UNL     1      16.029   9.714  40.292  0.00  0.00    +0.000 C 
ENDBRANCH  15  18
ENDBRANCH  14  15
ENDBRANCH   1  14
TORSDOF 4
ENDMDL
MODEL 5
REMARK VINA RESULT:      -5.7     23.410     27.208
REMARK  Name = 
REMARK  4 active torsions:
REMARK  status: ('A' for Active; 'I' for Inactive)
REMARK    1  A    between atoms: C_2  and  C_5
REMARK    2  A    between atoms: C_5  and  C_7
REMARK    3  A    between atoms: C_7  and  C_8
REMARK    4  A    between atoms: C_12  and  C_13
REMARK                            x       y       z     vdW  Elec       q    Type
REMARK                         _______ _______ _______ _____ _____    ______ ____
ROOT
ATOM      1  C   UNL     1      20.977  10.373  38.157  0.00  0.00    +0.000 C 
ATOM      2  C   UNL     1      21.171  11.845  37.992  0.00  0.00    +0.000 C 
ATOM      3  N   UNL     1      19.842   9.956  37.389  0.00  0.00    +0.000 NA
ATOM      4  N   UNL     1      18.790   9.456  38.020  0.00  0.00    +0.000 NA
ATOM      5  C   UNL     1      18.769   9.341  39.261  0.00  0.00    +0.000 C 
ATOM      6  S   UNL     1      20.362   9.965  39.844  0.00  0.00    +0.000 S 
ENDROOT
BRANCH   5   7
ATOM      7  C   UNL     1      17.681   8.810  40.067  0.00  0.00    +0.000 A 
ATOM      8  C   UNL     1      16.606   9.596  40.424  0.00  0.00    +0.000 A 
ATOM      9  C   UNL     1      15.561   9.081  41.198  0.00  0.00    +0.000 A 
ATOM     10  C   UNL     1      15.569   7.774  41.633  0.00  0.00    +0.000 A 
ATOM     11  C   UNL     1      16.644   6.990  41.276  0.00  0.00    +0.000 A 
ATOM     12  C   UNL     1      17.680   7.506  40.505  0.00  0.00    +0.000 A 
ATOM     13  O   UNL     1      18.717   6.673  40.185  0.00  0.00    +0.000 OA
ENDBRANCH   5   7
BRANCH   1  14
ATOM     14  C   UNL     1      22.178   9.550  37.827  0.00  0.00    +0.000 C 
BRANCH  14  15
ATOM     15  C   UNL     1      23.418  10.235  38.217  0.00  0.00    +0.000 C 
ATOM     16  O   UNL     1      23.612  10.503  39.381  0.00  0.00    +0.000 OA
BRANCH  15  18
ATOM     17  C   UNL     1      24.673  12.086  37.285  0.00  0.00    +0.000 C 
ATOM     18  C   UNL     1      24.408  10.583  37.172  0.00  0.00    +0.000 C 
ATOM     19  C   UNL     1      23.931  10.215  35.785  0.00  0.00    +0.000 C 
ATOM     20  C   UNL     1      25.723   9.891  37.440  0.00  0.00    +0.000 C 
ENDBRANCH  15  18
ENDBRANCH  14  15
ENDBRANCH   1  14
TORSDOF 4
ENDMDL
MODEL 6
REMARK VINA RESULT:      -5.7     34.252     35.886
REMARK  Name = 
REMARK  4 active torsions:
REMARK  status: ('A' for Active; 'I' for Inactive)
REMARK    1  A    between atoms: C_2  and  C_5
REMARK    2  A    between atoms: C_5  and  C_7
REMARK    3  A    between atoms: C_7  and  C_8
REMARK    4  A    between atoms: C_12  and  C_13
REMARK                            x       y       z     vdW  Elec       q    Type
REMARK                         _______ _______ _______ _____ _____    ______ ____
ROOT
ATOM      1  C   UNL     1      22.987  -9.274  23.709  0.00  0.00    +0.000 C 
ATOM      2  C   UNL     1      23.229 -10.739  23.874  0.00  0.00    +0.000 C 
ATOM      3  N   UNL     1      23.356  -8.595  24.915  0.00  0.00    +0.000 NA
ATOM      4  N   UNL     1      22.420  -7.959  25.605  0.00  0.00    +0.000 NA
ATOM      5  C   UNL     1      21.233  -7.939  25.226  0.00  0.00    +0.000 C 
ATOM      6  S   UNL     1      21.185  -8.892  23.691  0.00  0.00    +0.000 S 
ENDROOT
BRANCH   5   7
ATOM      7  C   UNL     1      20.119  -7.281  25.891  0.00  0.00    +0.000 A 
ATOM      8  C   UNL     1      19.930  -5.919  25.791  0.00  0.00    +0.000 A 
ATOM      9  C   UNL     1      18.858  -5.290  26.431  0.00  0.00    +0.000 A 
ATOM     10  C   UNL     1      17.953  -6.007  27.183  0.00  0.00    +0.000 A 
ATOM     11  C   UNL     1      18.143  -7.368  27.282  0.00  0.00    +0.000 A 
ATOM     12  C   UNL     1      19.210  -7.989  26.643  0.00  0.00    +0.000 A 
ATOM     13  O   UNL     1      19.341  -9.343  26.782  0.00  0.00    +0.000 OA
ENDBRANCH   5   7
BRANCH   1  14
ATOM     14  C   UNL     1      23.661  -8.664  22.525  0.00  0.00    +0.000 C 
BRANCH  14  15
ATOM     15  C   UNL     1      24.987  -9.257  22.302  0.00  0.00    +0.000 C 
ATOM     16  O   UNL     1      25.080 -10.311  21.715  0.00  0.00    +0.000 OA
BRANCH  15  18
ATOM     17  C   UNL     1      26.700  -9.331  24.014  0.00  0.00    +0.000 C 
ATOM     18  C   UNL     1      26.187  -8.547  22.804  0.00  0.00    +0.000 C 
ATOM     19  C   UNL     1      25.892  -7.110  23.169  0.00  0.00    +0.000 C 
ATOM     20  C   UNL     1      27.287  -8.577  21.770  0.00  0.00    +0.000 C 
ENDBRANCH  15  18
ENDBRANCH  14  15
ENDBRANCH   1  14
TORSDOF 4
ENDMDL
MODEL 7
REMARK VINA RESULT:      -5.4     21.645     24.576
REMARK  Name = 
REMARK  4 active torsions:
REMARK  status: ('A' for Active; 'I' for Inactive)
REMARK    1  A    between atoms: C_2  and  C_5
REMARK    2  A    between atoms: C_5  and  C_7
REMARK    3  A    between atoms: C_7  and  C_8
REMARK    4  A    between atoms: C_12  and  C_13
REMARK                            x       y       z     vdW  Elec       q    Type
REMARK                         _______ _______ _______ _____ _____    ______ ____
ROOT
ATOM      1  C   UNL     1      25.237   3.419  17.542  0.00  0.00    +0.000 C 
ATOM      2  C   UNL     1      26.412   2.676  16.995  0.00  0.00    +0.000 C 
ATOM      3  N   UNL     1      24.642   2.653  18.596  0.00  0.00    +0.000 NA
ATOM      4  N   UNL     1      23.402   2.209  18.445  0.00  0.00    +0.000 NA
ATOM      5  C   UNL     1      22.748   2.445  17.411  0.00  0.00    +0.000 C 
ATOM      6  S   UNL     1      23.835   3.424  16.348  0.00  0.00    +0.000 S 
ENDROOT
BRANCH   5   7
ATOM      7  C   UNL     1      21.388   2.017  17.126  0.00  0.00    +0.000 A 
ATOM      8  C   UNL     1      20.318   2.508  17.843  0.00  0.00    +0.000 A 
ATOM      9  C   UNL     1      19.011   2.094  17.565  0.00  0.00    +0.000 A 
ATOM     10  C   UNL     1      18.746   1.182  16.567  0.00  0.00    +0.000 A 
ATOM     11  C   UNL     1      19.816   0.692  15.852  0.00  0.00    +0.000 A 
ATOM     12  C   UNL     1      21.114   1.107  16.131  0.00  0.00    +0.000 A 
ATOM     13  O   UNL     1      22.131   0.581  15.382  0.00  0.00    +0.000 OA
ENDBRANCH   5   7
BRANCH   1  14
ATOM     14  C   UNL     1      25.539   4.808  17.996  0.00  0.00    +0.000 C 
BRANCH  14  15
ATOM     15  C   UNL     1      26.629   5.401  17.209  0.00  0.00    +0.000 C 
ATOM     16  O   UNL     1      26.508   5.515  16.010  0.00  0.00    +0.000 OA
BRANCH  15  18
ATOM     17  C   UNL     1      29.001   4.953  17.421  0.00  0.00    +0.000 C 
ATOM     18  C   UNL     1      27.859   5.849  17.904  0.00  0.00    +0.000 C 
ATOM     19  C   UNL     1      27.719   5.793  19.409  0.00  0.00    +0.000 C 
ATOM     20  C   UNL     1      28.212   7.259  17.493  0.00  0.00    +0.000 C 
ENDBRANCH  15  18
ENDBRANCH  14  15
ENDBRANCH   1  14
TORSDOF 4
ENDMDL
MODEL 8
REMARK VINA RESULT:      -5.4      4.757      7.860
REMARK  Name = 
REMARK  4 active torsions:
REMARK  status: ('A' for Active; 'I' for Inactive)
REMARK    1  A    between atoms: C_2  and  C_5
REMARK    2  A    between atoms: C_5  and  C_7
REMARK    3  A    between atoms: C_7  and  C_8
REMARK    4  A    between atoms: C_12  and  C_13
REMARK                            x       y       z     vdW  Elec       q    Type
REMARK                         _______ _______ _______ _____ _____    ______ ____
ROOT
ATOM      1  C   UNL     1      27.420  23.798  23.032  0.00  0.00    +0.000 C 
ATOM      2  C   UNL     1      27.489  24.218  21.600  0.00  0.00    +0.000 C 
ATOM      3  N   UNL     1      26.178  23.125  23.268  0.00  0.00    +0.000 NA
ATOM      4  N   UNL     1      25.308  23.661  24.113  0.00  0.00    +0.000 NA
ATOM      5  C   UNL     1      25.550  24.732  24.703  0.00  0.00    +0.000 C 
ATOM      6  S   UNL     1      27.190  25.248  24.144  0.00  0.00    +0.000 S 
ENDROOT
BRANCH   5   7
ATOM      7  C   UNL     1      24.684  25.419  25.648  0.00  0.00    +0.000 A 
ATOM      8  C   UNL     1      23.772  26.363  25.227  0.00  0.00    +0.000 A 
ATOM      9  C   UNL     1      22.940  27.020  26.139  0.00  0.00    +0.000 A 
ATOM     10  C   UNL     1      23.003  26.750  27.488  0.00  0.00    +0.000 A 
ATOM     11  C   UNL     1      23.914  25.806  27.908  0.00  0.00    +0.000 A 
ATOM     12  C   UNL     1      24.739  25.154  26.997  0.00  0.00    +0.000 A 
ATOM     13  O   UNL     1      25.622  24.228  27.480  0.00  0.00    +0.000 OA
ENDBRANCH   5   7
BRANCH   1  14
ATOM     14  C   UNL     1      28.573  22.968  23.490  0.00  0.00    +0.000 C 
BRANCH  14  15
ATOM     15  C   UNL     1      29.810  23.759  23.546  0.00  0.00    +0.000 C 
ATOM     16  O   UNL     1      30.144  24.416  22.586  0.00  0.00    +0.000 OA
BRANCH  15  18
ATOM     17  C   UNL     1      30.624  25.156  25.351  0.00  0.00    +0.000 C 
ATOM     18  C   UNL     1      30.626  23.735  24.783  0.00  0.00    +0.000 C 
ATOM     19  C   UNL     1      32.036  23.250  24.530  0.00  0.00    +0.000 C 
ATOM     20  C   UNL     1      29.980  22.852  25.823  0.00  0.00    +0.000 C 
ENDBRANCH  15  18
ENDBRANCH  14  15
ENDBRANCH   1  14
TORSDOF 4
ENDMDL
MODEL 9
REMARK VINA RESULT:      -5.4      5.213      7.260
REMARK  Name = 
REMARK  4 active torsions:
REMARK  status: ('A' for Active; 'I' for Inactive)
REMARK    1  A    between atoms: C_2  and  C_5
REMARK    2  A    between atoms: C_5  and  C_7
REMARK    3  A    between atoms: C_7  and  C_8
REMARK    4  A    between atoms: C_12  and  C_13
REMARK                            x       y       z     vdW  Elec       q    Type
REMARK                         _______ _______ _______ _____ _____    ______ ____
ROOT
ATOM      1  C   UNL     1      30.242  23.314  28.046  0.00  0.00    +0.000 C 
ATOM      2  C   UNL     1      31.725  23.460  28.149  0.00  0.00    +0.000 C 
ATOM      3  N   UNL     1      29.933  22.094  27.362  0.00  0.00    +0.000 NA
ATOM      4  N   UNL     1      29.305  22.153  26.197  0.00  0.00    +0.000 NA
ATOM      5  C   UNL     1      28.977  23.243  25.689  0.00  0.00    +0.000 C 
ATOM      6  S   UNL     1      29.534  24.517  26.845  0.00  0.00    +0.000 S 
ENDROOT
BRANCH   5   7
ATOM      7  C   UNL     1      28.288  23.441  24.424  0.00  0.00    +0.000 A 
ATOM      8  C   UNL     1      26.913  23.379  24.340  0.00  0.00    +0.000 A 
ATOM      9  C   UNL     1      26.254  23.570  23.122  0.00  0.00    +0.000 A 
ATOM     10  C   UNL     1      26.953  23.826  21.963  0.00  0.00    +0.000 A 
ATOM     11  C   UNL     1      28.327  23.888  22.047  0.00  0.00    +0.000 A 
ATOM     12  C   UNL     1      28.978  23.698  23.261  0.00  0.00    +0.000 A 
ATOM     13  O   UNL     1      30.343  23.773  23.276  0.00  0.00    +0.000 OA
ENDBRANCH   5   7
BRANCH   1  14
ATOM     14  C   UNL     1      29.520  23.393  29.350  0.00  0.00    +0.000 C 
BRANCH  14  15
ATOM     15  C   UNL     1      28.280  24.172  29.226  0.00  0.00    +0.000 C 
ATOM     16  O   UNL     1      28.339  25.366  29.039  0.00  0.00    +0.000 OA
BRANCH  15  18
ATOM     17  C   UNL     1      26.155  24.213  30.390  0.00  0.00    +0.000 C 
ATOM     18  C   UNL     1      26.976  23.474  29.332  0.00  0.00    +0.000 C 
ATOM     19  C   UNL     1      27.137  22.013  29.686  0.00  0.00    +0.000 C 
ATOM     20  C   UNL     1      26.212  23.587  28.034  0.00  0.00    +0.000 C 
ENDBRANCH  15  18
ENDBRANCH  14  15
ENDBRANCH   1  14
TORSDOF 4
ENDMDL
MODEL 10
REMARK VINA RESULT:      -5.3     23.324     26.688
REMARK  Name = 
REMARK  4 active torsions:
REMARK  status: ('A' for Active; 'I' for Inactive)
REMARK    1  A    between atoms: C_2  and  C_5
REMARK    2  A    between atoms: C_5  and  C_7
REMARK    3  A    between atoms: C_7  and  C_8
REMARK    4  A    between atoms: C_12  and  C_13
REMARK                            x       y       z     vdW  Elec       q    Type
REMARK                         _______ _______ _______ _____ _____    ______ ____
ROOT
ATOM      1  C   UNL     1      19.341   8.850  39.934  0.00  0.00    +0.000 C 
ATOM      2  C   UNL     1      18.859   7.435  39.935  0.00  0.00    +0.000 C 
ATOM      3  N   UNL     1      19.064   9.443  38.660  0.00  0.00    +0.000 NA
ATOM      4  N   UNL     1      20.078   9.836  37.902  0.00  0.00    +0.000 NA
ATOM      5  C   UNL     1      21.259   9.701  38.275  0.00  0.00    +0.000 C 
ATOM      6  S   UNL     1      21.181   8.930  39.907  0.00  0.00    +0.000 S 
ENDROOT
BRANCH   5   7
ATOM      7  C   UNL     1      22.452  10.090  37.539  0.00  0.00    +0.000 A 
ATOM      8  C   UNL     1      22.966   9.295  36.537  0.00  0.00    +0.000 A 
ATOM      9  C   UNL     1      24.113   9.673  35.832  0.00  0.00    +0.000 A 
ATOM     10  C   UNL     1      24.770  10.850  36.113  0.00  0.00    +0.000 A 
ATOM     11  C   UNL     1      24.256  11.644  37.114  0.00  0.00    +0.000 A 
ATOM     12  C   UNL     1      23.115  11.265  37.812  0.00  0.00    +0.000 A 
ATOM     13  O   UNL     1      22.657  12.099  38.795  0.00  0.00    +0.000 OA
ENDBRANCH   5   7
BRANCH   1  14
ATOM     14  C   UNL     1      18.799   9.690  41.043  0.00  0.00    +0.000 C 
BRANCH  14  15
ATOM     15  C   UNL     1      17.377   9.408  41.280  0.00  0.00    +0.000 C 
ATOM     16  O   UNL     1      16.570   9.623  40.404  0.00  0.00    +0.000 OA
BRANCH  15  18
ATOM     17  C   UNL     1      16.290  10.002  43.362  0.00  0.00    +0.000 C 
ATOM     18  C   UNL     1      16.958   8.861  42.592  0.00  0.00    +0.000 C 
ATOM     19  C   UNL     1      18.121   8.285  43.370  0.00  0.00    +0.000 C 
ATOM     20  C   UNL     1      15.910   7.791  42.407  0.00  0.00    +0.000 C 
ENDBRANCH  15  18
ENDBRANCH  14  15
ENDBRANCH   1  14
TORSDOF 4
ENDMDL
