REMARK  Name = 
REMARK  6 active torsions:
REMARK  status: ('A' for Active; 'I' for Inactive)
REMARK    1  A    between atoms: C_2  and  C_3
REMARK    2  A    between atoms: C_9  and  C_11
REMARK    3  A    between atoms: N_14  and  C_15
REMARK    4  A    between atoms: C_18  and  O_19
REMARK    5  A    between atoms: C_23  and  C_24
REMARK    6  A    between atoms: C_24  and  O_25
REMARK                            x       y       z     vdW  Elec       q    Type
REMARK                         _______ _______ _______ _____ _____    ______ ____
ROOT
ATOM      1  C   UNL     1       0.258  -0.473   1.230  0.00  0.00    +0.000 A 
ATOM      2  N   UNL     1      -0.249  -1.661   0.878  0.00  0.00    +0.000 NA
ATOM      3  N   UNL     1      -0.547  -1.672  -0.402  0.00  0.00    +0.000 NA
ATOM      4  N   UNL     1      -0.239  -0.470  -0.944  0.00  0.00    +0.000 N 
ATOM      5  C   UNL     1       0.250   0.271   0.035  0.00  0.00    +0.000 A 
ENDROOT
BRANCH   1  12
ATOM      6  C   UNL     1       1.070  -0.663   5.024  0.00  0.00    +0.000 C 
ATOM      7  C   UNL     1      -0.349  -0.046   5.544  0.00  0.00    +0.000 C 
ATOM      8  C   UNL     1      -1.409  -0.985   5.001  0.00  0.00    +0.000 C 
ATOM      9  C   UNL     1      -0.876  -2.337   4.604  0.00  0.00    +0.000 C 
ATOM     10  C   UNL     1       0.152  -2.223   3.465  0.00  0.00    +0.000 C 
ATOM     11  N   UNL     1       0.658  -0.891   3.591  0.00  0.00    +0.000 N 
ATOM     12  C   UNL     1       0.721  -0.021   2.530  0.00  0.00    +0.000 C 
ATOM     13  O   UNL     1       1.166   1.169   2.620  0.00  0.00    +0.000 OA
BRANCH   6  15
ATOM     14  C   UNL     1       3.156   0.296   4.298  0.00  0.00    +0.000 C 
ATOM     15  C   UNL     1       1.782   0.777   4.794  0.00  0.00    +0.000 C 
ENDBRANCH   6  15
ENDBRANCH   1  12
BRANCH   4  16
ATOM     16  C   UNL     1      -0.407  -0.155  -2.323  0.00  0.00    +0.000 A 
ATOM     17  C   UNL     1      -1.645  -0.090  -2.943  0.00  0.00    +0.000 A 
ATOM     18  C   UNL     1      -1.811   0.188  -4.286  0.00  0.00    +0.000 A 
ATOM     19  C   UNL     1      -0.698   0.415  -5.069  0.00  0.00    +0.000 A 
ATOM     20  C   UNL     1       0.546   0.362  -4.502  0.00  0.00    +0.000 A 
ATOM     21  C   UNL     1       0.674   0.082  -3.156  0.00  0.00    +0.000 A 
BRANCH  19  22
ATOM     22  O   UNL     1      -0.922   0.689  -6.408  0.00  0.00    +0.000 OA
ATOM     23  C   UNL     1      -2.194   0.743  -6.988  0.00  0.00    +0.000 C 
ENDBRANCH  19  22
ENDBRANCH   4  16
BRANCH   5  24
ATOM     24  C   UNL     1       0.767   1.626   0.007  0.00  0.00    +0.000 C 
BRANCH  24  25
ATOM     25  O   UNL     1       0.700   2.360  -1.127  0.00  0.00    +0.000 OA
ATOM     26  C   UNL     1      -0.552   2.709  -1.579  0.00  0.00    +0.000 C 
ENDBRANCH  24  25
ENDBRANCH   5  24
TORSDOF 6
