REMARK  Name = 
REMARK  1 active torsions:
REMARK  status: ('A' for Active; 'I' for Inactive)
REMARK    1  A    between atoms: C_5  and  C_6
REMARK                            x       y       z     vdW  Elec       q    Type
REMARK                         _______ _______ _______ _____ _____    ______ ____
ROOT
ATOM      1  O   UNL     1      -1.865  -1.917   1.874  0.00  0.00    +0.000 OA
ATOM      2  C   UNL     1      -1.363  -1.117   1.055  0.00  0.00    +0.000 A 
ATOM      3  C   UNL     1      -0.013  -0.866   0.959  0.00  0.00    +0.000 A 
ATOM      4  O   UNL     1       0.856  -1.529   1.811  0.00  0.00    +0.000 OA
ATOM      5  C   UNL     1       0.490   0.023   0.041  0.00  0.00    +0.000 A 
ATOM      6  O   UNL     1      -0.347   0.637  -0.753  0.00  0.00    +0.000 OA
ATOM      7  C   UNL     1      -1.664   0.430  -0.702  0.00  0.00    +0.000 A 
ATOM      8  C   UNL     1      -2.461   1.124  -1.579  0.00  0.00    +0.000 A 
ATOM      9  C   UNL     1      -3.819   0.946  -1.564  0.00  0.00    +0.000 A 
ATOM     10  C   UNL     1      -4.364   0.071  -0.668  0.00  0.00    +0.000 A 
ATOM     11  O   UNL     1      -5.742  -0.136  -0.625  0.00  0.00    +0.000 OA
ATOM     12  C   UNL     1      -3.580  -0.634   0.220  0.00  0.00    +0.000 A 
ATOM     13  C   UNL     1      -2.201  -0.439   0.190  0.00  0.00    +0.000 A 
ENDROOT
BRANCH   5  14
ATOM     14  C   UNL     1       1.931   0.232   0.004  0.00  0.00    +0.000 A 
ATOM     15  C   UNL     1       2.783  -0.435   0.858  0.00  0.00    +0.000 A 
ATOM     16  C   UNL     1       4.151  -0.249   0.836  0.00  0.00    +0.000 A 
ATOM     17  C   UNL     1       4.727   0.630  -0.060  0.00  0.00    +0.000 A 
ATOM     18  O   UNL     1       6.104   0.824  -0.090  0.00  0.00    +0.000 OA
ATOM     19  C   UNL     1       3.873   1.296  -0.914  0.00  0.00    +0.000 A 
ATOM     20  C   UNL     1       2.505   1.110  -0.892  0.00  0.00    +0.000 A 
ENDBRANCH   5  14
TORSDOF 1
