REMARK  Name = 
REMARK  1 active torsions:
REMARK  status: ('A' for Active; 'I' for Inactive)
REMARK    1  A    between atoms: C_19  and  C_20
REMARK                            x       y       z     vdW  Elec       q    Type
REMARK                         _______ _______ _______ _____ _____    ______ ____
ROOT
ATOM      1  C   UNL     1      -3.331  -0.866   1.337  0.00  0.00    +0.000 C 
ATOM      2  C   UNL     1      -2.374  -0.056   0.508  0.00  0.00    +0.000 C 
ATOM      3  C   UNL     1      -1.553   0.721   1.359  0.00  0.00    +0.000 C 
ATOM      4  C   UNL     1      -0.276   1.268   1.031  0.00  0.00    +0.000 C 
ATOM      5  C   UNL     1       0.221   0.539  -0.312  0.00  0.00    +0.000 C 
ATOM      6  C   UNL     1       1.734   0.516   0.057  0.00  0.00    +0.000 A 
ATOM      7  C   UNL     1       2.336   1.244   0.994  0.00  0.00    +0.000 A 
ATOM      8  C   UNL     1       3.699   1.094   1.164  0.00  0.00    +0.000 A 
ATOM      9  C   UNL     1       4.415   0.212   0.381  0.00  0.00    +0.000 A 
ATOM     10  O   UNL     1       5.788   0.023   0.511  0.00  0.00    +0.000 OA
ATOM     11  C   UNL     1       3.776  -0.553  -0.604  0.00  0.00    +0.000 A 
ATOM     12  C   UNL     1       2.433  -0.360  -0.723  0.00  0.00    +0.000 A 
ATOM     13  C   UNL     1       1.569  -1.091  -1.707  0.00  0.00    +0.000 C 
ATOM     14  C   UNL     1       0.478  -1.812  -1.040  0.00  0.00    +0.000 C 
ATOM     15  C   UNL     1      -0.076  -0.993   0.241  0.00  0.00    +0.000 C 
ATOM     16  C   UNL     1      -1.651  -1.216  -0.300  0.00  0.00    +0.000 C 
ATOM     17  C   UNL     1      -1.540  -0.486  -1.730  0.00  0.00    +0.000 C 
ATOM     18  C   UNL     1      -3.043  -0.327  -1.800  0.00  0.00    +0.000 C 
ATOM     19  C   UNL     1      -3.105   0.795  -0.626  0.00  0.00    +0.000 C 
ENDROOT
BRANCH  19  20
ATOM     20  C   UNL     1      -4.644   0.455  -0.256  0.00  0.00    +0.000 C 
ATOM     21  O   UNL     1      -4.857   0.893   1.032  0.00  0.00    +0.000 OA
ENDBRANCH  19  20
TORSDOF 1
