REMARK  Name = 
REMARK  4 active torsions:
REMARK  status: ('A' for Active; 'I' for Inactive)
REMARK    1  A    between atoms: C_2  and  C_3
REMARK    2  A    between atoms: C_4  and  C_5
REMARK    3  A    between atoms: N_13  and  C_14
REMARK    4  A    between atoms: C_20  and  C_21
REMARK                            x       y       z     vdW  Elec       q    Type
REMARK                         _______ _______ _______ _____ _____    ______ ____
ROOT
ATOM      1  C   UNL     1      -0.635   0.943  -0.063  0.00  0.00    +0.000 A 
ATOM      2  C   UNL     1      -1.619  -0.029   0.047  0.00  0.00    +0.000 A 
ATOM      3  N   UNL     1      -1.003  -1.220   0.046  0.00  0.00    +0.000 NA
ATOM      4  N   UNL     1       0.309  -1.096  -0.057  0.00  0.00    +0.000 N 
ATOM      5  C   UNL     1       0.551   0.225  -0.125  0.00  0.00    +0.000 A 
ENDROOT
BRANCH   2   6
ATOM      6  C   UNL     1      -3.036   0.238   0.144  0.00  0.00    +0.000 A 
ATOM      7  C   UNL     1      -3.663   1.148  -0.672  0.00  0.00    +0.000 A 
ATOM      8  C   UNL     1      -5.012   1.369  -0.540  0.00  0.00    +0.000 A 
ATOM      9  C   UNL     1      -5.741   0.678   0.413  0.00  0.00    +0.000 A 
ATOM     10  O   UNL     1      -7.109   0.911   0.538  0.00  0.00    +0.000 OA
ATOM     11  C   UNL     1      -5.141  -0.230   1.233  0.00  0.00    +0.000 A 
ATOM     12  C   UNL     1      -3.775  -0.440   1.085  0.00  0.00    +0.000 A 
ENDBRANCH   2   6
BRANCH   5  13
ATOM     13  C   UNL     1       1.881   0.840  -0.246  0.00  0.00    +0.000 A 
ATOM     14  C   UNL     1       2.024   2.209  -0.310  0.00  0.00    +0.000 A 
ATOM     15  C   UNL     1       3.274   2.809  -0.424  0.00  0.00    +0.000 A 
ATOM     16  C   UNL     1       4.421   2.045  -0.478  0.00  0.00    +0.000 A 
ATOM     17  O   UNL     1       5.685   2.620  -0.593  0.00  0.00    +0.000 OA
ATOM     18  C   UNL     1       4.276   0.675  -0.415  0.00  0.00    +0.000 A 
ATOM     19  C   UNL     1       3.022   0.075  -0.300  0.00  0.00    +0.000 A 
ENDBRANCH   5  13
BRANCH   4  20
ATOM     20  C   UNL     1       1.278  -2.150  -0.089  0.00  0.00    +0.000 A 
ATOM     21  C   UNL     1       1.945  -2.418  -1.264  0.00  0.00    +0.000 A 
ATOM     22  C   UNL     1       2.889  -3.420  -1.360  0.00  0.00    +0.000 A 
ATOM     23  C   UNL     1       3.187  -4.195  -0.236  0.00  0.00    +0.000 A 
ATOM     24  C   UNL     1       2.535  -3.944   0.938  0.00  0.00    +0.000 A 
ATOM     25  C   UNL     1       1.585  -2.925   1.009  0.00  0.00    +0.000 A 
ENDBRANCH   4  20
BRANCH   1  27
ATOM     26  C   UNL     1      -1.317   2.861  -1.468  0.00  0.00    +0.000 C 
ATOM     27  C   UNL     1      -0.812   2.421  -0.106  0.00  0.00    +0.000 C 
ENDBRANCH   1  27
TORSDOF 4
