REMARK  Name = 
REMARK  0 active torsions:
REMARK  status: ('A' for Active; 'I' for Inactive)
REMARK                            x       y       z     vdW  Elec       q    Type
REMARK                         _______ _______ _______ _____ _____    ______ ____
ROOT
ATOM      1  C   UNL     1      -3.627  -1.561   0.999  0.00  0.00    +0.000 C 
ATOM      2  C   UNL     1      -2.324  -0.780   0.734  0.00  0.00    +0.000 C 
ATOM      3  C   UNL     1      -1.455  -0.901   1.793  0.00  0.00    +0.000 C 
ATOM      4  C   UNL     1      -0.153  -0.277   1.463  0.00  0.00    +0.000 C 
ATOM      5  C   UNL     1       0.322  -1.339   0.346  0.00  0.00    +0.000 C 
ATOM      6  C   UNL     1       1.671  -0.575   0.053  0.00  0.00    +0.000 A 
ATOM      7  C   UNL     1       2.791  -1.166   0.609  0.00  0.00    +0.000 A 
ATOM      8  C   UNL     1       4.049  -0.631   0.453  0.00  0.00    +0.000 A 
ATOM      9  C   UNL     1       4.167   0.530  -0.285  0.00  0.00    +0.000 A 
ATOM     10  O   UNL     1       5.416   1.127  -0.483  0.00  0.00    +0.000 OA
ATOM     11  C   UNL     1       3.024   1.083  -0.819  0.00  0.00    +0.000 A 
ATOM     12  C   UNL     1       1.757   0.540  -0.659  0.00  0.00    +0.000 A 
ATOM     13  C   UNL     1       0.622   1.292  -1.323  0.00  0.00    +0.000 C 
ATOM     14  C   UNL     1      -0.658   0.762  -0.704  0.00  0.00    +0.000 C 
ATOM     15  C   UNL     1      -0.461  -0.781  -1.022  0.00  0.00    +0.000 C 
ATOM     16  C   UNL     1      -1.981  -1.405  -0.683  0.00  0.00    +0.000 C 
ATOM     17  C   UNL     1      -2.750  -0.324  -1.616  0.00  0.00    +0.000 C 
ATOM     18  C   UNL     1      -3.877   0.142  -0.708  0.00  0.00    +0.000 C 
ATOM     19  C   UNL     1      -2.772   0.726   0.357  0.00  0.00    +0.000 C 
ATOM     20  O   UNL     1      -3.762   0.845   1.494  0.00  0.00    +0.000 OA
ENDROOT
TORSDOF 0
