REMARK  Name = 
REMARK  0 active torsions:
REMARK  status: ('A' for Active; 'I' for Inactive)
REMARK                            x       y       z     vdW  Elec       q    Type
REMARK                         _______ _______ _______ _____ _____    ______ ____
ROOT
ATOM      1  C   UNL     1      -2.991  -0.780   0.990  0.00  0.00    +0.000 C 
ATOM      2  C   UNL     1      -2.768   0.007  -0.135  0.00  0.00    +0.000 C 
ATOM      3  C   UNL     1      -2.194  -0.424  -1.395  0.00  0.00    +0.000 C 
ATOM      4  C   UNL     1      -0.728  -0.705  -1.393  0.00  0.00    +0.000 C 
ATOM      5  C   UNL     1       0.062   0.616  -0.878  0.00  0.00    +0.000 C 
ATOM      6  C   UNL     1       1.433  -0.038  -0.615  0.00  0.00    +0.000 A 
ATOM      7  C   UNL     1       1.918  -1.033  -1.413  0.00  0.00    +0.000 A 
ATOM      8  C   UNL     1       3.172  -1.618  -1.150  0.00  0.00    +0.000 A 
ATOM      9  O   UNL     1       3.664  -2.631  -1.964  0.00  0.00    +0.000 OA
ATOM     10  C   UNL     1       3.921  -1.185  -0.079  0.00  0.00    +0.000 A 
ATOM     11  O   UNL     1       5.177  -1.772   0.184  0.00  0.00    +0.000 OA
ATOM     12  C   UNL     1       3.426  -0.185   0.719  0.00  0.00    +0.000 A 
ATOM     13  C   UNL     1       2.163   0.394   0.443  0.00  0.00    +0.000 A 
ATOM     14  C   UNL     1       1.688   1.475   1.341  0.00  0.00    +0.000 C 
ATOM     15  C   UNL     1       0.217   1.768   1.234  0.00  0.00    +0.000 C 
ATOM     16  C   UNL     1      -0.536   0.469   0.694  0.00  0.00    +0.000 C 
ATOM     17  C   UNL     1      -1.893   1.362   0.172  0.00  0.00    +0.000 C 
ATOM     18  C   UNL     1      -2.624   1.490   1.602  0.00  0.00    +0.000 C 
ATOM     19  C   UNL     1      -4.001   1.675   1.119  0.00  0.00    +0.000 C 
ATOM     20  C   UNL     1      -4.000   1.058  -0.417  0.00  0.00    +0.000 C 
ATOM     21  O   UNL     1      -5.105   0.055  -0.078  0.00  0.00    +0.000 OA
ENDROOT
TORSDOF 0
