REMARK  Name = 
REMARK  1 active torsions:
REMARK  status: ('A' for Active; 'I' for Inactive)
REMARK    1  A    between atoms: C_5  and  C_6
REMARK                            x       y       z     vdW  Elec       q    Type
REMARK                         _______ _______ _______ _____ _____    ______ ____
ROOT
ATOM      1  C   UNL     1      -0.254  -0.108   0.051  0.00  0.00    +0.000 A 
ATOM      2  C   UNL     1      -1.165  -1.114   0.295  0.00  0.00    +0.000 A 
ATOM      3  C   UNL     1      -2.526  -0.882   0.267  0.00  0.00    +0.000 A 
ATOM      4 CL   UNL     1      -3.687  -2.165   0.578  0.00  0.00    +0.000 Cl
ATOM      5  C   UNL     1      -3.041   0.368  -0.008  0.00  0.00    +0.000 A 
ATOM      6 CL   UNL     1      -4.776   0.651  -0.042  0.00  0.00    +0.000 Cl
ATOM      7  C   UNL     1      -2.135   1.379  -0.254  0.00  0.00    +0.000 A 
ATOM      8 CL   UNL     1      -2.790   2.971  -0.603  0.00  0.00    +0.000 Cl
ATOM      9  C   UNL     1      -0.776   1.138  -0.223  0.00  0.00    +0.000 A 
ATOM     10 CL   UNL     1       0.350   2.439  -0.538  0.00  0.00    +0.000 Cl
ENDROOT
BRANCH   1  15
ATOM     11  O   UNL     1       5.341  -1.058   0.048  0.00  0.00    +0.000 OA
ATOM     12  C   UNL     1       3.958  -0.829   0.057  0.00  0.00    +0.000 A 
ATOM     13  C   UNL     1       3.167  -1.339   1.064  0.00  0.00    +0.000 A 
ATOM     14  C   UNL     1       1.807  -1.111   1.070  0.00  0.00    +0.000 A 
ATOM     15  C   UNL     1       1.179  -0.374   0.086  0.00  0.00    +0.000 A 
ATOM     16  C   UNL     1       1.993   0.123  -0.909  0.00  0.00    +0.000 A 
ATOM     17  C   UNL     1       3.355  -0.089  -0.938  0.00  0.00    +0.000 A 
ENDBRANCH   1  15
TORSDOF 1
