REMARK  Name = 
REMARK  0 active torsions:
REMARK  status: ('A' for Active; 'I' for Inactive)
REMARK                            x       y       z     vdW  Elec       q    Type
REMARK                         _______ _______ _______ _____ _____    ______ ____
ROOT
ATOM      1  C   UNL     1      -3.788  -1.657   0.000  0.00  0.00    +0.000 C 
ATOM      2  C   UNL     1      -2.870  -0.471   0.000  0.00  0.00    +0.000 C 
ATOM      3  C   UNL     1      -2.160  -1.792   0.000  0.00  0.00    +0.000 C 
ATOM      4  C   UNL     1      -0.661  -1.838   0.000  0.00  0.00    +0.000 C 
ATOM      5  C   UNL     1       0.129  -0.562   0.000  0.00  0.00    +0.000 C 
ATOM      6  C   UNL     1       1.628  -0.608   0.000  0.00  0.00    +0.000 A 
ATOM      7  C   UNL     1       2.338  -1.929   0.000  0.00  0.00    +0.000 A 
ATOM      8  C   UNL     1       3.837  -1.975   0.000  0.00  0.00    +0.000 A 
ATOM      9  C   UNL     1       4.626  -0.700   0.000  0.00  0.00    +0.000 A 
ATOM     10  O   UNL     1       6.126  -0.745   0.000  0.00  0.00    +0.000 OA
ATOM     11  C   UNL     1       3.917   0.622   0.000  0.00  0.00    +0.000 A 
ATOM     12  C   UNL     1       2.417   0.668   0.000  0.00  0.00    +0.000 A 
ATOM     13  C   UNL     1       1.707   1.989   0.000  0.00  0.00    +0.000 C 
ATOM     14  O   UNL     1       2.497   3.264   0.000  0.00  0.00    +0.000 OA
ATOM     15  C   UNL     1       0.208   2.035   0.000  0.00  0.00    +0.000 C 
ATOM     16  C   UNL     1      -0.581   0.759   0.000  0.00  0.00    +0.000 C 
ATOM     17  C   UNL     1      -2.081   0.805   0.000  0.00  0.00    +0.000 C 
ATOM     18  C   UNL     1      -3.050   1.950   0.000  0.00  0.00    +0.000 C 
ATOM     19  C   UNL     1      -4.438   1.382   0.000  0.00  0.00    +0.000 C 
ATOM     20  C   UNL     1      -4.327  -0.114   0.000  0.00  0.00    +0.000 C 
ATOM     21  O   UNL     1      -5.472  -1.083   0.000  0.00  0.00    +0.000 OA
ENDROOT
TORSDOF 0
