REMARK  Name = 
REMARK  0 active torsions:
REMARK  status: ('A' for Active; 'I' for Inactive)
REMARK                            x       y       z     vdW  Elec       q    Type
REMARK                         _______ _______ _______ _____ _____    ______ ____
ROOT
ATOM      1  O   UNL     1      -0.279  -2.917  -0.565  0.00  0.00    +0.000 OA
ATOM      2  C   UNL     1       0.310  -1.827  -0.380  0.00  0.00    +0.000 A 
ATOM      3  O   UNL     1       1.616  -1.794  -0.307  0.00  0.00    +0.000 OA
ATOM      4  C   UNL     1       2.304  -0.687  -0.115  0.00  0.00    +0.000 A 
ATOM      5  C   UNL     1       3.683  -0.701  -0.045  0.00  0.00    +0.000 A 
ATOM      6  C   UNL     1       4.306   0.512   0.159  0.00  0.00    +0.000 A 
ATOM      7  O   UNL     1       5.690   0.604   0.244  0.00  0.00    +0.000 OA
ATOM      8  C   UNL     1       3.592   1.693   0.288  0.00  0.00    +0.000 A 
ATOM      9  C   UNL     1       2.217   1.671   0.213  0.00  0.00    +0.000 A 
ATOM     10  C   UNL     1       1.578   0.475   0.011  0.00  0.00    +0.000 A 
ATOM     11  C   UNL     1       0.192   0.507  -0.057  0.00  0.00    +0.000 A 
ATOM     12  O   UNL     1      -0.734   1.414   0.023  0.00  0.00    +0.000 OA
ATOM     13  C   UNL     1      -1.936   0.910  -0.111  0.00  0.00    +0.000 A 
ATOM     14  C   UNL     1      -3.227   1.437  -0.104  0.00  0.00    +0.000 A 
ATOM     15  C   UNL     1      -4.338   0.636  -0.275  0.00  0.00    +0.000 A 
ATOM     16  O   UNL     1      -5.629   1.192  -0.264  0.00  0.00    +0.000 OA
ATOM     17  C   UNL     1      -4.186  -0.723  -0.459  0.00  0.00    +0.000 A 
ATOM     18  C   UNL     1      -2.915  -1.258  -0.468  0.00  0.00    +0.000 A 
ATOM     19  C   UNL     1      -1.802  -0.452  -0.296  0.00  0.00    +0.000 A 
ATOM     20  C   UNL     1      -0.442  -0.694  -0.260  0.00  0.00    +0.000 A 
ENDROOT
TORSDOF 0
