REMARK  Name = 
REMARK  2 active torsions:
REMARK  status: ('A' for Active; 'I' for Inactive)
REMARK    1  A    between atoms: C_2  and  N_3
REMARK    2  A    between atoms: C_4  and  C_5
REMARK                            x       y       z     vdW  Elec       q    Type
REMARK                         _______ _______ _______ _____ _____    ______ ____
ROOT
ATOM      1  N   UNL     1      -0.660  -0.246   0.680  0.00  0.00    +0.000 N 
ATOM      2  C   UNL     1       0.299   0.116  -0.189  0.00  0.00    +0.000 A 
ATOM      3  C   UNL     1      -0.342   0.700  -1.261  0.00  0.00    +0.000 A 
ATOM      4  C   UNL     1       0.294   1.266  -2.489  0.00  0.00    +0.000 C 
ATOM      5  C   UNL     1      -1.699   0.689  -1.032  0.00  0.00    +0.000 A 
ATOM      6  C   UNL     1      -2.807   1.123  -1.733  0.00  0.00    +0.000 A 
ATOM      7  C   UNL     1      -4.080   0.957  -1.206  0.00  0.00    +0.000 A 
ATOM      8  C   UNL     1      -4.248   0.350   0.033  0.00  0.00    +0.000 A 
ATOM      9  O   UNL     1      -5.556   0.220   0.491  0.00  0.00    +0.000 OA
ATOM     10  C   UNL     1      -3.149  -0.077   0.720  0.00  0.00    +0.000 A 
ATOM     11  C   UNL     1      -1.872   0.086   0.199  0.00  0.00    +0.000 A 
ENDROOT
BRANCH   2  12
ATOM     12  C   UNL     1       1.740  -0.059  -0.059  0.00  0.00    +0.000 A 
ATOM     13  C   UNL     1       2.590   0.374  -1.054  0.00  0.00    +0.000 A 
ATOM     14  C   UNL     1       3.965   0.213  -0.942  0.00  0.00    +0.000 A 
ATOM     15  C   UNL     1       4.532  -0.384   0.166  0.00  0.00    +0.000 A 
ATOM     16  O   UNL     1       5.907  -0.555   0.299  0.00  0.00    +0.000 OA
ATOM     17  C   UNL     1       3.681  -0.817   1.161  0.00  0.00    +0.000 A 
ATOM     18  C   UNL     1       2.315  -0.654   1.044  0.00  0.00    +0.000 A 
ENDBRANCH   2  12
BRANCH   1  20
ATOM     19  C   UNL     1      -0.462  -2.404   1.815  0.00  0.00    +0.000 C 
ATOM     20  C   UNL     1      -0.449  -0.898   1.951  0.00  0.00    +0.000 C 
ENDBRANCH   1  20
TORSDOF 2
