REMARK  Name = 
REMARK  1 active torsions:
REMARK  status: ('A' for Active; 'I' for Inactive)
REMARK    1  A    between atoms: C_2  and  C_3
REMARK                            x       y       z     vdW  Elec       q    Type
REMARK                         _______ _______ _______ _____ _____    ______ ____
ROOT
ATOM      1  C   UNL     1      -2.930   0.343  -0.719  0.00  0.00    +0.000 C 
ATOM      2  O   UNL     1      -2.688   1.681  -0.561  0.00  0.00    +0.000 OA
ATOM      3  C   UNL     1      -2.757  -0.088  -2.143  0.00  0.00    +0.000 C 
ATOM      4  C   UNL     1      -1.313  -0.113  -2.347  0.00  0.00    +0.000 C 
ATOM      5  C   UNL     1      -0.639  -0.471  -0.935  0.00  0.00    +0.000 C 
ATOM      6  C   UNL     1      -0.479   1.160  -0.485  0.00  0.00    +0.000 C 
ATOM      7  C   UNL     1       0.615   1.544  -1.613  0.00  0.00    +0.000 C 
ATOM      8  C   UNL     1       1.543   0.607  -1.980  0.00  0.00    +0.000 C 
ATOM      9  C   UNL     1       2.268   0.042  -0.828  0.00  0.00    +0.000 C 
ATOM     10  C   UNL     1       1.763   0.246   0.317  0.00  0.00    +0.000 C 
ATOM     11  C   UNL     1       2.474  -0.315   1.518  0.00  0.00    +0.000 C 
ATOM     12  C   UNL     1       3.929  -0.384   1.385  0.00  0.00    +0.000 C 
ATOM     13  C   UNL     1       4.459  -0.636   0.051  0.00  0.00    +0.000 C 
ATOM     14  O   UNL     1       5.663  -0.762  -0.058  0.00  0.00    +0.000 OA
ATOM     15  C   UNL     1       3.545  -0.728  -1.091  0.00  0.00    +0.000 C 
ATOM     16  C   UNL     1       0.543   0.971   0.819  0.00  0.00    +0.000 C 
ATOM     17  C   UNL     1      -0.209  -0.285   1.494  0.00  0.00    +0.000 C 
ATOM     18  C   UNL     1      -1.665  -0.162   1.305  0.00  0.00    +0.000 C 
ATOM     19  C   UNL     1      -1.997  -0.597  -0.087  0.00  0.00    +0.000 C 
ATOM     20  C   UNL     1      -2.498  -1.993  -0.198  0.00  0.00    +0.000 C 
ENDROOT
BRANCH   1  22
ATOM     21  C   UNL     1      -5.370  -0.142   0.244  0.00  0.00    +0.000 C 
ATOM     22  C   UNL     1      -4.259   0.081  -0.190  0.00  0.00    +0.000 C 
ENDBRANCH   1  22
TORSDOF 1
