REMARK  Name = 
REMARK  1 active torsions:
REMARK  status: ('A' for Active; 'I' for Inactive)
REMARK    1  A    between atoms: C_4  and  C_5
REMARK                            x       y       z     vdW  Elec       q    Type
REMARK                         _______ _______ _______ _____ _____    ______ ____
ROOT
ATOM      1  C   UNL     1      -2.417   0.858  -2.175  0.00  0.00    +0.000 C 
ATOM      2  C   UNL     1      -2.206   0.902  -0.681  0.00  0.00    +0.000 C 
ATOM      3  C   UNL     1      -1.448   1.940  -0.117  0.00  0.00    +0.000 C 
ATOM      4  C   UNL     1      -0.040   1.507  -0.795  0.00  0.00    +0.000 C 
ATOM      5  C   UNL     1       0.538   0.764   0.600  0.00  0.00    +0.000 C 
ATOM      6  C   UNL     1       1.508  -0.197  -0.025  0.00  0.00    +0.000 A 
ATOM      7  C   UNL     1       2.080  -0.007  -1.238  0.00  0.00    +0.000 A 
ATOM      8  C   UNL     1       3.008  -0.953  -1.747  0.00  0.00    +0.000 A 
ATOM      9  C   UNL     1       3.334  -2.066  -1.017  0.00  0.00    +0.000 A 
ATOM     10  O   UNL     1       4.259  -3.009  -1.522  0.00  0.00    +0.000 OA
ATOM     11  C   UNL     1       2.750  -2.255   0.214  0.00  0.00    +0.000 A 
ATOM     12  C   UNL     1       1.848  -1.308   0.676  0.00  0.00    +0.000 A 
ATOM     13  C   UNL     1       1.140  -1.435   1.997  0.00  0.00    +0.000 C 
ATOM     14  C   UNL     1      -0.280  -1.519   1.431  0.00  0.00    +0.000 C 
ATOM     15  C   UNL     1      -0.793  -0.063   1.090  0.00  0.00    +0.000 C 
ATOM     16  C   UNL     1      -1.463  -0.500  -0.396  0.00  0.00    +0.000 C 
ATOM     17  C   UNL     1      -2.713  -1.265   0.277  0.00  0.00    +0.000 C 
ATOM     18  C   UNL     1      -3.153  -0.219   1.231  0.00  0.00    +0.000 C 
ATOM     19  C   UNL     1      -3.700   0.667  -0.091  0.00  0.00    +0.000 C 
ATOM     20  O   UNL     1      -3.753   1.964   0.721  0.00  0.00    +0.000 OA
ENDROOT
BRANCH   4  21
ATOM     21  C   UNL     1       0.712   2.910  -0.542  0.00  0.00    +0.000 C 
ATOM     22 CL   UNL     1       0.788   3.284   1.146  0.00  0.00    +0.000 Cl
ENDBRANCH   4  21
TORSDOF 1
