REMARK  Name = 
REMARK  0 active torsions:
REMARK  status: ('A' for Active; 'I' for Inactive)
REMARK                            x       y       z     vdW  Elec       q    Type
REMARK                         _______ _______ _______ _____ _____    ______ ____
ROOT
ATOM      1  C   UNL     1      -1.008   3.129  -0.137  0.00  0.00    +0.000 C 
ATOM      2  C   UNL     1      -0.090   1.821  -0.512  0.00  0.00    +0.000 C 
ATOM      3  C   UNL     1       1.156   2.323   0.385  0.00  0.00    +0.000 C 
ATOM      4  C   UNL     1       1.965   1.073   0.115  0.00  0.00    +0.000 A 
ATOM      5  C   UNL     1       3.070   0.996  -0.690  0.00  0.00    +0.000 A 
ATOM      6  C   UNL     1       3.656  -0.254  -0.818  0.00  0.00    +0.000 A 
ATOM      7  O   UNL     1       4.785  -0.456  -1.609  0.00  0.00    +0.000 OA
ATOM      8  C   UNL     1       3.163  -1.374  -0.174  0.00  0.00    +0.000 A 
ATOM      9  C   UNL     1       2.021  -1.205   0.636  0.00  0.00    +0.000 A 
ATOM     10  C   UNL     1       1.436   0.005   0.773  0.00  0.00    +0.000 A 
ATOM     11  C   UNL     1       0.221   0.358   1.617  0.00  0.00    +0.000 C 
ATOM     12  C   UNL     1      -0.315  -1.147   1.880  0.00  0.00    +0.000 C 
ATOM     13  C   UNL     1      -1.756  -1.241   1.627  0.00  0.00    +0.000 C 
ATOM     14  C   UNL     1      -2.080  -1.205   0.204  0.00  0.00    +0.000 C 
ATOM     15  C   UNL     1      -2.489  -2.373  -0.517  0.00  0.00    +0.000 C 
ATOM     16  C   UNL     1      -0.807  -0.504  -0.496  0.00  0.00    +0.000 C 
ATOM     17  C   UNL     1      -1.571   0.203  -1.721  0.00  0.00    +0.000 C 
ATOM     18  C   UNL     1      -2.963  -0.139  -1.636  0.00  0.00    +0.000 C 
ATOM     19  C   UNL     1      -3.134   0.024  -0.013  0.00  0.00    +0.000 C 
ATOM     20  O   UNL     1      -4.361  -0.862   0.033  0.00  0.00    +0.000 OA
ATOM     21  C   UNL     1      -0.899   0.827   0.507  0.00  0.00    +0.000 C 
ENDROOT
TORSDOF 0
