REMARK  Name = 
REMARK  0 active torsions:
REMARK  status: ('A' for Active; 'I' for Inactive)
REMARK                            x       y       z     vdW  Elec       q    Type
REMARK                         _______ _______ _______ _____ _____    ______ ____
ROOT
ATOM      1  C   UNL     1       2.275   2.230  -0.552  0.00  0.00    +0.000 C 
ATOM      2  C   UNL     1       2.158   0.934   0.263  0.00  0.00    +0.000 C 
ATOM      3  C   UNL     1       1.508   1.265   1.548  0.00  0.00    +0.000 C 
ATOM      4  C   UNL     1       0.054   0.982   1.523  0.00  0.00    +0.000 C 
ATOM      5  C   UNL     1      -0.394   0.954  -0.020  0.00  0.00    +0.000 C 
ATOM      6  C   UNL     1      -1.858   0.495   0.250  0.00  0.00    +0.000 A 
ATOM      7  C   UNL     1      -2.528   0.920   1.369  0.00  0.00    +0.000 A 
ATOM      8  C   UNL     1      -3.850   0.518   1.608  0.00  0.00    +0.000 A 
ATOM      9  C   UNL     1      -4.460  -0.313   0.692  0.00  0.00    +0.000 A 
ATOM     10  O   UNL     1      -5.769  -0.697   0.952  0.00  0.00    +0.000 OA
ATOM     11  C   UNL     1      -3.757  -0.721  -0.421  0.00  0.00    +0.000 A 
ATOM     12  C   UNL     1      -2.436  -0.317  -0.656  0.00  0.00    +0.000 A 
ATOM     13  C   UNL     1      -1.722  -0.769  -1.862  0.00  0.00    +0.000 C 
ATOM     14  C   UNL     1      -0.271  -0.712  -1.781  0.00  0.00    +0.000 C 
ATOM     15  C   UNL     1       0.216  -0.601  -0.254  0.00  0.00    +0.000 C 
ATOM     16  C   UNL     1       1.695  -0.132  -0.549  0.00  0.00    +0.000 C 
ATOM     17  C   UNL     1       2.061   0.055  -1.956  0.00  0.00    +0.000 C 
ATOM     18  C   UNL     1       3.507   0.335  -1.765  0.00  0.00    +0.000 C 
ATOM     19  C   UNL     1       3.949  -0.575  -0.522  0.00  0.00    +0.000 C 
ATOM     20  C   UNL     1       2.547  -1.310  -0.239  0.00  0.00    +0.000 C 
ATOM     21  C   UNL     1       3.696   0.633   0.643  0.00  0.00    +0.000 C 
ATOM     22  O   UNL     1       3.382  -0.357   1.729  0.00  0.00    +0.000 OA
ENDROOT
TORSDOF 0
