REMARK  Name = 
REMARK  0 active torsions:
REMARK  status: ('A' for Active; 'I' for Inactive)
REMARK                            x       y       z     vdW  Elec       q    Type
REMARK                         _______ _______ _______ _____ _____    ______ ____
ROOT
ATOM      1  C   UNL     1       4.519   2.014   0.180  0.00  0.00    +0.000 C 
ATOM      2  C   UNL     1       3.469   0.960   0.004  0.00  0.00    +0.000 A 
ATOM      3  C   UNL     1       2.197   1.358  -0.241  0.00  0.00    +0.000 A 
ATOM      4  C   UNL     1       1.199   0.361  -0.409  0.00  0.00    +0.000 A 
ATOM      5  C   UNL     1       1.463  -0.904  -0.338  0.00  0.00    +0.000 A 
ATOM      6  C   UNL     1       2.742  -1.314  -0.092  0.00  0.00    +0.000 A 
ATOM      7  C   UNL     1       3.785  -0.384   0.086  0.00  0.00    +0.000 A 
ATOM      8  O   UNL     1       5.083  -0.741   0.335  0.00  0.00    +0.000 OA
ATOM      9  C   UNL     1       0.436  -1.912  -0.522  0.00  0.00    +0.000 C 
ATOM     10  C   UNL     1      -0.384  -1.279  -1.621  0.00  0.00    +0.000 C 
ATOM     11  C   UNL     1      -1.244  -0.089  -1.050  0.00  0.00    +0.000 C 
ATOM     12  C   UNL     1      -1.517  -0.752   0.484  0.00  0.00    +0.000 C 
ATOM     13  C   UNL     1      -2.597  -1.860   0.074  0.00  0.00    +0.000 C 
ATOM     14  C   UNL     1      -3.361  -1.126  -0.849  0.00  0.00    +0.000 C 
ATOM     15  C   UNL     1      -3.969   0.107   0.138  0.00  0.00    +0.000 C 
ATOM     16  O   UNL     1      -3.683   1.189  -0.930  0.00  0.00    +0.000 OA
ATOM     17  C   UNL     1      -2.591   0.317   0.991  0.00  0.00    +0.000 C 
ATOM     18  C   UNL     1      -2.896  -0.042   2.402  0.00  0.00    +0.000 C 
ATOM     19  C   UNL     1      -1.988   1.607   0.731  0.00  0.00    +0.000 C 
ATOM     20  C   UNL     1      -0.496   1.377   0.922  0.00  0.00    +0.000 C 
ATOM     21  C   UNL     1      -0.166   1.113  -0.666  0.00  0.00    +0.000 C 
ENDROOT
TORSDOF 0
