REMARK  Name = 
REMARK  0 active torsions:
REMARK  status: ('A' for Active; 'I' for Inactive)
REMARK                            x       y       z     vdW  Elec       q    Type
REMARK                         _______ _______ _______ _____ _____    ______ ____
ROOT
ATOM      1  C   UNL     1      -3.218  -1.939   0.000  0.00  0.00    +0.000 C 
ATOM      2  C   UNL     1      -2.424  -0.666   0.000  0.00  0.00    +0.000 C 
ATOM      3  C   UNL     1      -1.585  -1.909   0.000  0.00  0.00    +0.000 C 
ATOM      4  C   UNL     1      -0.088  -1.804   0.000  0.00  0.00    +0.000 C 
ATOM      5  C   UNL     1       0.568  -0.455   0.000  0.00  0.00    +0.000 C 
ATOM      6  C   UNL     1       2.065  -0.349   0.000  0.00  0.00    +0.000 A 
ATOM      7  C   UNL     1       2.904  -1.592   0.000  0.00  0.00    +0.000 A 
ATOM      8  C   UNL     1       4.401  -1.487   0.000  0.00  0.00    +0.000 A 
ATOM      9  C   UNL     1       5.057  -0.138   0.000  0.00  0.00    +0.000 A 
ATOM     10  O   UNL     1       6.553  -0.032   0.000  0.00  0.00    +0.000 OA
ATOM     11  C   UNL     1       4.217   1.105   0.000  0.00  0.00    +0.000 A 
ATOM     12  C   UNL     1       2.721   0.999   0.000  0.00  0.00    +0.000 A 
ATOM     13  C   UNL     1       1.881   2.242   0.000  0.00  0.00    +0.000 C 
ATOM     14  C   UNL     1       0.385   2.137   0.000  0.00  0.00    +0.000 C 
ATOM     15  C   UNL     1      -0.271   0.788   0.000  0.00  0.00    +0.000 C 
ATOM     16  C   UNL     1      -1.768   0.682   0.000  0.00  0.00    +0.000 C 
ATOM     17  C   UNL     1      -2.847   1.723   0.000  0.00  0.00    +0.000 C 
ATOM     18  C   UNL     1      -4.171   1.018   0.000  0.00  0.00    +0.000 C 
ATOM     19  O   UNL     1      -5.520   1.675   0.000  0.00  0.00    +0.000 OA
ATOM     20  C   UNL     1      -3.910  -0.459   0.000  0.00  0.00    +0.000 C 
ATOM     21  O   UNL     1      -4.951  -1.539   0.000  0.00  0.00    +0.000 OA
ENDROOT
TORSDOF 0
