REMARK  Name = 
REMARK  1 active torsions:
REMARK  status: ('A' for Active; 'I' for Inactive)
REMARK    1  A    between atoms: C_5  and  C_6
REMARK                            x       y       z     vdW  Elec       q    Type
REMARK                         _______ _______ _______ _____ _____    ______ ____
ROOT
ATOM      1  C   UNL     1       0.353  -1.105   0.147  0.00  0.00    +0.000 C 
ATOM      2  C   UNL     1       0.115  -0.517  -1.361  0.00  0.00    +0.000 C 
ATOM      3  O   UNL     1      -0.732   0.569  -1.349  0.00  0.00    +0.000 OA
ATOM      4  C   UNL     1      -1.963   0.408  -0.746  0.00  0.00    +0.000 A 
ATOM      5  C   UNL     1      -3.204   0.510  -1.331  0.00  0.00    +0.000 A 
ATOM      6  C   UNL     1      -4.331   0.316  -0.555  0.00  0.00    +0.000 A 
ATOM      7  O   UNL     1      -5.616   0.403  -1.074  0.00  0.00    +0.000 OA
ATOM      8  C   UNL     1      -4.178   0.025   0.784  0.00  0.00    +0.000 A 
ATOM      9  C   UNL     1      -2.909  -0.076   1.371  0.00  0.00    +0.000 A 
ATOM     10  C   UNL     1      -1.793   0.117   0.595  0.00  0.00    +0.000 A 
ATOM     11  C   UNL     1      -0.405   0.061   1.028  0.00  0.00    +0.000 C 
ENDROOT
BRANCH   1  16
ATOM     12  O   UNL     1       5.811   0.518   0.591  0.00  0.00    +0.000 OA
ATOM     13  C   UNL     1       4.464   0.156   0.482  0.00  0.00    +0.000 A 
ATOM     14  C   UNL     1       3.488   1.104   0.405  0.00  0.00    +0.000 A 
ATOM     15  C   UNL     1       2.170   0.736   0.298  0.00  0.00    +0.000 A 
ATOM     16  C   UNL     1       1.832  -0.527   0.268  0.00  0.00    +0.000 A 
ATOM     17  C   UNL     1       2.771  -1.524   0.341  0.00  0.00    +0.000 A 
ATOM     18  C   UNL     1       4.129  -1.176   0.452  0.00  0.00    +0.000 A 
ENDBRANCH   1  16
TORSDOF 1
