REMARK  Name = 
REMARK  5 active torsions:
REMARK  status: ('A' for Active; 'I' for Inactive)
REMARK    1  A    between atoms: C_2  and  C_3
REMARK    2  A    between atoms: C_3  and  C_4
REMARK    3  A    between atoms: C_3  and  C_11
REMARK    4  A    between atoms: C_11  and  C_12
REMARK    5  A    between atoms: C_11  and  C_14
REMARK                            x       y       z     vdW  Elec       q    Type
REMARK                         _______ _______ _______ _____ _____    ______ ____
ROOT
ATOM      1  C   UNL     1      -0.344   0.429   1.299  0.00  0.00    +0.000 C 
ENDROOT
BRANCH   1   2
ATOM      2  C   UNL     1      -1.762   0.059   0.731  0.00  0.00    +0.000 A 
ATOM      3  C   UNL     1      -2.721  -0.296   1.670  0.00  0.00    +0.000 A 
ATOM      4  C   UNL     1      -3.984  -0.632   1.235  0.00  0.00    +0.000 A 
ATOM      5  C   UNL     1      -4.278  -0.612  -0.107  0.00  0.00    +0.000 A 
ATOM      6  O   UNL     1      -5.544  -0.944  -0.600  0.00  0.00    +0.000 OA
ATOM      7  C   UNL     1      -3.324  -0.259  -1.028  0.00  0.00    +0.000 A 
ATOM      8  C   UNL     1      -2.079   0.068  -0.556  0.00  0.00    +0.000 A 
ENDBRANCH   1   2
BRANCH   1  10
ATOM      9  C   UNL     1      -1.053   2.500   0.312  0.00  0.00    +0.000 C 
ATOM     10  C   UNL     1       0.062   1.484   0.150  0.00  0.00    +0.000 C 
ENDBRANCH   1  10
BRANCH   1  11
ATOM     11  C   UNL     1       0.561  -0.919   0.819  0.00  0.00    +0.000 C 
BRANCH  11  12
ATOM     12  C   UNL     1       1.872  -0.262   0.329  0.00  0.00    +0.000 A 
ATOM     13  C   UNL     1       2.302   0.957   0.696  0.00  0.00    +0.000 A 
ATOM     14  C   UNL     1       3.479   1.468   0.222  0.00  0.00    +0.000 A 
ATOM     15  C   UNL     1       4.250   0.742  -0.642  0.00  0.00    +0.000 A 
ATOM     16  O   UNL     1       5.476   1.257  -1.143  0.00  0.00    +0.000 OA
ATOM     17  C   UNL     1       3.837  -0.512  -1.036  0.00  0.00    +0.000 A 
ATOM     18  C   UNL     1       2.617  -1.019  -0.534  0.00  0.00    +0.000 A 
ENDBRANCH  11  12
BRANCH  11  19
ATOM     19  C   UNL     1      -0.057  -1.161  -0.652  0.00  0.00    +0.000 C 
ATOM     20  C   UNL     1       0.690  -2.348  -1.164  0.00  0.00    +0.000 C 
ENDBRANCH  11  19
ENDBRANCH   1  11
TORSDOF 5
