REMARK  Name = 
REMARK  2 active torsions:
REMARK  status: ('A' for Active; 'I' for Inactive)
REMARK    1  A    between atoms: C_5  and  C_6
REMARK    2  A    between atoms: C_6  and  C_10
REMARK                            x       y       z     vdW  Elec       q    Type
REMARK                         _______ _______ _______ _____ _____    ______ ____
ROOT
ATOM      1  C   UNL     1      -0.115   1.036   0.146  0.00  0.00    +0.000 C 
ATOM      2  C   UNL     1      -0.343   2.310   0.312  0.00  0.00    +0.000 C 
ATOM      3 CL   UNL     1      -1.967   2.898   0.467  0.00  0.00    +0.000 Cl
ATOM      4 CL   UNL     1       0.987   3.421   0.382  0.00  0.00    +0.000 Cl
ENDROOT
BRANCH   1   9
ATOM      5  O   UNL     1       4.904  -1.365  -0.501  0.00  0.00    +0.000 OA
ATOM      6  C   UNL     1       3.665  -0.793  -0.322  0.00  0.00    +0.000 A 
ATOM      7  C   UNL     1       3.541   0.572  -0.483  0.00  0.00    +0.000 A 
ATOM      8  C   UNL     1       2.321   1.195  -0.321  0.00  0.00    +0.000 A 
ATOM      9  C   UNL     1       1.219   0.448   0.002  0.00  0.00    +0.000 A 
ATOM     10  C   UNL     1       1.373  -0.920   0.159  0.00  0.00    +0.000 A 
ATOM     11  C   UNL     1       2.575  -1.572   0.005  0.00  0.00    +0.000 A 
ENDBRANCH   1   9
BRANCH   1  12
ATOM     12  C   UNL     1      -1.253   0.124   0.081  0.00  0.00    +0.000 A 
ATOM     13  C   UNL     1      -1.227  -1.025   0.839  0.00  0.00    +0.000 A 
ATOM     14  C   UNL     1      -2.251  -1.941   0.818  0.00  0.00    +0.000 A 
ATOM     15  C   UNL     1      -3.347  -1.687  -0.008  0.00  0.00    +0.000 A 
ATOM     16  O   UNL     1      -4.393  -2.558  -0.070  0.00  0.00    +0.000 OA
ATOM     17  C   UNL     1      -3.363  -0.538  -0.762  0.00  0.00    +0.000 A 
ATOM     18  C   UNL     1      -2.325   0.395  -0.743  0.00  0.00    +0.000 A 
ENDBRANCH   1  12
TORSDOF 2
