REMARK  Name = 
REMARK  0 active torsions:
REMARK  status: ('A' for Active; 'I' for Inactive)
REMARK                            x       y       z     vdW  Elec       q    Type
REMARK                         _______ _______ _______ _____ _____    ______ ____
ROOT
ATOM      1  C   UNL     1       2.315   0.568  -1.607  0.00  0.00    +0.000 C 
ATOM      2  C   UNL     1       2.266  -0.438  -0.588  0.00  0.00    +0.000 C 
ATOM      3  C   UNL     1       1.393  -1.544  -0.588  0.00  0.00    +0.000 C 
ATOM      4  C   UNL     1       0.366  -1.813   0.348  0.00  0.00    +0.000 C 
ATOM      5  C   UNL     1      -0.338  -0.578   1.052  0.00  0.00    +0.000 C 
ATOM      6  C   UNL     1      -1.586  -0.466  -0.095  0.00  0.00    +0.000 C 
ATOM      7  C   UNL     1      -2.607  -1.434   0.700  0.00  0.00    +0.000 C 
ATOM      8  C   UNL     1      -3.767  -1.429  -0.337  0.00  0.00    +0.000 C 
ATOM      9  C   UNL     1      -3.951  -0.001  -0.803  0.00  0.00    +0.000 C 
ATOM     10  O   UNL     1      -4.562   0.181  -1.866  0.00  0.00    +0.000 OA
ATOM     11  C   UNL     1      -3.374   1.002   0.080  0.00  0.00    +0.000 C 
ATOM     12  C   UNL     1      -2.138   0.871   0.523  0.00  0.00    +0.000 C 
ATOM     13  C   UNL     1      -1.431   1.732   1.374  0.00  0.00    +0.000 C 
ATOM     14  C   UNL     1       0.046   1.700   1.462  0.00  0.00    +0.000 C 
ATOM     15  C   UNL     1       0.433   0.693   0.287  0.00  0.00    +0.000 C 
ATOM     16  C   UNL     1       1.923   0.212   0.874  0.00  0.00    +0.000 C 
ATOM     17  C   UNL     1       2.802   1.506   0.510  0.00  0.00    +0.000 C 
ATOM     18  C   UNL     1       4.094   0.890   0.013  0.00  0.00    +0.000 C 
ATOM     19  C   UNL     1       3.745  -0.715   0.020  0.00  0.00    +0.000 C 
ATOM     20  O   UNL     1       4.370  -0.938  -1.361  0.00  0.00    +0.000 OA
ENDROOT
TORSDOF 0
