REMARK  Name = 
REMARK  1 active torsions:
REMARK  status: ('A' for Active; 'I' for Inactive)
REMARK    1  A    between atoms: C_4  and  C_5
REMARK                            x       y       z     vdW  Elec       q    Type
REMARK                         _______ _______ _______ _____ _____    ______ ____
ROOT
ATOM      1  O   UNL     1       1.503   1.813  -2.246  0.00  0.00    +0.000 OA
ATOM      2  C   UNL     1       1.166   1.046  -1.311  0.00  0.00    +0.000 A 
ATOM      3  C   UNL     1      -0.162   0.944  -0.962  0.00  0.00    +0.000 A 
ATOM      4  C   UNL     1      -0.553   0.110   0.059  0.00  0.00    +0.000 A 
ATOM      5  O   UNL     1       0.361  -0.577   0.685  0.00  0.00    +0.000 OA
ATOM      6  C   UNL     1       1.641  -0.515   0.390  0.00  0.00    +0.000 A 
ATOM      7  C   UNL     1       2.577  -1.259   1.078  0.00  0.00    +0.000 A 
ATOM      8  C   UNL     1       3.928  -1.201   0.775  0.00  0.00    +0.000 A 
ATOM      9  C   UNL     1       4.375  -0.381  -0.240  0.00  0.00    +0.000 A 
ATOM     10  O   UNL     1       5.714  -0.282  -0.587  0.00  0.00    +0.000 OA
ATOM     11  C   UNL     1       3.449   0.371  -0.938  0.00  0.00    +0.000 A 
ATOM     12  C   UNL     1       2.111   0.301  -0.625  0.00  0.00    +0.000 A 
ENDROOT
BRANCH   4  13
ATOM     13  C   UNL     1      -1.968   0.042   0.384  0.00  0.00    +0.000 A 
ATOM     14  C   UNL     1      -2.438  -0.772   1.396  0.00  0.00    +0.000 A 
ATOM     15  C   UNL     1      -3.774  -0.850   1.718  0.00  0.00    +0.000 A 
ATOM     16  C   UNL     1      -4.709  -0.105   1.030  0.00  0.00    +0.000 A 
ATOM     17  O   UNL     1      -6.072  -0.177   1.350  0.00  0.00    +0.000 OA
ATOM     18  C   UNL     1      -4.245   0.709   0.019  0.00  0.00    +0.000 A 
ATOM     19  C   UNL     1      -2.903   0.784  -0.301  0.00  0.00    +0.000 A 
ENDBRANCH   4  13
TORSDOF 1
