REMARK  Name = 
REMARK  1 active torsions:
REMARK  status: ('A' for Active; 'I' for Inactive)
REMARK    1  A    between atoms: C_2  and  C_3
REMARK                            x       y       z     vdW  Elec       q    Type
REMARK                         _______ _______ _______ _____ _____    ______ ____
ROOT
ATOM      1  C   UNL     1       2.801  -0.018   0.056  0.00  0.00    +0.000 C 
ATOM      2  O   UNL     1       3.480  -0.876   0.940  0.00  0.00    +0.000 OA
ATOM      3  C   UNL     1       2.400   1.188   0.853  0.00  0.00    +0.000 C 
ATOM      4  C   UNL     1       1.260   1.686   0.073  0.00  0.00    +0.000 C 
ATOM      5  C   UNL     1       0.379   0.356  -0.200  0.00  0.00    +0.000 C 
ATOM      6  C   UNL     1       0.294  -0.117   1.407  0.00  0.00    +0.000 C 
ATOM      7  C   UNL     1      -0.434   1.174   1.932  0.00  0.00    +0.000 C 
ATOM      8  C   UNL     1      -1.871   0.863   2.294  0.00  0.00    +0.000 C 
ATOM      9  C   UNL     1      -2.433   0.664   0.906  0.00  0.00    +0.000 A 
ATOM     10  C   UNL     1      -3.344   1.533   0.339  0.00  0.00    +0.000 A 
ATOM     11  C   UNL     1      -3.734   1.207  -0.959  0.00  0.00    +0.000 A 
ATOM     12  O   UNL     1      -4.652   2.074  -1.545  0.00  0.00    +0.000 OA
ATOM     13  C   UNL     1      -3.234   0.104  -1.592  0.00  0.00    +0.000 A 
ATOM     14  C   UNL     1      -2.309  -0.744  -0.962  0.00  0.00    +0.000 A 
ATOM     15  C   UNL     1      -1.935  -0.428   0.287  0.00  0.00    +0.000 A 
ATOM     16  C   UNL     1      -0.965  -1.207   1.194  0.00  0.00    +0.000 C 
ATOM     17  C   UNL     1      -0.269  -2.091  -0.003  0.00  0.00    +0.000 C 
ATOM     18  C   UNL     1       1.312  -1.960   0.376  0.00  0.00    +0.000 C 
ATOM     19  C   UNL     1       1.787  -3.092  -0.708  0.00  0.00    +0.000 C 
ATOM     20  C   UNL     1       1.607  -0.638  -0.539  0.00  0.00    +0.000 C 
ATOM     21  C   UNL     1       1.609  -0.950  -1.952  0.00  0.00    +0.000 C 
ENDROOT
BRANCH   1  23
ATOM     22  C   UNL     1       4.508   0.826  -1.839  0.00  0.00    +0.000 C 
ATOM     23  C   UNL     1       3.744   0.446  -0.976  0.00  0.00    +0.000 C 
ENDBRANCH   1  23
TORSDOF 1
