REMARK  Name = 
REMARK  0 active torsions:
REMARK  status: ('A' for Active; 'I' for Inactive)
REMARK                            x       y       z     vdW  Elec       q    Type
REMARK                         _______ _______ _______ _____ _____    ______ ____
ROOT
ATOM      1  C   UNL     1      -2.521   1.740   0.399  0.00  0.00    +0.000 C 
ATOM      2  C   UNL     1      -2.566   0.380   0.988  0.00  0.00    +0.000 C 
ATOM      3  C   UNL     1      -1.753   0.127   2.168  0.00  0.00    +0.000 C 
ATOM      4  C   UNL     1      -0.328   0.532   1.861  0.00  0.00    +0.000 C 
ATOM      5  C   UNL     1       0.213  -0.463   0.717  0.00  0.00    +0.000 C 
ATOM      6  C   UNL     1      -0.688   0.265  -0.502  0.00  0.00    +0.000 C 
ATOM      7  C   UNL     1      -0.202  -0.740  -1.639  0.00  0.00    +0.000 C 
ATOM      8  C   UNL     1       1.220  -0.518  -1.914  0.00  0.00    +0.000 C 
ATOM      9  C   UNL     1       1.995  -0.034  -0.974  0.00  0.00    +0.000 C 
ATOM     10  C   UNL     1       3.433   0.174  -1.301  0.00  0.00    +0.000 C 
ATOM     11  C   UNL     1       4.107  -1.043  -0.409  0.00  0.00    +0.000 C 
ATOM     12  O   UNL     1       5.516  -0.507  -0.650  0.00  0.00    +0.000 OA
ATOM     13  C   UNL     1       3.950  -0.207   0.992  0.00  0.00    +0.000 C 
ATOM     14  C   UNL     1       2.520  -0.325   1.400  0.00  0.00    +0.000 C 
ATOM     15  C   UNL     1       1.570   0.325   0.384  0.00  0.00    +0.000 C 
ATOM     16  C   UNL     1       1.493   1.747   0.646  0.00  0.00    +0.000 C 
ATOM     17  C   UNL     1      -2.021  -0.673  -0.127  0.00  0.00    +0.000 C 
ATOM     18  C   UNL     1      -2.989  -0.018  -1.232  0.00  0.00    +0.000 C 
ATOM     19  C   UNL     1      -4.292  -0.284  -0.478  0.00  0.00    +0.000 C 
ATOM     20  C   UNL     1      -3.943  -0.113   0.984  0.00  0.00    +0.000 C 
ATOM     21  O   UNL     1      -4.719  -0.364   1.858  0.00  0.00    +0.000 OA
ENDROOT
TORSDOF 0
