REMARK  Name = 
REMARK  0 active torsions:
REMARK  status: ('A' for Active; 'I' for Inactive)
REMARK                            x       y       z     vdW  Elec       q    Type
REMARK                         _______ _______ _______ _____ _____    ______ ____
ROOT
ATOM      1  C   UNL     1       1.941   1.910  -0.002  0.00  0.00    +0.000 C 
ATOM      2  C   UNL     1       2.368   0.564  -0.341  0.00  0.00    +0.000 C 
ATOM      3  C   UNL     1       1.929  -0.129  -1.498  0.00  0.00    +0.000 C 
ATOM      4  C   UNL     1       0.408  -0.028  -1.428  0.00  0.00    +0.000 C 
ATOM      5  C   UNL     1      -0.049  -1.004  -0.208  0.00  0.00    +0.000 C 
ATOM      6  C   UNL     1      -1.548  -0.534  -0.157  0.00  0.00    +0.000 A 
ATOM      7  C   UNL     1      -2.183  -0.503  -1.369  0.00  0.00    +0.000 A 
ATOM      8  C   UNL     1      -3.520  -0.109  -1.412  0.00  0.00    +0.000 A 
ATOM      9  C   UNL     1      -4.144   0.233  -0.225  0.00  0.00    +0.000 A 
ATOM     10  O   UNL     1      -5.487   0.636  -0.218  0.00  0.00    +0.000 OA
ATOM     11  C   UNL     1      -3.440   0.182   0.983  0.00  0.00    +0.000 A 
ATOM     12  C   UNL     1      -2.114  -0.209   1.025  0.00  0.00    +0.000 A 
ATOM     13  C   UNL     1      -1.442  -0.244   2.354  0.00  0.00    +0.000 C 
ATOM     14  C   UNL     1      -0.007  -0.782   2.190  0.00  0.00    +0.000 C 
ATOM     15  C   UNL     1       0.435   0.149   0.968  0.00  0.00    +0.000 C 
ATOM     16  C   UNL     1       2.003  -0.459   0.875  0.00  0.00    +0.000 C 
ATOM     17  C   UNL     1       2.685   0.587   1.928  0.00  0.00    +0.000 C 
ATOM     18  C   UNL     1       3.979  -0.026   1.413  0.00  0.00    +0.000 C 
ATOM     19  C   UNL     1       3.994   0.576  -0.142  0.00  0.00    +0.000 C 
ATOM     20  O   UNL     1       4.194  -0.809  -0.771  0.00  0.00    +0.000 OA
ENDROOT
TORSDOF 0
