MODEL 1
REMARK VINA RESULT:      -6.8      0.000      0.000
REMARK  Name = 
REMARK  2 active torsions:
REMARK  status: ('A' for Active; 'I' for Inactive)
REMARK    1  A    between atoms: C_2  and  C_4
REMARK    2  A    between atoms: C_10  and  C_12
REMARK                            x       y       z     vdW  Elec       q    Type
REMARK                         _______ _______ _______ _____ _____    ______ ____
ROOT
ATOM      1  C   UNL     1      26.899  22.892  28.438  0.00  0.00    +0.000 A 
ATOM      2  C   UNL     1      28.141  22.300  28.360  0.00  0.00    +0.000 A 
ATOM      3  C   UNL     1      28.913  22.359  27.231  0.00  0.00    +0.000 A 
ATOM      4  C   UNL     1      28.439  23.044  26.094  0.00  0.00    +0.000 A 
ATOM      5  C   UNL     1      27.210  23.641  26.144  0.00  0.00    +0.000 A 
ATOM      6  C   UNL     1      26.451  23.553  27.330  0.00  0.00    +0.000 A 
ATOM      7  C   UNL     1      26.666  24.367  24.992  0.00  0.00    +0.000 C 
ATOM      8  O   UNL     1      25.471  23.716  24.586  0.00  0.00    +0.000 OA
ATOM      9  C   UNL     1      27.549  24.386  23.824  0.00  0.00    +0.000 A 
ATOM     10  C   UNL     1      27.067  25.070  22.700  0.00  0.00    +0.000 A 
ATOM     11  C   UNL     1      27.794  25.165  21.534  0.00  0.00    +0.000 A 
ATOM     12  C   UNL     1      29.040  24.560  21.485  0.00  0.00    +0.000 A 
ATOM     13  C   UNL     1      29.521  23.889  22.577  0.00  0.00    +0.000 A 
ATOM     14  C   UNL     1      28.790  23.798  23.735  0.00  0.00    +0.000 A 
ATOM     15  C   UNL     1      29.300  23.081  24.907  0.00  0.00    +0.000 C 
ATOM     16  O   UNL     1      30.421  22.523  24.897  0.00  0.00    +0.000 OA
ENDROOT
BRANCH   1  18
ATOM     17  C   UNL     1      26.431  24.001  30.582  0.00  0.00    +0.000 C 
ATOM     18  C   UNL     1      26.076  22.808  29.695  0.00  0.00    +0.000 C 
ATOM     19  C   UNL     1      26.430  21.567  30.485  0.00  0.00    +0.000 C 
ENDBRANCH   1  18
BRANCH   7  20
ATOM     20  C   UNL     1      26.262  25.785  25.343  0.00  0.00    +0.000 C 
ATOM     21  C   UNL     1      27.200  26.395  26.362  0.00  0.00    +0.000 C 
ATOM     22  C   UNL     1      24.852  25.772  25.886  0.00  0.00    +0.000 C 
ENDBRANCH   7  20
TORSDOF 2
ENDMDL
MODEL 2
REMARK VINA RESULT:      -6.7     30.977     32.887
REMARK  Name = 
REMARK  2 active torsions:
REMARK  status: ('A' for Active; 'I' for Inactive)
REMARK    1  A    between atoms: C_2  and  C_4
REMARK    2  A    between atoms: C_10  and  C_12
REMARK                            x       y       z     vdW  Elec       q    Type
REMARK                         _______ _______ _______ _____ _____    ______ ____
ROOT
ATOM      1  C   UNL     1      19.383  -7.894  26.409  0.00  0.00    +0.000 A 
ATOM      2  C   UNL     1      19.553  -6.593  25.987  0.00  0.00    +0.000 A 
ATOM      3  C   UNL     1      20.681  -6.174  25.334  0.00  0.00    +0.000 A 
ATOM      4  C   UNL     1      21.720  -7.092  25.074  0.00  0.00    +0.000 A 
ATOM      5  C   UNL     1      21.577  -8.388  25.482  0.00  0.00    +0.000 A 
ATOM      6  C   UNL     1      20.397  -8.772  26.151  0.00  0.00    +0.000 A 
ATOM      7  C   UNL     1      22.625  -9.385  25.239  0.00  0.00    +0.000 C 
ATOM      8  O   UNL     1      23.083  -9.857  26.497  0.00  0.00    +0.000 OA
ATOM      9  C   UNL     1      23.798  -8.862  24.536  0.00  0.00    +0.000 A 
ATOM     10  C   UNL     1      24.824  -9.782  24.283  0.00  0.00    +0.000 A 
ATOM     11  C   UNL     1      25.984  -9.424  23.631  0.00  0.00    +0.000 A 
ATOM     12  C   UNL     1      26.127  -8.110  23.218  0.00  0.00    +0.000 A 
ATOM     13  C   UNL     1      25.131  -7.202  23.460  0.00  0.00    +0.000 A 
ATOM     14  C   UNL     1      23.979  -7.565  24.110  0.00  0.00    +0.000 A 
ATOM     15  C   UNL     1      22.910  -6.598  24.372  0.00  0.00    +0.000 C 
ATOM     16  O   UNL     1      23.006  -5.402  24.012  0.00  0.00    +0.000 OA
ENDROOT
BRANCH   1  18
ATOM     17  C   UNL     1      17.216  -7.104  27.260  0.00  0.00    +0.000 C 
ATOM     18  C   UNL     1      18.130  -8.321  27.125  0.00  0.00    +0.000 C 
ATOM     19  C   UNL     1      18.447  -8.777  28.533  0.00  0.00    +0.000 C 
ENDBRANCH   1  18
BRANCH   7  20
ATOM     20  C   UNL     1      22.101 -10.606  24.509  0.00  0.00    +0.000 C 
ATOM     21  C   UNL     1      21.122 -10.225  23.419  0.00  0.00    +0.000 C 
ATOM     22  C   UNL     1      21.430 -11.522  25.506  0.00  0.00    +0.000 C 
ENDBRANCH   7  20
TORSDOF 2
ENDMDL
MODEL 3
REMARK VINA RESULT:      -6.7      1.364      5.540
REMARK  Name = 
REMARK  2 active torsions:
REMARK  status: ('A' for Active; 'I' for Inactive)
REMARK    1  A    between atoms: C_2  and  C_4
REMARK    2  A    between atoms: C_10  and  C_12
REMARK                            x       y       z     vdW  Elec       q    Type
REMARK                         _______ _______ _______ _____ _____    ______ ____
ROOT
ATOM      1  C   UNL     1      29.030  24.403  23.334  0.00  0.00    +0.000 A 
ATOM      2  C   UNL     1      30.063  23.569  23.702  0.00  0.00    +0.000 A 
ATOM      3  C   UNL     1      30.132  22.987  24.939  0.00  0.00    +0.000 A 
ATOM      4  C   UNL     1      29.119  23.237  25.887  0.00  0.00    +0.000 A 
ATOM      5  C   UNL     1      28.082  24.060  25.548  0.00  0.00    +0.000 A 
ATOM      6  C   UNL     1      28.054  24.637  24.261  0.00  0.00    +0.000 A 
ATOM      7  C   UNL     1      27.001  24.356  26.494  0.00  0.00    +0.000 C 
ATOM      8  O   UNL     1      27.007  25.754  26.745  0.00  0.00    +0.000 OA
ATOM      9  C   UNL     1      27.145  23.697  27.794  0.00  0.00    +0.000 A 
ATOM     10  C   UNL     1      26.132  23.954  28.728  0.00  0.00    +0.000 A 
ATOM     11  C   UNL     1      26.144  23.399  29.989  0.00  0.00    +0.000 A 
ATOM     12  C   UNL     1      27.195  22.565  30.331  0.00  0.00    +0.000 A 
ATOM     13  C   UNL     1      28.190  22.308  29.426  0.00  0.00    +0.000 A 
ATOM     14  C   UNL     1      28.172  22.864  28.172  0.00  0.00    +0.000 A 
ATOM     15  C   UNL     1      29.234  22.593  27.200  0.00  0.00    +0.000 C 
ATOM     16  O   UNL     1      30.199  21.843  27.475  0.00  0.00    +0.000 OA
ENDROOT
BRANCH   1  18
ATOM     17  C   UNL     1      29.501  26.461  22.074  0.00  0.00    +0.000 C 
ATOM     18  C   UNL     1      28.984  25.027  21.965  0.00  0.00    +0.000 C 
ATOM     19  C   UNL     1      27.558  25.122  21.466  0.00  0.00    +0.000 C 
ENDBRANCH   1  18
BRANCH   7  20
ATOM     20  C   UNL     1      25.632  24.048  25.919  0.00  0.00    +0.000 C 
ATOM     21  C   UNL     1      25.693  22.922  24.910  0.00  0.00    +0.000 C 
ATOM     22  C   UNL     1      25.083  25.295  25.266  0.00  0.00    +0.000 C 
ENDBRANCH   7  20
TORSDOF 2
ENDMDL
MODEL 4
REMARK VINA RESULT:      -6.6      1.076      1.242
REMARK  Name = 
REMARK  2 active torsions:
REMARK  status: ('A' for Active; 'I' for Inactive)
REMARK    1  A    between atoms: C_2  and  C_4
REMARK    2  A    between atoms: C_10  and  C_12
REMARK                            x       y       z     vdW  Elec       q    Type
REMARK                         _______ _______ _______ _____ _____    ______ ____
ROOT
ATOM      1  C   UNL     1      28.427  22.520  28.711  0.00  0.00    +0.000 A 
ATOM      2  C   UNL     1      29.746  22.309  28.376  0.00  0.00    +0.000 A 
ATOM      3  C   UNL     1      30.227  22.526  27.113  0.00  0.00    +0.000 A 
ATOM      4  C   UNL     1      29.356  22.982  26.102  0.00  0.00    +0.000 A 
ATOM      5  C   UNL     1      28.042  23.200  26.407  0.00  0.00    +0.000 A 
ATOM      6  C   UNL     1      27.593  22.962  27.723  0.00  0.00    +0.000 A 
ATOM      7  C   UNL     1      27.091  23.674  25.396  0.00  0.00    +0.000 C 
ATOM      8  O   UNL     1      26.085  22.684  25.241  0.00  0.00    +0.000 OA
ATOM      9  C   UNL     1      27.680  23.883  24.071  0.00  0.00    +0.000 A 
ATOM     10  C   UNL     1      26.805  24.336  23.075  0.00  0.00    +0.000 A 
ATOM     11  C   UNL     1      27.226  24.573  21.785  0.00  0.00    +0.000 A 
ATOM     12  C   UNL     1      28.559  24.353  21.477  0.00  0.00    +0.000 A 
ATOM     13  C   UNL     1      29.423  23.910  22.443  0.00  0.00    +0.000 A 
ATOM     14  C   UNL     1      28.996  23.675  23.726  0.00  0.00    +0.000 A 
ATOM     15  C   UNL     1      29.915  23.201  24.763  0.00  0.00    +0.000 C 
ATOM     16  O   UNL     1      31.126  22.992  24.520  0.00  0.00    +0.000 OA
ENDROOT
BRANCH   1  18
ATOM     17  C   UNL     1      26.483  22.753  30.199  0.00  0.00    +0.000 C 
ATOM     18  C   UNL     1      27.931  22.271  30.110  0.00  0.00    +0.000 C 
ATOM     19  C   UNL     1      28.717  23.090  31.111  0.00  0.00    +0.000 C 
ENDBRANCH   1  18
BRANCH   7  20
ATOM     20  C   UNL     1      26.366  24.931  25.831  0.00  0.00    +0.000 C 
ATOM     21  C   UNL     1      27.315  25.935  26.451  0.00  0.00    +0.000 C 
ATOM     22  C   UNL     1      25.292  24.558  26.826  0.00  0.00    +0.000 C 
ENDBRANCH   7  20
TORSDOF 2
ENDMDL
MODEL 5
REMARK VINA RESULT:      -6.6     31.409     33.470
REMARK  Name = 
REMARK  2 active torsions:
REMARK  status: ('A' for Active; 'I' for Inactive)
REMARK    1  A    between atoms: C_2  and  C_4
REMARK    2  A    between atoms: C_10  and  C_12
REMARK                            x       y       z     vdW  Elec       q    Type
REMARK                         _______ _______ _______ _____ _____    ______ ____
ROOT
ATOM      1  C   UNL     1      18.003  -9.288  27.958  0.00  0.00    +0.000 A 
ATOM      2  C   UNL     1      17.600  -7.988  27.745  0.00  0.00    +0.000 A 
ATOM      3  C   UNL     1      18.339  -7.101  27.010  0.00  0.00    +0.000 A 
ATOM      4  C   UNL     1      19.563  -7.512  26.442  0.00  0.00    +0.000 A 
ATOM      5  C   UNL     1      19.986  -8.797  26.638  0.00  0.00    +0.000 A 
ATOM      6  C   UNL     1      19.189  -9.674  27.403  0.00  0.00    +0.000 A 
ATOM      7  C   UNL     1      21.250  -9.279  26.071  0.00  0.00    +0.000 C 
ATOM      8  O   UNL     1      22.096  -9.661  27.146  0.00  0.00    +0.000 OA
ATOM      9  C   UNL     1      21.983  -8.274  25.299  0.00  0.00    +0.000 A 
ATOM     10  C   UNL     1      23.197  -8.694  24.740  0.00  0.00    +0.000 A 
ATOM     11  C   UNL     1      23.987  -7.851  23.990  0.00  0.00    +0.000 A 
ATOM     12  C   UNL     1      23.557  -6.549  23.791  0.00  0.00    +0.000 A 
ATOM     13  C   UNL     1      22.372  -6.128  24.334  0.00  0.00    +0.000 A 
ATOM     14  C   UNL     1      21.590  -6.974  25.079  0.00  0.00    +0.000 A 
ATOM     15  C   UNL     1      20.322  -6.528  25.662  0.00  0.00    +0.000 C 
ATOM     16  O   UNL     1      19.901  -5.359  25.502  0.00  0.00    +0.000 OA
ENDROOT
BRANCH   1  18
ATOM     17  C   UNL     1      17.468  -9.997  30.251  0.00  0.00    +0.000 C 
ATOM     18  C   UNL     1      17.165 -10.237  28.773  0.00  0.00    +0.000 C 
ATOM     19  C   UNL     1      17.550 -11.673  28.485  0.00  0.00    +0.000 C 
ENDBRANCH   1  18
BRANCH   7  20
ATOM     20  C   UNL     1      21.065 -10.528  25.231  0.00  0.00    +0.000 C 
ATOM     21  C   UNL     1      19.832 -10.434  24.359  0.00  0.00    +0.000 C 
ATOM     22  C   UNL     1      20.956 -11.724  26.149  0.00  0.00    +0.000 C 
ENDBRANCH   7  20
TORSDOF 2
ENDMDL
MODEL 6
REMARK VINA RESULT:      -6.5      2.393      3.725
REMARK  Name = 
REMARK  2 active torsions:
REMARK  status: ('A' for Active; 'I' for Inactive)
REMARK    1  A    between atoms: C_2  and  C_4
REMARK    2  A    between atoms: C_10  and  C_12
REMARK                            x       y       z     vdW  Elec       q    Type
REMARK                         _______ _______ _______ _____ _____    ______ ____
ROOT
ATOM      1  C   UNL     1      31.576  23.080  28.233  0.00  0.00    +0.000 A 
ATOM      2  C   UNL     1      32.314  23.383  27.110  0.00  0.00    +0.000 A 
ATOM      3  C   UNL     1      31.741  23.546  25.878  0.00  0.00    +0.000 A 
ATOM      4  C   UNL     1      30.346  23.403  25.730  0.00  0.00    +0.000 A 
ATOM      5  C   UNL     1      29.591  23.102  26.828  0.00  0.00    +0.000 A 
ATOM      6  C   UNL     1      30.226  22.943  28.077  0.00  0.00    +0.000 A 
ATOM      7  C   UNL     1      28.136  22.941  26.733  0.00  0.00    +0.000 C 
ATOM      8  O   UNL     1      27.816  21.611  27.114  0.00  0.00    +0.000 OA
ATOM      9  C   UNL     1      27.599  23.131  25.384  0.00  0.00    +0.000 A 
ATOM     10  C   UNL     1      26.211  22.985  25.250  0.00  0.00    +0.000 A 
ATOM     11  C   UNL     1      25.574  23.137  24.038  0.00  0.00    +0.000 A 
ATOM     12  C   UNL     1      26.342  23.442  22.925  0.00  0.00    +0.000 A 
ATOM     13  C   UNL     1      27.698  23.586  23.045  0.00  0.00    +0.000 A 
ATOM     14  C   UNL     1      28.326  23.434  24.256  0.00  0.00    +0.000 A 
ATOM     15  C   UNL     1      29.776  23.586  24.390  0.00  0.00    +0.000 C 
ATOM     16  O   UNL     1      30.501  23.862  23.406  0.00  0.00    +0.000 OA
ENDROOT
BRANCH   1  18
ATOM     17  C   UNL     1      33.213  21.734  29.480  0.00  0.00    +0.000 C 
ATOM     18  C   UNL     1      32.238  22.907  29.574  0.00  0.00    +0.000 C 
ATOM     19  C   UNL     1      31.219  22.533  30.630  0.00  0.00    +0.000 C 
ENDBRANCH   1  18
BRANCH   7  20
ATOM     20  C   UNL     1      27.393  23.836  27.705  0.00  0.00    +0.000 C 
ATOM     21  C   UNL     1      28.149  25.120  27.969  0.00  0.00    +0.000 C 
ATOM     22  C   UNL     1      27.185  23.086  29.001  0.00  0.00    +0.000 C 
ENDBRANCH   7  20
TORSDOF 2
ENDMDL
MODEL 7
REMARK VINA RESULT:      -6.5      1.883      4.416
REMARK  Name = 
REMARK  2 active torsions:
REMARK  status: ('A' for Active; 'I' for Inactive)
REMARK    1  A    between atoms: C_2  and  C_4
REMARK    2  A    between atoms: C_10  and  C_12
REMARK                            x       y       z     vdW  Elec       q    Type
REMARK                         _______ _______ _______ _____ _____    ______ ____
ROOT
ATOM      1  C   UNL     1      24.151  25.795  25.731  0.00  0.00    +0.000 A 
ATOM      2  C   UNL     1      24.172  25.447  27.064  0.00  0.00    +0.000 A 
ATOM      3  C   UNL     1      25.198  24.732  27.620  0.00  0.00    +0.000 A 
ATOM      4  C   UNL     1      26.284  24.326  26.817  0.00  0.00    +0.000 A 
ATOM      5  C   UNL     1      26.288  24.658  25.491  0.00  0.00    +0.000 A 
ATOM      6  C   UNL     1      25.208  25.396  24.964  0.00  0.00    +0.000 A 
ATOM      7  C   UNL     1      27.391  24.263  24.609  0.00  0.00    +0.000 C 
ATOM      8  O   UNL     1      26.862  23.419  23.597  0.00  0.00    +0.000 OA
ATOM      9  C   UNL     1      28.450  23.503  25.276  0.00  0.00    +0.000 A 
ATOM     10  C   UNL     1      29.523  23.105  24.468  0.00  0.00    +0.000 A 
ATOM     11  C   UNL     1      30.586  22.384  24.966  0.00  0.00    +0.000 A 
ATOM     12  C   UNL     1      30.581  22.049  26.310  0.00  0.00    +0.000 A 
ATOM     13  C   UNL     1      29.536  22.432  27.110  0.00  0.00    +0.000 A 
ATOM     14  C   UNL     1      28.481  23.150  26.606  0.00  0.00    +0.000 A 
ATOM     15  C   UNL     1      27.361  23.562  27.456  0.00  0.00    +0.000 C 
ATOM     16  O   UNL     1      27.324  23.277  28.675  0.00  0.00    +0.000 OA
ENDROOT
BRANCH   1  18
ATOM     17  C   UNL     1      23.504  27.990  24.834  0.00  0.00    +0.000 C 
ATOM     18  C   UNL     1      23.006  26.581  25.151  0.00  0.00    +0.000 C 
ATOM     19  C   UNL     1      21.895  26.738  26.167  0.00  0.00    +0.000 C 
ENDBRANCH   1  18
BRANCH   7  20
ATOM     20  C   UNL     1      27.999  25.445  23.881  0.00  0.00    +0.000 C 
ATOM     21  C   UNL     1      27.931  26.707  24.715  0.00  0.00    +0.000 C 
ATOM     22  C   UNL     1      27.261  25.651  22.578  0.00  0.00    +0.000 C 
ENDBRANCH   7  20
TORSDOF 2
ENDMDL
MODEL 8
REMARK VINA RESULT:      -6.3     31.019     33.174
REMARK  Name = 
REMARK  2 active torsions:
REMARK  status: ('A' for Active; 'I' for Inactive)
REMARK    1  A    between atoms: C_2  and  C_4
REMARK    2  A    between atoms: C_10  and  C_12
REMARK                            x       y       z     vdW  Elec       q    Type
REMARK                         _______ _______ _______ _____ _____    ______ ____
ROOT
ATOM      1  C   UNL     1      23.352  -7.834  24.069  0.00  0.00    +0.000 A 
ATOM      2  C   UNL     1      23.237  -6.531  24.500  0.00  0.00    +0.000 A 
ATOM      3  C   UNL     1      22.092  -6.044  25.070  0.00  0.00    +0.000 A 
ATOM      4  C   UNL     1      20.976  -6.891  25.231  0.00  0.00    +0.000 A 
ATOM      5  C   UNL     1      21.063  -8.189  24.812  0.00  0.00    +0.000 A 
ATOM      6  C   UNL     1      22.265  -8.644  24.230  0.00  0.00    +0.000 A 
ATOM      7  C   UNL     1      19.935  -9.115  24.954  0.00  0.00    +0.000 C 
ATOM      8  O   UNL     1      19.547  -9.537  23.656  0.00  0.00    +0.000 OA
ATOM      9  C   UNL     1      18.747  -8.521  25.573  0.00  0.00    +0.000 A 
ATOM     10  C   UNL     1      17.645  -9.372  25.727  0.00  0.00    +0.000 A 
ATOM     11  C   UNL     1      16.464  -8.944  26.293  0.00  0.00    +0.000 A 
ATOM     12  C   UNL     1      16.377  -7.628  26.718  0.00  0.00    +0.000 A 
ATOM     13  C   UNL     1      17.449  -6.788  26.571  0.00  0.00    +0.000 A 
ATOM     14  C   UNL     1      18.622  -7.221  26.007  0.00  0.00    +0.000 A 
ATOM     15  C   UNL     1      19.770  -6.326  25.847  0.00  0.00    +0.000 C 
ATOM     16  O   UNL     1      19.727  -5.131  26.220  0.00  0.00    +0.000 OA
ENDROOT
BRANCH   1  18
ATOM     17  C   UNL     1      25.611  -7.171  23.359  0.00  0.00    +0.000 C 
ATOM     18  C   UNL     1      24.627  -8.336  23.445  0.00  0.00    +0.000 C 
ATOM     19  C   UNL     1      24.382  -8.797  22.024  0.00  0.00    +0.000 C 
ENDBRANCH   1  18
BRANCH   7  20
ATOM     20  C   UNL     1      20.316 -10.378  25.701  0.00  0.00    +0.000 C 
ATOM     21  C   UNL     1      21.184 -10.073  26.903  0.00  0.00    +0.000 C 
ATOM     22  C   UNL     1      21.051 -11.301  24.757  0.00  0.00    +0.000 C 
ENDBRANCH   7  20
TORSDOF 2
ENDMDL
MODEL 9
REMARK VINA RESULT:      -6.3     18.050     20.975
REMARK  Name = 
REMARK  2 active torsions:
REMARK  status: ('A' for Active; 'I' for Inactive)
REMARK    1  A    between atoms: C_2  and  C_4
REMARK    2  A    between atoms: C_10  and  C_12
REMARK                            x       y       z     vdW  Elec       q    Type
REMARK                         _______ _______ _______ _____ _____    ______ ____
ROOT
ATOM      1  C   UNL     1      18.131   9.072  40.867  0.00  0.00    +0.000 A 
ATOM      2  C   UNL     1      18.995   8.316  41.627  0.00  0.00    +0.000 A 
ATOM      3  C   UNL     1      20.304   8.121  41.276  0.00  0.00    +0.000 A 
ATOM      4  C   UNL     1      20.806   8.707  40.096  0.00  0.00    +0.000 A 
ATOM      5  C   UNL     1      19.970   9.461  39.323  0.00  0.00    +0.000 A 
ATOM      6  C   UNL     1      18.629   9.633  39.726  0.00  0.00    +0.000 A 
ATOM      7  C   UNL     1      20.437  10.094  38.085  0.00  0.00    +0.000 C 
ATOM      8  O   UNL     1      19.684   9.559  37.007  0.00  0.00    +0.000 OA
ATOM      9  C   UNL     1      21.846   9.840  37.778  0.00  0.00    +0.000 A 
ATOM     10  C   UNL     1      22.333  10.427  36.602  0.00  0.00    +0.000 A 
ATOM     11  C   UNL     1      23.640  10.270  36.193  0.00  0.00    +0.000 A 
ATOM     12  C   UNL     1      24.487   9.504  36.978  0.00  0.00    +0.000 A 
ATOM     13  C   UNL     1      24.021   8.926  38.129  0.00  0.00    +0.000 A 
ATOM     14  C   UNL     1      22.718   9.087  38.530  0.00  0.00    +0.000 A 
ATOM     15  C   UNL     1      22.214   8.471  39.759  0.00  0.00    +0.000 C 
ATOM     16  O   UNL     1      22.952   7.773  40.493  0.00  0.00    +0.000 OA
ENDROOT
BRANCH   1  18
ATOM     17  C   UNL     1      16.680   9.836  42.699  0.00  0.00    +0.000 C 
ATOM     18  C   UNL     1      16.697   9.265  41.282  0.00  0.00    +0.000 C 
ATOM     19  C   UNL     1      15.974   7.937  41.347  0.00  0.00    +0.000 C 
ENDBRANCH   1  18
BRANCH   7  20
ATOM     20  C   UNL     1      20.176  11.587  38.067  0.00  0.00    +0.000 C 
ATOM     21  C   UNL     1      20.570  12.237  39.375  0.00  0.00    +0.000 C 
ATOM     22  C   UNL     1      18.708  11.824  37.797  0.00  0.00    +0.000 C 
ENDBRANCH   7  20
TORSDOF 2
ENDMDL
MODEL 10
REMARK VINA RESULT:      -6.3     21.203     22.380
REMARK  Name = 
REMARK  2 active torsions:
REMARK  status: ('A' for Active; 'I' for Inactive)
REMARK    1  A    between atoms: C_2  and  C_4
REMARK    2  A    between atoms: C_10  and  C_12
REMARK                            x       y       z     vdW  Elec       q    Type
REMARK                         _______ _______ _______ _____ _____    ______ ____
ROOT
ATOM      1  C   UNL     1      23.058   3.121  14.407  0.00  0.00    +0.000 A 
ATOM      2  C   UNL     1      23.667   3.825  13.393  0.00  0.00    +0.000 A 
ATOM      3  C   UNL     1      24.711   4.681  13.617  0.00  0.00    +0.000 A 
ATOM      4  C   UNL     1      25.196   4.864  14.928  0.00  0.00    +0.000 A 
ATOM      5  C   UNL     1      24.610   4.178  15.954  0.00  0.00    +0.000 A 
ATOM      6  C   UNL     1      23.536   3.307  15.673  0.00  0.00    +0.000 A 
ATOM      7  C   UNL     1      25.072   4.329  17.337  0.00  0.00    +0.000 C 
ATOM      8  O   UNL     1      23.998   4.851  18.105  0.00  0.00    +0.000 OA
ATOM      9  C   UNL     1      26.191   5.261  17.496  0.00  0.00    +0.000 A 
ATOM     10  C   UNL     1      26.664   5.435  18.804  0.00  0.00    +0.000 A 
ATOM     11  C   UNL     1      27.711   6.281  19.096  0.00  0.00    +0.000 A 
ATOM     12  C   UNL     1      28.305   6.976  18.056  0.00  0.00    +0.000 A 
ATOM     13  C   UNL     1      27.851   6.814  16.774  0.00  0.00    +0.000 A 
ATOM     14  C   UNL     1      26.807   5.969  16.490  0.00  0.00    +0.000 A 
ATOM     15  C   UNL     1      26.317   5.792  15.122  0.00  0.00    +0.000 C 
ATOM     16  O   UNL     1      26.831   6.404  14.157  0.00  0.00    +0.000 OA
ENDROOT
BRANCH   1  18
ATOM     17  C   UNL     1      20.681   3.028  13.784  0.00  0.00    +0.000 C 
ATOM     18  C   UNL     1      21.911   2.187  14.126  0.00  0.00    +0.000 C 
ATOM     19  C   UNL     1      21.554   1.389  15.362  0.00  0.00    +0.000 C 
ENDBRANCH   1  18
BRANCH   7  20
ATOM     20  C   UNL     1      25.426   3.001  17.976  0.00  0.00    +0.000 C 
ATOM     21  C   UNL     1      26.082   2.064  16.984  0.00  0.00    +0.000 C 
ATOM     22  C   UNL     1      24.166   2.370  18.522  0.00  0.00    +0.000 C 
ENDBRANCH   7  20
TORSDOF 2
ENDMDL
