MODEL 1
REMARK VINA RESULT:      -7.2      0.000      0.000
REMARK  Name = 
REMARK  2 active torsions:
REMARK  status: ('A' for Active; 'I' for Inactive)
REMARK    1  A    between atoms: C_6  and  N_7
REMARK    2  A    between atoms: C_11  and  C_12
REMARK                            x       y       z     vdW  Elec       q    Type
REMARK                         _______ _______ _______ _____ _____    ______ ____
ROOT
ATOM      1  N   UNL     1      29.054  22.924  27.501  0.00  0.00    +0.000 N 
ATOM      2  N   UNL     1      30.256  22.434  27.775  0.00  0.00    +0.000 NA
ATOM      3  N   UNL     1      30.950  22.189  26.692  0.00  0.00    +0.000 NA
ATOM      4  C   UNL     1      30.172  22.530  25.656  0.00  0.00    +0.000 A 
ATOM      5  C   UNL     1      28.973  22.994  26.180  0.00  0.00    +0.000 A 
ENDROOT
BRANCH   5   6
ATOM      6  C   UNL     1      27.853  23.469  25.336  0.00  0.00    +0.000 C 
ATOM      7  C   UNL     1      26.529  22.877  25.651  0.00  0.00    +0.000 C 
ATOM      8  C   UNL     1      25.521  23.501  24.686  0.00  0.00    +0.000 C 
ATOM      9  C   UNL     1      25.431  25.002  24.885  0.00  0.00    +0.000 C 
ATOM     10  C   UNL     1      26.790  25.624  24.609  0.00  0.00    +0.000 C 
ATOM     11  C   UNL     1      27.155  25.313  23.179  0.00  0.00    +0.000 C 
ATOM     12  C   UNL     1      27.227  23.808  22.958  0.00  0.00    +0.000 C 
ATOM     13  C   UNL     1      25.874  23.171  23.238  0.00  0.00    +0.000 C 
ATOM     14  C   UNL     1      28.238  23.162  23.891  0.00  0.00    +0.000 C 
ATOM     15  C   UNL     1      27.830  24.993  25.492  0.00  0.00    +0.000 C 
ENDBRANCH   5   6
BRANCH   1  21
ATOM     16  N   UNL     1      25.820  21.476  30.790  0.00  0.00    +0.000 NA
ATOM     17  C   UNL     1      26.440  22.536  30.075  0.00  0.00    +0.000 A 
ATOM     18  C   UNL     1      26.065  23.828  30.303  0.00  0.00    +0.000 A 
ATOM     19  C   UNL     1      26.654  24.864  29.623  0.00  0.00    +0.000 A 
ATOM     20  C   UNL     1      27.648  24.592  28.687  0.00  0.00    +0.000 A 
ATOM     21  C   UNL     1      28.043  23.300  28.437  0.00  0.00    +0.000 A 
ATOM     22  C   UNL     1      27.431  22.284  29.139  0.00  0.00    +0.000 A 
ENDBRANCH   1  21
TORSDOF 2
ENDMDL
MODEL 2
REMARK VINA RESULT:      -6.7      2.483      5.568
REMARK  Name = 
REMARK  2 active torsions:
REMARK  status: ('A' for Active; 'I' for Inactive)
REMARK    1  A    between atoms: C_6  and  N_7
REMARK    2  A    between atoms: C_11  and  C_12
REMARK                            x       y       z     vdW  Elec       q    Type
REMARK                         _______ _______ _______ _____ _____    ______ ____
ROOT
ATOM      1  N   UNL     1      27.948  23.434  24.285  0.00  0.00    +0.000 N 
ATOM      2  N   UNL     1      27.281  23.185  23.165  0.00  0.00    +0.000 NA
ATOM      3  N   UNL     1      25.995  23.053  23.374  0.00  0.00    +0.000 NA
ATOM      4  C   UNL     1      25.803  23.222  24.688  0.00  0.00    +0.000 A 
ATOM      5  C   UNL     1      27.046  23.462  25.256  0.00  0.00    +0.000 A 
ENDROOT
BRANCH   5   6
ATOM      6  C   UNL     1      27.239  23.701  26.705  0.00  0.00    +0.000 C 
ATOM      7  C   UNL     1      28.058  24.891  27.046  0.00  0.00    +0.000 C 
ATOM      8  C   UNL     1      28.125  24.963  28.571  0.00  0.00    +0.000 C 
ATOM      9  C   UNL     1      26.745  25.148  29.171  0.00  0.00    +0.000 C 
ATOM     10  C   UNL     1      25.875  23.960  28.797  0.00  0.00    +0.000 C 
ATOM     11  C   UNL     1      26.523  22.722  29.363  0.00  0.00    +0.000 C 
ATOM     12  C   UNL     1      27.920  22.534  28.787  0.00  0.00    +0.000 C 
ATOM     13  C   UNL     1      28.799  23.722  29.148  0.00  0.00    +0.000 C 
ATOM     14  C   UNL     1      27.882  22.438  27.271  0.00  0.00    +0.000 C 
ATOM     15  C   UNL     1      25.832  23.808  27.302  0.00  0.00    +0.000 C 
ENDBRANCH   5   6
BRANCH   1  21
ATOM     16  N   UNL     1      31.580  26.590  24.750  0.00  0.00    +0.000 NA
ATOM     17  C   UNL     1      31.142  25.241  24.657  0.00  0.00    +0.000 A 
ATOM     18  C   UNL     1      32.047  24.222  24.707  0.00  0.00    +0.000 A 
ATOM     19  C   UNL     1      31.642  22.914  24.620  0.00  0.00    +0.000 A 
ATOM     20  C   UNL     1      30.287  22.624  24.478  0.00  0.00    +0.000 A 
ATOM     21  C   UNL     1      29.355  23.632  24.425  0.00  0.00    +0.000 A 
ATOM     22  C   UNL     1      29.798  24.934  24.515  0.00  0.00    +0.000 A 
ENDBRANCH   1  21
TORSDOF 2
ENDMDL
MODEL 3
REMARK VINA RESULT:      -6.6      2.622      4.143
REMARK  Name = 
REMARK  2 active torsions:
REMARK  status: ('A' for Active; 'I' for Inactive)
REMARK    1  A    between atoms: C_6  and  N_7
REMARK    2  A    between atoms: C_11  and  C_12
REMARK                            x       y       z     vdW  Elec       q    Type
REMARK                         _______ _______ _______ _____ _____    ______ ____
ROOT
ATOM      1  N   UNL     1      26.326  23.510  25.124  0.00  0.00    +0.000 N 
ATOM      2  N   UNL     1      25.358  23.207  24.269  0.00  0.00    +0.000 NA
ATOM      3  N   UNL     1      25.799  23.096  23.040  0.00  0.00    +0.000 NA
ATOM      4  C   UNL     1      27.116  23.337  23.085  0.00  0.00    +0.000 A 
ATOM      5  C   UNL     1      27.439  23.598  24.409  0.00  0.00    +0.000 A 
ENDROOT
BRANCH   5   6
ATOM      6  C   UNL     1      28.815  23.910  24.858  0.00  0.00    +0.000 C 
ATOM      7  C   UNL     1      28.928  25.032  25.822  0.00  0.00    +0.000 C 
ATOM      8  C   UNL     1      30.411  25.181  26.163  0.00  0.00    +0.000 C 
ATOM      9  C   UNL     1      30.946  23.928  26.827  0.00  0.00    +0.000 C 
ATOM     10  C   UNL     1      30.801  22.755  25.872  0.00  0.00    +0.000 C 
ATOM     11  C   UNL     1      31.605  23.069  24.636  0.00  0.00    +0.000 C 
ATOM     12  C   UNL     1      31.093  24.338  23.968  0.00  0.00    +0.000 C 
ATOM     13  C   UNL     1      31.226  25.520  24.918  0.00  0.00    +0.000 C 
ATOM     14  C   UNL     1      29.625  24.212  23.600  0.00  0.00    +0.000 C 
ATOM     15  C   UNL     1      29.364  22.610  25.456  0.00  0.00    +0.000 C 
ENDBRANCH   5   6
BRANCH   1  21
ATOM     16  N   UNL     1      24.427  26.139  28.709  0.00  0.00    +0.000 NA
ATOM     17  C   UNL     1      25.232  25.042  28.296  0.00  0.00    +0.000 A 
ATOM     18  C   UNL     1      25.830  24.243  29.225  0.00  0.00    +0.000 A 
ATOM     19  C   UNL     1      26.610  23.180  28.844  0.00  0.00    +0.000 A 
ATOM     20  C   UNL     1      26.792  22.914  27.489  0.00  0.00    +0.000 A 
ATOM     21  C   UNL     1      26.202  23.705  26.533  0.00  0.00    +0.000 A 
ATOM     22  C   UNL     1      25.425  24.764  26.951  0.00  0.00    +0.000 A 
ENDBRANCH   1  21
TORSDOF 2
ENDMDL
MODEL 4
REMARK VINA RESULT:      -6.6      1.616      2.329
REMARK  Name = 
REMARK  2 active torsions:
REMARK  status: ('A' for Active; 'I' for Inactive)
REMARK    1  A    between atoms: C_6  and  N_7
REMARK    2  A    between atoms: C_11  and  C_12
REMARK                            x       y       z     vdW  Elec       q    Type
REMARK                         _______ _______ _______ _____ _____    ______ ____
ROOT
ATOM      1  N   UNL     1      30.030  22.844  29.114  0.00  0.00    +0.000 N 
ATOM      2  N   UNL     1      30.972  22.427  29.950  0.00  0.00    +0.000 NA
ATOM      3  N   UNL     1      32.103  22.178  29.337  0.00  0.00    +0.000 NA
ATOM      4  C   UNL     1      31.899  22.441  28.039  0.00  0.00    +0.000 A 
ATOM      5  C   UNL     1      30.583  22.861  27.909  0.00  0.00    +0.000 A 
ENDROOT
BRANCH   5   6
ATOM      6  C   UNL     1      29.983  23.246  26.611  0.00  0.00    +0.000 C 
ATOM      7  C   UNL     1      28.660  22.640  26.321  0.00  0.00    +0.000 C 
ATOM      8  C   UNL     1      28.216  23.168  24.957  0.00  0.00    +0.000 C 
ATOM      9  C   UNL     1      28.053  24.676  24.983  0.00  0.00    +0.000 C 
ATOM     10  C   UNL     1      29.388  25.317  25.321  0.00  0.00    +0.000 C 
ATOM     11  C   UNL     1      30.371  24.922  24.249  0.00  0.00    +0.000 C 
ATOM     12  C   UNL     1      30.530  23.408  24.196  0.00  0.00    +0.000 C 
ATOM     13  C   UNL     1      29.197  22.753  23.864  0.00  0.00    +0.000 C 
ATOM     14  C   UNL     1      30.990  22.856  25.534  0.00  0.00    +0.000 C 
ATOM     15  C   UNL     1      29.898  24.777  26.628  0.00  0.00    +0.000 C 
ENDBRANCH   5   6
BRANCH   1  21
ATOM     16  N   UNL     1      25.732  21.397  30.789  0.00  0.00    +0.000 NA
ATOM     17  C   UNL     1      26.555  22.439  30.283  0.00  0.00    +0.000 A 
ATOM     18  C   UNL     1      26.052  23.699  30.137  0.00  0.00    +0.000 A 
ATOM     19  C   UNL     1      26.832  24.718  29.652  0.00  0.00    +0.000 A 
ATOM     20  C   UNL     1      28.155  24.462  29.303  0.00  0.00    +0.000 A 
ATOM     21  C   UNL     1      28.686  23.202  29.440  0.00  0.00    +0.000 A 
ATOM     22  C   UNL     1      27.874  22.202  29.931  0.00  0.00    +0.000 A 
ENDBRANCH   1  21
TORSDOF 2
ENDMDL
MODEL 5
REMARK VINA RESULT:      -6.5     20.608     22.111
REMARK  Name = 
REMARK  2 active torsions:
REMARK  status: ('A' for Active; 'I' for Inactive)
REMARK    1  A    between atoms: C_6  and  N_7
REMARK    2  A    between atoms: C_11  and  C_12
REMARK                            x       y       z     vdW  Elec       q    Type
REMARK                         _______ _______ _______ _____ _____    ______ ____
ROOT
ATOM      1  N   UNL     1      26.564   2.208  16.696  0.00  0.00    +0.000 N 
ATOM      2  N   UNL     1      27.192   1.050  16.539  0.00  0.00    +0.000 NA
ATOM      3  N   UNL     1      28.459   1.208  16.245  0.00  0.00    +0.000 NA
ATOM      4  C   UNL     1      28.678   2.529  16.205  0.00  0.00    +0.000 A 
ATOM      5  C   UNL     1      27.472   3.153  16.492  0.00  0.00    +0.000 A 
ENDROOT
BRANCH   5   6
ATOM      6  C   UNL     1      27.315   4.624  16.543  0.00  0.00    +0.000 C 
ATOM      7  C   UNL     1      26.244   5.177  15.677  0.00  0.00    +0.000 C 
ATOM      8  C   UNL     1      26.241   6.692  15.883  0.00  0.00    +0.000 C 
ATOM      9  C   UNL     1      25.921   7.046  17.322  0.00  0.00    +0.000 C 
ATOM     10  C   UNL     1      26.983   6.452  18.231  0.00  0.00    +0.000 C 
ATOM     11  C   UNL     1      28.310   7.049  17.836  0.00  0.00    +0.000 C 
ATOM     12  C   UNL     1      28.637   6.719  16.385  0.00  0.00    +0.000 C 
ATOM     13  C   UNL     1      27.575   7.303  15.464  0.00  0.00    +0.000 C 
ATOM     14  C   UNL     1      28.667   5.219  16.155  0.00  0.00    +0.000 C 
ATOM     15  C   UNL     1      27.068   4.967  18.016  0.00  0.00    +0.000 C 
ENDBRANCH   5   6
BRANCH   1  21
ATOM     16  N   UNL     1      22.018   2.513  15.082  0.00  0.00    +0.000 NA
ATOM     17  C   UNL     1      22.929   2.549  16.172  0.00  0.00    +0.000 A 
ATOM     18  C   UNL     1      22.473   2.757  17.441  0.00  0.00    +0.000 A 
ATOM     19  C   UNL     1      23.337   2.793  18.505  0.00  0.00    +0.000 A 
ATOM     20  C   UNL     1      24.701   2.615  18.286  0.00  0.00    +0.000 A 
ATOM     21  C   UNL     1      25.187   2.405  17.018  0.00  0.00    +0.000 A 
ATOM     22  C   UNL     1      24.290   2.374  15.973  0.00  0.00    +0.000 A 
ENDBRANCH   1  21
TORSDOF 2
ENDMDL
MODEL 6
REMARK VINA RESULT:      -6.5     32.095     33.454
REMARK  Name = 
REMARK  2 active torsions:
REMARK  status: ('A' for Active; 'I' for Inactive)
REMARK    1  A    between atoms: C_6  and  N_7
REMARK    2  A    between atoms: C_11  and  C_12
REMARK                            x       y       z     vdW  Elec       q    Type
REMARK                         _______ _______ _______ _____ _____    ______ ____
ROOT
ATOM      1  N   UNL     1      18.007  -7.263  27.045  0.00  0.00    +0.000 N 
ATOM      2  N   UNL     1      17.499  -6.050  27.223  0.00  0.00    +0.000 NA
ATOM      3  N   UNL     1      18.225  -5.121  26.651  0.00  0.00    +0.000 NA
ATOM      4  C   UNL     1      19.256  -5.747  26.071  0.00  0.00    +0.000 A 
ATOM      5  C   UNL     1      19.109  -7.103  26.326  0.00  0.00    +0.000 A 
ENDROOT
BRANCH   5   6
ATOM      6  C   UNL     1      20.064  -8.125  25.840  0.00  0.00    +0.000 C 
ATOM      7  C   UNL     1      20.600  -9.036  26.881  0.00  0.00    +0.000 C 
ATOM      8  C   UNL     1      21.546 -10.010  26.178  0.00  0.00    +0.000 C 
ATOM      9  C   UNL     1      20.805 -10.844  25.151  0.00  0.00    +0.000 C 
ATOM     10  C   UNL     1      20.210  -9.926  24.097  0.00  0.00    +0.000 C 
ATOM     11  C   UNL     1      21.348  -9.186  23.439  0.00  0.00    +0.000 C 
ATOM     12  C   UNL     1      22.115  -8.360  24.462  0.00  0.00    +0.000 C 
ATOM     13  C   UNL     1      22.710  -9.268  25.529  0.00  0.00    +0.000 C 
ATOM     14  C   UNL     1      21.204  -7.368  25.164  0.00  0.00    +0.000 C 
ATOM     15  C   UNL     1      19.321  -8.906  24.750  0.00  0.00    +0.000 C 
ENDBRANCH   5   6
BRANCH   1  21
ATOM     16  N   UNL     1      17.880 -10.500  30.634  0.00  0.00    +0.000 NA
ATOM     17  C   UNL     1      17.441 -10.090  29.345  0.00  0.00    +0.000 A 
ATOM     18  C   UNL     1      16.558 -10.860  28.646  0.00  0.00    +0.000 A 
ATOM     19  C   UNL     1      16.122 -10.480  27.402  0.00  0.00    +0.000 A 
ATOM     20  C   UNL     1      16.588  -9.291  26.846  0.00  0.00    +0.000 A 
ATOM     21  C   UNL     1      17.478  -8.498  27.529  0.00  0.00    +0.000 A 
ATOM     22  C   UNL     1      17.894  -8.910  28.776  0.00  0.00    +0.000 A 
ENDBRANCH   1  21
TORSDOF 2
ENDMDL
MODEL 7
REMARK VINA RESULT:      -6.2      3.135      6.285
REMARK  Name = 
REMARK  2 active torsions:
REMARK  status: ('A' for Active; 'I' for Inactive)
REMARK    1  A    between atoms: C_6  and  N_7
REMARK    2  A    between atoms: C_11  and  C_12
REMARK                            x       y       z     vdW  Elec       q    Type
REMARK                         _______ _______ _______ _____ _____    ______ ____
ROOT
ATOM      1  N   UNL     1      26.972  23.990  23.586  0.00  0.00    +0.000 N 
ATOM      2  N   UNL     1      25.690  23.677  23.449  0.00  0.00    +0.000 NA
ATOM      3  N   UNL     1      25.251  22.940  24.440  0.00  0.00    +0.000 NA
ATOM      4  C   UNL     1      26.288  22.759  25.267  0.00  0.00    +0.000 A 
ATOM      5  C   UNL     1      27.373  23.427  24.718  0.00  0.00    +0.000 A 
ENDROOT
BRANCH   5   6
ATOM      6  C   UNL     1      28.710  23.456  25.353  0.00  0.00    +0.000 C 
ATOM      7  C   UNL     1      29.779  22.744  24.611  0.00  0.00    +0.000 C 
ATOM      8  C   UNL     1      31.066  22.903  25.421  0.00  0.00    +0.000 C 
ATOM      9  C   UNL     1      31.460  24.362  25.538  0.00  0.00    +0.000 C 
ATOM     10  C   UNL     1      30.358  25.120  26.259  0.00  0.00    +0.000 C 
ATOM     11  C   UNL     1      30.205  24.514  27.630  0.00  0.00    +0.000 C 
ATOM     12  C   UNL     1      29.830  23.041  27.529  0.00  0.00    +0.000 C 
ATOM     13  C   UNL     1      30.924  22.271  26.803  0.00  0.00    +0.000 C 
ATOM     14  C   UNL     1      28.543  22.854  26.746  0.00  0.00    +0.000 C 
ATOM     15  C   UNL     1      29.054  24.939  25.533  0.00  0.00    +0.000 C 
ENDBRANCH   5   6
BRANCH   1  21
ATOM     16  N   UNL     1      28.119  28.403  21.982  0.00  0.00    +0.000 NA
ATOM     17  C   UNL     1      28.313  26.996  21.923  0.00  0.00    +0.000 A 
ATOM     18  C   UNL     1      29.222  26.466  21.056  0.00  0.00    +0.000 A 
ATOM     19  C   UNL     1      29.424  25.111  20.986  0.00  0.00    +0.000 A 
ATOM     20  C   UNL     1      28.690  24.266  21.815  0.00  0.00    +0.000 A 
ATOM     21  C   UNL     1      27.767  24.774  22.697  0.00  0.00    +0.000 A 
ATOM     22  C   UNL     1      27.591  26.140  22.739  0.00  0.00    +0.000 A 
ENDBRANCH   1  21
TORSDOF 2
ENDMDL
MODEL 8
REMARK VINA RESULT:      -6.2     32.081     33.431
REMARK  Name = 
REMARK  2 active torsions:
REMARK  status: ('A' for Active; 'I' for Inactive)
REMARK    1  A    between atoms: C_6  and  N_7
REMARK    2  A    between atoms: C_11  and  C_12
REMARK                            x       y       z     vdW  Elec       q    Type
REMARK                         _______ _______ _______ _____ _____    ______ ____
ROOT
ATOM      1  N   UNL     1      18.007  -7.196  26.950  0.00  0.00    +0.000 N 
ATOM      2  N   UNL     1      17.597  -5.966  27.231  0.00  0.00    +0.000 NA
ATOM      3  N   UNL     1      18.378  -5.053  26.709  0.00  0.00    +0.000 NA
ATOM      4  C   UNL     1      19.346  -5.708  26.056  0.00  0.00    +0.000 A 
ATOM      5  C   UNL     1      19.102  -7.065  26.215  0.00  0.00    +0.000 A 
ENDROOT
BRANCH   5   6
ATOM      6  C   UNL     1      19.966  -8.115  25.629  0.00  0.00    +0.000 C 
ATOM      7  C   UNL     1      19.291  -9.029  24.675  0.00  0.00    +0.000 C 
ATOM      8  C   UNL     1      20.347 -10.019  24.182  0.00  0.00    +0.000 C 
ATOM      9  C   UNL     1      21.464  -9.304  23.447  0.00  0.00    +0.000 C 
ATOM     10  C   UNL     1      22.142  -8.330  24.396  0.00  0.00    +0.000 C 
ATOM     11  C   UNL     1      22.706  -9.126  25.545  0.00  0.00    +0.000 C 
ATOM     12  C   UNL     1      21.598  -9.868  26.281  0.00  0.00    +0.000 C 
ATOM     13  C   UNL     1      20.906 -10.843  25.339  0.00  0.00    +0.000 C 
ATOM     14  C   UNL     1      20.543  -8.907  26.800  0.00  0.00    +0.000 C 
ATOM     15  C   UNL     1      21.128  -7.374  24.958  0.00  0.00    +0.000 C 
ENDBRANCH   5   6
BRANCH   1  21
ATOM     16  N   UNL     1      17.712 -10.675  30.294  0.00  0.00    +0.000 NA
ATOM     17  C   UNL     1      17.278 -10.139  29.052  0.00  0.00    +0.000 A 
ATOM     18  C   UNL     1      16.325 -10.787  28.321  0.00  0.00    +0.000 A 
ATOM     19  C   UNL     1      15.892 -10.283  27.121  0.00  0.00    +0.000 A 
ATOM     20  C   UNL     1      16.435  -9.093  26.642  0.00  0.00    +0.000 A 
ATOM     21  C   UNL     1      17.396  -8.422  27.357  0.00  0.00    +0.000 A 
ATOM     22  C   UNL     1      17.807  -8.956  28.559  0.00  0.00    +0.000 A 
ENDBRANCH   1  21
TORSDOF 2
ENDMDL
MODEL 9
REMARK VINA RESULT:      -6.2      2.006      5.217
REMARK  Name = 
REMARK  2 active torsions:
REMARK  status: ('A' for Active; 'I' for Inactive)
REMARK    1  A    between atoms: C_6  and  N_7
REMARK    2  A    between atoms: C_11  and  C_12
REMARK                            x       y       z     vdW  Elec       q    Type
REMARK                         _______ _______ _______ _____ _____    ______ ____
ROOT
ATOM      1  N   UNL     1      29.025  22.949  25.587  0.00  0.00    +0.000 N 
ATOM      2  N   UNL     1      30.009  22.080  25.778  0.00  0.00    +0.000 NA
ATOM      3  N   UNL     1      30.359  21.996  27.037  0.00  0.00    +0.000 NA
ATOM      4  C   UNL     1      29.573  22.847  27.708  0.00  0.00    +0.000 A 
ATOM      5  C   UNL     1      28.732  23.446  26.781  0.00  0.00    +0.000 A 
ENDROOT
BRANCH   5   6
ATOM      6  C   UNL     1      27.711  24.453  27.149  0.00  0.00    +0.000 C 
ATOM      7  C   UNL     1      27.649  25.643  26.264  0.00  0.00    +0.000 C 
ATOM      8  C   UNL     1      26.537  26.542  26.804  0.00  0.00    +0.000 C 
ATOM      9  C   UNL     1      25.194  25.841  26.753  0.00  0.00    +0.000 C 
ATOM     10  C   UNL     1      25.249  24.593  27.619  0.00  0.00    +0.000 C 
ATOM     11  C   UNL     1      25.550  25.029  29.030  0.00  0.00    +0.000 C 
ATOM     12  C   UNL     1      26.887  25.755  29.095  0.00  0.00    +0.000 C 
ATOM     13  C   UNL     1      26.848  27.003  28.226  0.00  0.00    +0.000 C 
ATOM     14  C   UNL     1      28.016  24.877  28.583  0.00  0.00    +0.000 C 
ATOM     15  C   UNL     1      26.373  23.705  27.166  0.00  0.00    +0.000 C 
ENDBRANCH   5   6
BRANCH   1  21
ATOM     16  N   UNL     1      29.594  24.515  21.049  0.00  0.00    +0.000 NA
ATOM     17  C   UNL     1      28.729  24.072  22.086  0.00  0.00    +0.000 A 
ATOM     18  C   UNL     1      27.385  23.985  21.867  0.00  0.00    +0.000 A 
ATOM     19  C   UNL     1      26.535  23.558  22.855  0.00  0.00    +0.000 A 
ATOM     20  C   UNL     1      27.053  23.209  24.101  0.00  0.00    +0.000 A 
ATOM     21  C   UNL     1      28.402  23.288  24.348  0.00  0.00    +0.000 A 
ATOM     22  C   UNL     1      29.226  23.721  23.332  0.00  0.00    +0.000 A 
ENDBRANCH   1  21
TORSDOF 2
ENDMDL
MODEL 10
REMARK VINA RESULT:      -6.1      2.248      5.079
REMARK  Name = 
REMARK  2 active torsions:
REMARK  status: ('A' for Active; 'I' for Inactive)
REMARK    1  A    between atoms: C_6  and  N_7
REMARK    2  A    between atoms: C_11  and  C_12
REMARK                            x       y       z     vdW  Elec       q    Type
REMARK                         _______ _______ _______ _____ _____    ______ ____
ROOT
ATOM      1  N   UNL     1      26.478  23.995  28.704  0.00  0.00    +0.000 N 
ATOM      2  N   UNL     1      25.633  23.816  29.711  0.00  0.00    +0.000 NA
ATOM      3  N   UNL     1      26.215  23.281  30.755  0.00  0.00    +0.000 NA
ATOM      4  C   UNL     1      27.499  23.098  30.424  0.00  0.00    +0.000 A 
ATOM      5  C   UNL     1      27.655  23.553  29.122  0.00  0.00    +0.000 A 
ENDROOT
BRANCH   5   6
ATOM      6  C   UNL     1      28.949  23.516  28.403  0.00  0.00    +0.000 C 
ATOM      7  C   UNL     1      29.276  24.738  27.627  0.00  0.00    +0.000 C 
ATOM      8  C   UNL     1      30.640  24.503  26.979  0.00  0.00    +0.000 C 
ATOM      9  C   UNL     1      31.717  24.304  28.028  0.00  0.00    +0.000 C 
ATOM     10  C   UNL     1      31.378  23.081  28.864  0.00  0.00    +0.000 C 
ATOM     11  C   UNL     1      31.333  21.891  27.938  0.00  0.00    +0.000 C 
ATOM     12  C   UNL     1      30.270  22.086  26.865  0.00  0.00    +0.000 C 
ATOM     13  C   UNL     1      30.594  23.313  26.025  0.00  0.00    +0.000 C 
ATOM     14  C   UNL     1      28.899  22.302  27.480  0.00  0.00    +0.000 C 
ATOM     15  C   UNL     1      30.013  23.238  29.471  0.00  0.00    +0.000 C 
ENDBRANCH   5   6
BRANCH   1  21
ATOM     16  N   UNL     1      25.471  23.163  24.049  0.00  0.00    +0.000 NA
ATOM     17  C   UNL     1      25.682  24.093  25.103  0.00  0.00    +0.000 A 
ATOM     18  C   UNL     1      25.594  25.433  24.863  0.00  0.00    +0.000 A 
ATOM     19  C   UNL     1      25.792  26.345  25.868  0.00  0.00    +0.000 A 
ATOM     20  C   UNL     1      26.089  25.895  27.152  0.00  0.00    +0.000 A 
ATOM     21  C   UNL     1      26.184  24.551  27.421  0.00  0.00    +0.000 A 
ATOM     22  C   UNL     1      25.978  23.663  26.387  0.00  0.00    +0.000 A 
ENDBRANCH   1  21
TORSDOF 2
ENDMDL
