MODEL 1
REMARK VINA RESULT:      -6.5      0.000      0.000
REMARK  Name = 
REMARK  1 active torsions:
REMARK  status: ('A' for Active; 'I' for Inactive)
REMARK    1  A    between atoms: C_11  and  C_13
REMARK                            x       y       z     vdW  Elec       q    Type
REMARK                         _______ _______ _______ _____ _____    ______ ____
ROOT
ATOM      1  C   UNL     1      30.232  24.257  27.833  0.00  0.00    +0.000 C 
ATOM      2  C   UNL     1      29.830  22.901  27.295  0.00  0.00    +0.000 C 
ATOM      3  C   UNL     1      30.930  21.932  27.576  0.00  0.00    +0.000 C 
ATOM      4  C   UNL     1      29.568  22.896  25.842  0.00  0.00    +0.000 C 
ATOM      5  C   UNL     1      28.753  24.276  25.439  0.00  0.00    +0.000 C 
ATOM      6  C   UNL     1      28.062  24.565  26.918  0.00  0.00    +0.000 C 
ATOM      7  C   UNL     1      27.468  23.241  27.226  0.00  0.00    +0.000 C 
ATOM      8  C   UNL     1      26.243  23.442  28.101  0.00  0.00    +0.000 C 
ATOM      9  C   UNL     1      27.004  22.683  25.917  0.00  0.00    +0.000 C 
ATOM     10  N   UNL     1      27.502  23.509  24.912  0.00  0.00    +0.000 N 
ATOM     11  C   UNL     1      27.077  23.729  23.611  0.00  0.00    +0.000 C 
ATOM     12  O   UNL     1      26.054  23.106  23.173  0.00  0.00    +0.000 OA
ATOM     13  C   UNL     1      28.530  22.423  27.925  0.00  0.00    +0.000 C 
ENDROOT
BRANCH  11  14
ATOM     14  C   UNL     1      27.716  24.636  22.676  0.00  0.00    +0.000 A 
ATOM     15  C   UNL     1      28.758  24.144  21.924  0.00  0.00    +0.000 A 
ATOM     16  C   UNL     1      29.430  24.933  21.004  0.00  0.00    +0.000 A 
ATOM     17  C   UNL     1      29.031  26.240  20.853  0.00  0.00    +0.000 A 
ATOM     18  N   UNL     1      29.716  27.080  19.903  0.00  0.00    +0.000 NA
ATOM     19  C   UNL     1      27.994  26.751  21.594  0.00  0.00    +0.000 A 
ATOM     20  C   UNL     1      27.337  25.944  22.507  0.00  0.00    +0.000 A 
ENDBRANCH  11  14
TORSDOF 1
ENDMDL
MODEL 2
REMARK VINA RESULT:      -6.4     22.092     24.520
REMARK  Name = 
REMARK  1 active torsions:
REMARK  status: ('A' for Active; 'I' for Inactive)
REMARK    1  A    between atoms: C_11  and  C_13
REMARK                            x       y       z     vdW  Elec       q    Type
REMARK                         _______ _______ _______ _____ _____    ______ ____
ROOT
ATOM      1  C   UNL     1      35.466   4.541  38.316  0.00  0.00    +0.000 C 
ATOM      2  C   UNL     1      34.249   5.221  37.728  0.00  0.00    +0.000 C 
ATOM      3  C   UNL     1      33.338   5.614  38.842  0.00  0.00    +0.000 C 
ATOM      4  C   UNL     1      33.492   4.368  36.790  0.00  0.00    +0.000 C 
ATOM      5  C   UNL     1      34.559   3.518  35.856  0.00  0.00    +0.000 C 
ATOM      6  C   UNL     1      35.838   4.567  35.971  0.00  0.00    +0.000 C 
ATOM      7  C   UNL     1      35.189   5.855  35.626  0.00  0.00    +0.000 C 
ATOM      8  C   UNL     1      36.218   6.768  34.981  0.00  0.00    +0.000 C 
ATOM      9  C   UNL     1      34.156   5.534  34.593  0.00  0.00    +0.000 C 
ATOM     10  N   UNL     1      34.055   4.146  34.521  0.00  0.00    +0.000 N 
ATOM     11  C   UNL     1      33.607   3.310  33.512  0.00  0.00    +0.000 C 
ATOM     12  O   UNL     1      33.193   3.817  32.416  0.00  0.00    +0.000 OA
ATOM     13  C   UNL     1      34.645   6.441  36.909  0.00  0.00    +0.000 C 
ENDROOT
BRANCH  11  14
ATOM     14  C   UNL     1      33.564   1.862  33.595  0.00  0.00    +0.000 A 
ATOM     15  C   UNL     1      34.301   1.150  32.677  0.00  0.00    +0.000 A 
ATOM     16  C   UNL     1      34.323  -0.236  32.676  0.00  0.00    +0.000 A 
ATOM     17  C   UNL     1      33.584  -0.899  33.627  0.00  0.00    +0.000 A 
ATOM     18  N   UNL     1      33.591  -2.340  33.645  0.00  0.00    +0.000 NA
ATOM     19  C   UNL     1      32.841  -0.208  34.552  0.00  0.00    +0.000 A 
ATOM     20  C   UNL     1      32.834   1.177  34.533  0.00  0.00    +0.000 A 
ENDBRANCH  11  14
TORSDOF 1
ENDMDL
MODEL 3
REMARK VINA RESULT:      -6.1     19.955     22.895
REMARK  Name = 
REMARK  1 active torsions:
REMARK  status: ('A' for Active; 'I' for Inactive)
REMARK    1  A    between atoms: C_11  and  C_13
REMARK                            x       y       z     vdW  Elec       q    Type
REMARK                         _______ _______ _______ _____ _____    ______ ____
ROOT
ATOM      1  C   UNL     1      19.295   7.061  42.340  0.00  0.00    +0.000 C 
ATOM      2  C   UNL     1      18.293   6.840  41.228  0.00  0.00    +0.000 C 
ATOM      3  C   UNL     1      18.117   5.372  41.029  0.00  0.00    +0.000 C 
ATOM      4  C   UNL     1      18.699   7.437  39.941  0.00  0.00    +0.000 C 
ATOM      5  C   UNL     1      19.381   8.915  40.225  0.00  0.00    +0.000 C 
ATOM      6  C   UNL     1      18.622   9.236  41.664  0.00  0.00    +0.000 C 
ATOM      7  C   UNL     1      17.207   8.965  41.313  0.00  0.00    +0.000 C 
ATOM      8  C   UNL     1      16.310   9.839  42.174  0.00  0.00    +0.000 C 
ATOM      9  C   UNL     1      17.042   9.407  39.893  0.00  0.00    +0.000 C 
ATOM     10  N   UNL     1      18.312   9.687  39.393  0.00  0.00    +0.000 N 
ATOM     11  C   UNL     1      18.729  10.492  38.344  0.00  0.00    +0.000 C 
ATOM     12  O   UNL     1      17.860  11.127  37.660  0.00  0.00    +0.000 OA
ATOM     13  C   UNL     1      16.957   7.494  41.555  0.00  0.00    +0.000 C 
ENDROOT
BRANCH  11  14
ATOM     14  C   UNL     1      20.111  10.679  37.945  0.00  0.00    +0.000 A 
ATOM     15  C   UNL     1      20.622   9.820  37.000  0.00  0.00    +0.000 A 
ATOM     16  C   UNL     1      21.931   9.920  36.555  0.00  0.00    +0.000 A 
ATOM     17  C   UNL     1      22.724  10.910  37.085  0.00  0.00    +0.000 A 
ATOM     18  N   UNL     1      24.089  11.032  36.638  0.00  0.00    +0.000 NA
ATOM     19  C   UNL     1      22.234  11.777  38.029  0.00  0.00    +0.000 A 
ATOM     20  C   UNL     1      20.923  11.658  38.459  0.00  0.00    +0.000 A 
ENDBRANCH  11  14
TORSDOF 1
ENDMDL
MODEL 4
REMARK VINA RESULT:      -6.0      1.604      2.375
REMARK  Name = 
REMARK  1 active torsions:
REMARK  status: ('A' for Active; 'I' for Inactive)
REMARK    1  A    between atoms: C_11  and  C_13
REMARK                            x       y       z     vdW  Elec       q    Type
REMARK                         _______ _______ _______ _____ _____    ______ ____
ROOT
ATOM      1  C   UNL     1      29.547  25.160  29.340  0.00  0.00    +0.000 C 
ATOM      2  C   UNL     1      28.912  23.787  29.360  0.00  0.00    +0.000 C 
ATOM      3  C   UNL     1      29.789  22.868  30.143  0.00  0.00    +0.000 C 
ATOM      4  C   UNL     1      28.717  23.207  28.016  0.00  0.00    +0.000 C 
ATOM      5  C   UNL     1      28.204  24.395  26.988  0.00  0.00    +0.000 C 
ATOM      6  C   UNL     1      27.520  25.390  28.124  0.00  0.00    +0.000 C 
ATOM      7  C   UNL     1      26.667  24.435  28.872  0.00  0.00    +0.000 C 
ATOM      8  C   UNL     1      25.468  25.181  29.433  0.00  0.00    +0.000 C 
ATOM      9  C   UNL     1      26.160  23.456  27.860  0.00  0.00    +0.000 C 
ATOM     10  N   UNL     1      26.851  23.686  26.674  0.00  0.00    +0.000 N 
ATOM     11  C   UNL     1      26.534  23.398  25.356  0.00  0.00    +0.000 C 
ATOM     12  O   UNL     1      25.429  22.818  25.091  0.00  0.00    +0.000 OA
ATOM     13  C   UNL     1      27.518  23.835  29.968  0.00  0.00    +0.000 C 
ENDROOT
BRANCH  11  14
ATOM     14  C   UNL     1      27.377  23.707  24.216  0.00  0.00    +0.000 A 
ATOM     15  C   UNL     1      26.870  24.562  23.264  0.00  0.00    +0.000 A 
ATOM     16  C   UNL     1      27.599  24.916  22.140  0.00  0.00    +0.000 A 
ATOM     17  C   UNL     1      28.860  24.390  21.990  0.00  0.00    +0.000 A 
ATOM     18  N   UNL     1      29.637  24.744  20.828  0.00  0.00    +0.000 NA
ATOM     19  C   UNL     1      29.385  23.535  22.927  0.00  0.00    +0.000 A 
ATOM     20  C   UNL     1      28.637  23.194  24.042  0.00  0.00    +0.000 A 
ENDBRANCH  11  14
TORSDOF 1
ENDMDL
MODEL 5
REMARK VINA RESULT:      -6.0     19.022     21.053
REMARK  Name = 
REMARK  1 active torsions:
REMARK  status: ('A' for Active; 'I' for Inactive)
REMARK    1  A    between atoms: C_11  and  C_13
REMARK                            x       y       z     vdW  Elec       q    Type
REMARK                         _______ _______ _______ _____ _____    ______ ____
ROOT
ATOM      1  C   UNL     1      21.139  12.863  40.458  0.00  0.00    +0.000 C 
ATOM      2  C   UNL     1      21.703  12.696  39.064  0.00  0.00    +0.000 C 
ATOM      3  C   UNL     1      22.553  13.882  38.749  0.00  0.00    +0.000 C 
ATOM      4  C   UNL     1      20.668  12.577  38.018  0.00  0.00    +0.000 C 
ATOM      5  C   UNL     1      19.438  11.631  38.585  0.00  0.00    +0.000 C 
ATOM      6  C   UNL     1      20.316  10.770  39.697  0.00  0.00    +0.000 C 
ATOM      7  C   UNL     1      21.470  10.327  38.877  0.00  0.00    +0.000 C 
ATOM      8  C   UNL     1      21.987   9.008  39.425  0.00  0.00    +0.000 C 
ATOM      9  C   UNL     1      20.927  10.068  37.507  0.00  0.00    +0.000 C 
ATOM     10  N   UNL     1      19.620  10.547  37.479  0.00  0.00    +0.000 N 
ATOM     11  C   UNL     1      18.541  10.224  36.671  0.00  0.00    +0.000 C 
ATOM     12  O   UNL     1      18.682   9.338  35.764  0.00  0.00    +0.000 OA
ATOM     13  C   UNL     1      22.517  11.415  38.951  0.00  0.00    +0.000 C 
ENDROOT
BRANCH  11  14
ATOM     14  C   UNL     1      17.225  10.824  36.770  0.00  0.00    +0.000 A 
ATOM     15  C   UNL     1      16.849  11.701  35.779  0.00  0.00    +0.000 A 
ATOM     16  C   UNL     1      15.612  12.325  35.787  0.00  0.00    +0.000 A 
ATOM     17  C   UNL     1      14.750  12.048  36.822  0.00  0.00    +0.000 A 
ATOM     18  N   UNL     1      13.458  12.686  36.851  0.00  0.00    +0.000 NA
ATOM     19  C   UNL     1      15.105  11.177  37.822  0.00  0.00    +0.000 A 
ATOM     20  C   UNL     1      16.347  10.566  37.793  0.00  0.00    +0.000 A 
ENDBRANCH  11  14
TORSDOF 1
ENDMDL
MODEL 6
REMARK VINA RESULT:      -5.9      2.524      6.196
REMARK  Name = 
REMARK  1 active torsions:
REMARK  status: ('A' for Active; 'I' for Inactive)
REMARK    1  A    between atoms: C_11  and  C_13
REMARK                            x       y       z     vdW  Elec       q    Type
REMARK                         _______ _______ _______ _____ _____    ______ ____
ROOT
ATOM      1  C   UNL     1      26.060  25.189  24.488  0.00  0.00    +0.000 C 
ATOM      2  C   UNL     1      26.565  24.016  23.677  0.00  0.00    +0.000 C 
ATOM      3  C   UNL     1      25.429  23.080  23.434  0.00  0.00    +0.000 C 
ATOM      4  C   UNL     1      27.651  23.264  24.338  0.00  0.00    +0.000 C 
ATOM      5  C   UNL     1      28.679  24.334  25.066  0.00  0.00    +0.000 C 
ATOM      6  C   UNL     1      28.358  25.642  24.098  0.00  0.00    +0.000 C 
ATOM      7  C   UNL     1      28.508  25.047  22.747  0.00  0.00    +0.000 C 
ATOM      8  C   UNL     1      28.966  26.127  21.782  0.00  0.00    +0.000 C 
ATOM      9  C   UNL     1      29.609  24.041  22.859  0.00  0.00    +0.000 C 
ATOM     10  N   UNL     1      29.908  23.898  24.212  0.00  0.00    +0.000 N 
ATOM     11  C   UNL     1      31.052  23.457  24.858  0.00  0.00    +0.000 C 
ATOM     12  O   UNL     1      32.062  23.099  24.166  0.00  0.00    +0.000 OA
ATOM     13  C   UNL     1      27.163  24.478  22.356  0.00  0.00    +0.000 C 
ENDROOT
BRANCH  11  14
ATOM     14  C   UNL     1      31.206  23.365  26.297  0.00  0.00    +0.000 A 
ATOM     15  C   UNL     1      31.858  24.396  26.935  0.00  0.00    +0.000 A 
ATOM     16  C   UNL     1      32.054  24.398  28.306  0.00  0.00    +0.000 A 
ATOM     17  C   UNL     1      31.576  23.333  29.033  0.00  0.00    +0.000 A 
ATOM     18  N   UNL     1      31.769  23.313  30.461  0.00  0.00    +0.000 NA
ATOM     19  C   UNL     1      30.923  22.294  28.417  0.00  0.00    +0.000 A 
ATOM     20  C   UNL     1      30.740  22.314  27.045  0.00  0.00    +0.000 A 
ENDBRANCH  11  14
TORSDOF 1
ENDMDL
MODEL 7
REMARK VINA RESULT:      -5.9     19.420     22.480
REMARK  Name = 
REMARK  1 active torsions:
REMARK  status: ('A' for Active; 'I' for Inactive)
REMARK    1  A    between atoms: C_11  and  C_13
REMARK                            x       y       z     vdW  Elec       q    Type
REMARK                         _______ _______ _______ _____ _____    ______ ____
ROOT
ATOM      1  C   UNL     1      23.514  11.098  40.009  0.00  0.00    +0.000 C 
ATOM      2  C   UNL     1      22.818  11.836  38.886  0.00  0.00    +0.000 C 
ATOM      3  C   UNL     1      23.079  13.297  39.042  0.00  0.00    +0.000 C 
ATOM      4  C   UNL     1      21.357  11.627  38.858  0.00  0.00    +0.000 C 
ATOM      5  C   UNL     1      21.035  10.042  39.198  0.00  0.00    +0.000 C 
ATOM      6  C   UNL     1      22.483   9.410  38.696  0.00  0.00    +0.000 C 
ATOM      7  C   UNL     1      22.616  10.019  37.351  0.00  0.00    +0.000 C 
ATOM      8  C   UNL     1      23.419   9.082  36.463  0.00  0.00    +0.000 C 
ATOM      9  C   UNL     1      21.230  10.095  36.793  0.00  0.00    +0.000 C 
ATOM     10  N   UNL     1      20.348   9.777  37.823  0.00  0.00    +0.000 N 
ATOM     11  C   UNL     1      19.049   9.295  37.803  0.00  0.00    +0.000 C 
ATOM     12  O   UNL     1      18.480   9.075  36.683  0.00  0.00    +0.000 OA
ATOM     13  C   UNL     1      23.305  11.353  37.527  0.00  0.00    +0.000 C 
ENDROOT
BRANCH  11  14
ATOM     14  C   UNL     1      18.254   9.011  38.983  0.00  0.00    +0.000 A 
ATOM     15  C   UNL     1      18.504   7.833  39.650  0.00  0.00    +0.000 A 
ATOM     16  C   UNL     1      17.797   7.474  40.787  0.00  0.00    +0.000 A 
ATOM     17  C   UNL     1      16.823   8.330  41.244  0.00  0.00    +0.000 A 
ATOM     18  N   UNL     1      16.074   7.978  42.424  0.00  0.00    +0.000 NA
ATOM     19  C   UNL     1      16.557   9.510  40.594  0.00  0.00    +0.000 A 
ATOM     20  C   UNL     1      17.277   9.847  39.460  0.00  0.00    +0.000 A 
ENDBRANCH  11  14
TORSDOF 1
ENDMDL
MODEL 8
REMARK VINA RESULT:      -5.9      2.400      6.298
REMARK  Name = 
REMARK  1 active torsions:
REMARK  status: ('A' for Active; 'I' for Inactive)
REMARK    1  A    between atoms: C_11  and  C_13
REMARK                            x       y       z     vdW  Elec       q    Type
REMARK                         _______ _______ _______ _____ _____    ______ ____
ROOT
ATOM      1  C   UNL     1      29.056  27.846  23.895  0.00  0.00    +0.000 C 
ATOM      2  C   UNL     1      27.763  27.518  23.181  0.00  0.00    +0.000 C 
ATOM      3  C   UNL     1      27.159  28.787  22.681  0.00  0.00    +0.000 C 
ATOM      4  C   UNL     1      26.771  26.839  24.039  0.00  0.00    +0.000 C 
ATOM      5  C   UNL     1      27.549  25.738  24.993  0.00  0.00    +0.000 C 
ATOM      6  C   UNL     1      28.860  25.482  24.011  0.00  0.00    +0.000 C 
ATOM      7  C   UNL     1      28.202  25.219  22.708  0.00  0.00    +0.000 C 
ATOM      8  C   UNL     1      29.084  24.293  21.888  0.00  0.00    +0.000 C 
ATOM      9  C   UNL     1      26.940  24.479  23.026  0.00  0.00    +0.000 C 
ATOM     10  N   UNL     1      26.769  24.521  24.408  0.00  0.00    +0.000 N 
ATOM     11  C   UNL     1      26.059  23.700  25.270  0.00  0.00    +0.000 C 
ATOM     12  O   UNL     1      25.419  22.702  24.798  0.00  0.00    +0.000 OA
ATOM     13  C   UNL     1      28.002  26.554  22.028  0.00  0.00    +0.000 C 
ENDROOT
BRANCH  11  14
ATOM     14  C   UNL     1      25.979  23.883  26.706  0.00  0.00    +0.000 A 
ATOM     15  C   UNL     1      26.748  23.060  27.497  0.00  0.00    +0.000 A 
ATOM     16  C   UNL     1      26.739  23.158  28.879  0.00  0.00    +0.000 A 
ATOM     17  C   UNL     1      25.933  24.109  29.458  0.00  0.00    +0.000 A 
ATOM     18  N   UNL     1      25.906  24.229  30.894  0.00  0.00    +0.000 NA
ATOM     19  C   UNL     1      25.157  24.940  28.688  0.00  0.00    +0.000 A 
ATOM     20  C   UNL     1      25.182  24.823  27.309  0.00  0.00    +0.000 A 
ENDBRANCH  11  14
TORSDOF 1
ENDMDL
MODEL 9
REMARK VINA RESULT:      -5.9     19.064     20.810
REMARK  Name = 
REMARK  1 active torsions:
REMARK  status: ('A' for Active; 'I' for Inactive)
REMARK    1  A    between atoms: C_11  and  C_13
REMARK                            x       y       z     vdW  Elec       q    Type
REMARK                         _______ _______ _______ _____ _____    ______ ____
ROOT
ATOM      1  C   UNL     1      22.533  13.359  38.366  0.00  0.00    +0.000 C 
ATOM      2  C   UNL     1      22.915  11.895  38.391  0.00  0.00    +0.000 C 
ATOM      3  C   UNL     1      24.260  11.743  37.762  0.00  0.00    +0.000 C 
ATOM      4  C   UNL     1      21.965  11.025  37.671  0.00  0.00    +0.000 C 
ATOM      5  C   UNL     1      20.425  11.534  37.985  0.00  0.00    +0.000 C 
ATOM      6  C   UNL     1      20.726  12.260  39.445  0.00  0.00    +0.000 C 
ATOM      7  C   UNL     1      21.468  11.189  40.155  0.00  0.00    +0.000 C 
ATOM      8  C   UNL     1      21.216  11.322  41.647  0.00  0.00    +0.000 C 
ATOM      9  C   UNL     1      20.860   9.898  39.704  0.00  0.00    +0.000 C 
ATOM     10  N   UNL     1      20.001  10.188  38.647  0.00  0.00    +0.000 N 
ATOM     11  C   UNL     1      18.908   9.504  38.139  0.00  0.00    +0.000 C 
ATOM     12  O   UNL     1      18.555   8.402  38.676  0.00  0.00    +0.000 OA
ATOM     13  C   UNL     1      22.932  11.356  39.815  0.00  0.00    +0.000 C 
ENDROOT
BRANCH  11  14
ATOM     14  C   UNL     1      18.106   9.946  37.014  0.00  0.00    +0.000 A 
ATOM     15  C   UNL     1      18.506   9.558  35.756  0.00  0.00    +0.000 A 
ATOM     16  C   UNL     1      17.805   9.931  34.620  0.00  0.00    +0.000 A 
ATOM     17  C   UNL     1      16.683  10.710  34.775  0.00  0.00    +0.000 A 
ATOM     18  N   UNL     1      15.938  11.111  33.607  0.00  0.00    +0.000 NA
ATOM     19  C   UNL     1      16.267  11.109  36.021  0.00  0.00    +0.000 A 
ATOM     20  C   UNL     1      16.983  10.724  37.141  0.00  0.00    +0.000 A 
ENDBRANCH  11  14
TORSDOF 1
ENDMDL
MODEL 10
REMARK VINA RESULT:      -5.8      3.243      5.869
REMARK  Name = 
REMARK  1 active torsions:
REMARK  status: ('A' for Active; 'I' for Inactive)
REMARK    1  A    between atoms: C_11  and  C_13
REMARK                            x       y       z     vdW  Elec       q    Type
REMARK                         _______ _______ _______ _____ _____    ______ ____
ROOT
ATOM      1  C   UNL     1      29.967  24.779  24.878  0.00  0.00    +0.000 C 
ATOM      2  C   UNL     1      29.304  23.420  24.836  0.00  0.00    +0.000 C 
ATOM      3  C   UNL     1      29.085  23.040  23.410  0.00  0.00    +0.000 C 
ATOM      4  C   UNL     1      28.002  23.376  25.532  0.00  0.00    +0.000 C 
ATOM      5  C   UNL     1      28.109  24.257  26.927  0.00  0.00    +0.000 C 
ATOM      6  C   UNL     1      29.747  24.120  27.149  0.00  0.00    +0.000 C 
ATOM      7  C   UNL     1      29.938  22.657  27.008  0.00  0.00    +0.000 C 
ATOM      8  C   UNL     1      31.132  22.233  27.847  0.00  0.00    +0.000 C 
ATOM      9  C   UNL     1      28.720  22.022  27.600  0.00  0.00    +0.000 C 
ATOM     10  N   UNL     1      27.798  23.037  27.847  0.00  0.00    +0.000 N 
ATOM     11  C   UNL     1      26.728  23.112  28.724  0.00  0.00    +0.000 C 
ATOM     12  O   UNL     1      26.468  22.118  29.480  0.00  0.00    +0.000 OA
ATOM     13  C   UNL     1      30.155  22.371  25.539  0.00  0.00    +0.000 C 
ENDROOT
BRANCH  11  14
ATOM     14  C   UNL     1      25.851  24.259  28.861  0.00  0.00    +0.000 A 
ATOM     15  C   UNL     1      25.167  24.675  27.741  0.00  0.00    +0.000 A 
ATOM     16  C   UNL     1      24.306  25.760  27.772  0.00  0.00    +0.000 A 
ATOM     17  C   UNL     1      24.144  26.427  28.963  0.00  0.00    +0.000 A 
ATOM     18  N   UNL     1      23.254  27.560  29.020  0.00  0.00    +0.000 NA
ATOM     19  C   UNL     1      24.817  26.030  30.092  0.00  0.00    +0.000 A 
ATOM     20  C   UNL     1      25.672  24.943  30.037  0.00  0.00    +0.000 A 
ENDBRANCH  11  14
TORSDOF 1
ENDMDL
