MODEL 1
REMARK VINA RESULT:      -7.4      0.000      0.000
REMARK  Name = 
REMARK  2 active torsions:
REMARK  status: ('A' for Active; 'I' for Inactive)
REMARK    1  A    between atoms: C_5  and  N_6
REMARK    2  A    between atoms: C_7  and  C_9
REMARK                            x       y       z     vdW  Elec       q    Type
REMARK                         _______ _______ _______ _____ _____    ______ ____
ROOT
ATOM      1  N   UNL     1      17.016  11.308  36.122  0.00  0.00    +0.000 NA
ATOM      2  C   UNL     1      16.681  10.602  34.935  0.00  0.00    +0.000 C 
ATOM      3  O   UNL     1      16.922   9.382  34.921  0.00  0.00    +0.000 OA
ENDROOT
BRANCH   1   8
ATOM      4  C   UNL     1      19.413   8.517  40.459  0.00  0.00    +0.000 C 
ATOM      5  C   UNL     1      18.818   9.239  39.320  0.00  0.00    +0.000 A 
ATOM      6  C   UNL     1      19.555   9.512  38.187  0.00  0.00    +0.000 A 
ATOM      7  C   UNL     1      18.922  10.192  37.167  0.00  0.00    +0.000 A 
ATOM      8  C   UNL     1      17.606  10.602  37.231  0.00  0.00    +0.000 A 
ATOM      9  C   UNL     1      16.899  10.318  38.366  0.00  0.00    +0.000 A 
ATOM     10  C   UNL     1      15.476  10.767  38.425  0.00  0.00    +0.000 C 
ATOM     11  C   UNL     1      17.486   9.638  39.420  0.00  0.00    +0.000 A 
ENDBRANCH   1   8
BRANCH   2  12
ATOM     12  C   UNL     1      16.087  11.227  33.774  0.00  0.00    +0.000 A 
ATOM     13  C   UNL     1      16.420  10.783  32.518  0.00  0.00    +0.000 A 
ATOM     14  C   UNL     1      15.889  11.335  31.373  0.00  0.00    +0.000 A 
ATOM     15  C   UNL     1      14.990  12.369  31.486  0.00  0.00    +0.000 A 
ATOM     16  C   UNL     1      14.449  12.927  30.212  0.00  0.00    +0.000 C 
ATOM     17  C   UNL     1      14.641  12.829  32.716  0.00  0.00    +0.000 A 
ATOM     18  N   UNL     1      13.702  13.907  32.796  0.00  0.00    +0.000 NA
ATOM     19  C   UNL     1      15.185  12.262  33.874  0.00  0.00    +0.000 A 
ENDBRANCH   2  12
TORSDOF 2
ENDMDL
MODEL 2
REMARK VINA RESULT:      -7.2      1.797      7.462
REMARK  Name = 
REMARK  2 active torsions:
REMARK  status: ('A' for Active; 'I' for Inactive)
REMARK    1  A    between atoms: C_5  and  N_6
REMARK    2  A    between atoms: C_7  and  C_9
REMARK                            x       y       z     vdW  Elec       q    Type
REMARK                         _______ _______ _______ _____ _____    ______ ____
ROOT
ATOM      1  N   UNL     1      15.881  11.228  35.752  0.00  0.00    +0.000 NA
ATOM      2  C   UNL     1      16.943  11.811  36.494  0.00  0.00    +0.000 C 
ATOM      3  O   UNL     1      17.346  12.925  36.116  0.00  0.00    +0.000 OA
ENDROOT
BRANCH   1   8
ATOM      4  C   UNL     1      13.661  14.046  31.338  0.00  0.00    +0.000 C 
ATOM      5  C   UNL     1      14.221  13.333  32.501  0.00  0.00    +0.000 A 
ATOM      6  C   UNL     1      13.859  13.675  33.787  0.00  0.00    +0.000 A 
ATOM      7  C   UNL     1      14.429  12.958  34.818  0.00  0.00    +0.000 A 
ATOM      8  C   UNL     1      15.330  11.931  34.621  0.00  0.00    +0.000 A 
ATOM      9  C   UNL     1      15.670  11.613  33.336  0.00  0.00    +0.000 A 
ATOM     10  C   UNL     1      16.645  10.501  33.134  0.00  0.00    +0.000 C 
ATOM     11  C   UNL     1      15.127  12.302  32.264  0.00  0.00    +0.000 A 
ENDBRANCH   1   8
BRANCH   2  12
ATOM     12  C   UNL     1      17.558  11.180  37.641  0.00  0.00    +0.000 A 
ATOM     13  C   UNL     1      16.842  10.274  38.384  0.00  0.00    +0.000 A 
ATOM     14  C   UNL     1      17.371   9.639  39.486  0.00  0.00    +0.000 A 
ATOM     15  C   UNL     1      18.664   9.919  39.861  0.00  0.00    +0.000 A 
ATOM     16  C   UNL     1      19.182   9.202  41.063  0.00  0.00    +0.000 C 
ATOM     17  C   UNL     1      19.397  10.812  39.145  0.00  0.00    +0.000 A 
ATOM     18  N   UNL     1      20.739  11.080  39.564  0.00  0.00    +0.000 NA
ATOM     19  C   UNL     1      18.851  11.452  38.025  0.00  0.00    +0.000 A 
ENDBRANCH   2  12
TORSDOF 2
ENDMDL
MODEL 3
REMARK VINA RESULT:      -7.2      3.573      4.618
REMARK  Name = 
REMARK  2 active torsions:
REMARK  status: ('A' for Active; 'I' for Inactive)
REMARK    1  A    between atoms: C_5  and  N_6
REMARK    2  A    between atoms: C_7  and  C_9
REMARK                            x       y       z     vdW  Elec       q    Type
REMARK                         _______ _______ _______ _____ _____    ______ ____
ROOT
ATOM      1  N   UNL     1      17.629  10.623  37.767  0.00  0.00    +0.000 NA
ATOM      2  C   UNL     1      16.843  11.618  37.126  0.00  0.00    +0.000 C 
ATOM      3  O   UNL     1      17.457  12.494  36.491  0.00  0.00    +0.000 OA
ENDROOT
BRANCH   1   8
ATOM      4  C   UNL     1      23.301  10.850  37.405  0.00  0.00    +0.000 C 
ATOM      5  C   UNL     1      21.831  10.810  37.522  0.00  0.00    +0.000 A 
ATOM      6  C   UNL     1      21.173  11.565  38.470  0.00  0.00    +0.000 A 
ATOM      7  C   UNL     1      19.796  11.470  38.512  0.00  0.00    +0.000 A 
ATOM      8  C   UNL     1      19.065  10.667  37.660  0.00  0.00    +0.000 A 
ATOM      9  C   UNL     1      19.745   9.930  36.731  0.00  0.00    +0.000 A 
ATOM     10  C   UNL     1      18.943   9.065  35.815  0.00  0.00    +0.000 C 
ATOM     11  C   UNL     1      21.126   9.989  36.646  0.00  0.00    +0.000 A 
ENDBRANCH   1   8
BRANCH   2  12
ATOM     12  C   UNL     1      15.399  11.654  37.178  0.00  0.00    +0.000 A 
ATOM     13  C   UNL     1      14.707  12.472  36.320  0.00  0.00    +0.000 A 
ATOM     14  C   UNL     1      13.332  12.550  36.319  0.00  0.00    +0.000 A 
ATOM     15  C   UNL     1      12.619  11.783  37.211  0.00  0.00    +0.000 A 
ATOM     16  C   UNL     1      11.133  11.912  37.165  0.00  0.00    +0.000 C 
ATOM     17  C   UNL     1      13.277  10.964  38.073  0.00  0.00    +0.000 A 
ATOM     18  N   UNL     1      12.503  10.180  38.987  0.00  0.00    +0.000 NA
ATOM     19  C   UNL     1      14.675  10.890  38.065  0.00  0.00    +0.000 A 
ENDBRANCH   2  12
TORSDOF 2
ENDMDL
MODEL 4
REMARK VINA RESULT:      -6.7      1.552      7.301
REMARK  Name = 
REMARK  2 active torsions:
REMARK  status: ('A' for Active; 'I' for Inactive)
REMARK    1  A    between atoms: C_5  and  N_6
REMARK    2  A    between atoms: C_7  and  C_9
REMARK                            x       y       z     vdW  Elec       q    Type
REMARK                         _______ _______ _______ _____ _____    ______ ____
ROOT
ATOM      1  N   UNL     1      17.104  11.334  35.568  0.00  0.00    +0.000 NA
ATOM      2  C   UNL     1      17.406  10.073  36.149  0.00  0.00    +0.000 C 
ATOM      3  O   UNL     1      17.060   9.064  35.509  0.00  0.00    +0.000 OA
ENDROOT
BRANCH   1   8
ATOM      4  C   UNL     1      14.494  11.519  30.517  0.00  0.00    +0.000 C 
ATOM      5  C   UNL     1      15.192  11.454  31.814  0.00  0.00    +0.000 A 
ATOM      6  C   UNL     1      16.371  10.752  31.953  0.00  0.00    +0.000 A 
ATOM      7  C   UNL     1      16.960  10.741  33.201  0.00  0.00    +0.000 A 
ATOM      8  C   UNL     1      16.428  11.392  34.296  0.00  0.00    +0.000 A 
ATOM      9  C   UNL     1      15.259  12.080  34.129  0.00  0.00    +0.000 A 
ATOM     10  C   UNL     1      14.693  12.779  35.321  0.00  0.00    +0.000 C 
ATOM     11  C   UNL     1      14.627  12.123  32.898  0.00  0.00    +0.000 A 
ENDBRANCH   1   8
BRANCH   2  12
ATOM     12  C   UNL     1      18.079   9.917  37.419  0.00  0.00    +0.000 A 
ATOM     13  C   UNL     1      17.352   9.949  38.582  0.00  0.00    +0.000 A 
ATOM     14  C   UNL     1      17.934   9.806  39.823  0.00  0.00    +0.000 A 
ATOM     15  C   UNL     1      19.295   9.625  39.905  0.00  0.00    +0.000 A 
ATOM     16  C   UNL     1      19.868   9.477  41.275  0.00  0.00    +0.000 C 
ATOM     17  C   UNL     1      20.040   9.590  38.770  0.00  0.00    +0.000 A 
ATOM     18  N   UNL     1      21.454   9.400  38.892  0.00  0.00    +0.000 NA
ATOM     19  C   UNL     1      19.440   9.735  37.513  0.00  0.00    +0.000 A 
ENDBRANCH   2  12
TORSDOF 2
ENDMDL
MODEL 5
REMARK VINA RESULT:      -6.7     21.470     22.926
REMARK  Name = 
REMARK  2 active torsions:
REMARK  status: ('A' for Active; 'I' for Inactive)
REMARK    1  A    between atoms: C_5  and  N_6
REMARK    2  A    between atoms: C_7  and  C_9
REMARK                            x       y       z     vdW  Elec       q    Type
REMARK                         _______ _______ _______ _____ _____    ______ ____
ROOT
ATOM      1  N   UNL     1      22.560  -7.358  23.618  0.00  0.00    +0.000 NA
ATOM      2  C   UNL     1      22.120  -7.834  24.882  0.00  0.00    +0.000 C 
ATOM      3  O   UNL     1      22.912  -8.551  25.519  0.00  0.00    +0.000 OA
ENDROOT
BRANCH   1   8
ATOM      4  C   UNL     1      27.763  -8.710  21.759  0.00  0.00    +0.000 C 
ATOM      5  C   UNL     1      26.426  -8.338  22.257  0.00  0.00    +0.000 A 
ATOM      6  C   UNL     1      26.260  -7.277  23.123  0.00  0.00    +0.000 A 
ATOM      7  C   UNL     1      24.975  -6.995  23.541  0.00  0.00    +0.000 A 
ATOM      8  C   UNL     1      23.870  -7.716  23.136  0.00  0.00    +0.000 A 
ATOM      9  C   UNL     1      24.065  -8.762  22.278  0.00  0.00    +0.000 A 
ATOM     10  C   UNL     1      22.862  -9.535  21.847  0.00  0.00    +0.000 C 
ATOM     11  C   UNL     1      25.333  -9.087  21.827  0.00  0.00    +0.000 A 
ENDBRANCH   1   8
BRANCH   2  12
ATOM     12  C   UNL     1      20.823  -7.528  25.445  0.00  0.00    +0.000 A 
ATOM     13  C   UNL     1      19.982  -8.549  25.809  0.00  0.00    +0.000 A 
ATOM     14  C   UNL     1      18.735  -8.323  26.351  0.00  0.00    +0.000 A 
ATOM     15  C   UNL     1      18.314  -7.028  26.537  0.00  0.00    +0.000 A 
ATOM     16  C   UNL     1      16.955  -6.846  27.127  0.00  0.00    +0.000 C 
ATOM     17  C   UNL     1      19.125  -5.996  26.187  0.00  0.00    +0.000 A 
ATOM     18  N   UNL     1      18.654  -4.661  26.395  0.00  0.00    +0.000 NA
ATOM     19  C   UNL     1      20.391  -6.235  25.637  0.00  0.00    +0.000 A 
ENDBRANCH   2  12
TORSDOF 2
ENDMDL
MODEL 6
REMARK VINA RESULT:      -6.7      2.867      6.610
REMARK  Name = 
REMARK  2 active torsions:
REMARK  status: ('A' for Active; 'I' for Inactive)
REMARK    1  A    between atoms: C_5  and  N_6
REMARK    2  A    between atoms: C_7  and  C_9
REMARK                            x       y       z     vdW  Elec       q    Type
REMARK                         _______ _______ _______ _____ _____    ______ ____
ROOT
ATOM      1  N   UNL     1      16.789  11.866  37.268  0.00  0.00    +0.000 NA
ATOM      2  C   UNL     1      17.661  10.823  37.679  0.00  0.00    +0.000 C 
ATOM      3  O   UNL     1      17.130   9.773  38.082  0.00  0.00    +0.000 OA
ENDROOT
BRANCH   1   8
ATOM      4  C   UNL     1      11.166  11.069  37.593  0.00  0.00    +0.000 C 
ATOM      5  C   UNL     1      12.627  11.265  37.536  0.00  0.00    +0.000 A 
ATOM      6  C   UNL     1      13.432  10.920  38.601  0.00  0.00    +0.000 A 
ATOM      7  C   UNL     1      14.789  11.136  38.467  0.00  0.00    +0.000 A 
ATOM      8  C   UNL     1      15.362  11.672  37.332  0.00  0.00    +0.000 A 
ATOM      9  C   UNL     1      14.540  12.004  36.292  0.00  0.00    +0.000 A 
ATOM     10  C   UNL     1      15.171  12.583  35.069  0.00  0.00    +0.000 C 
ATOM     11  C   UNL     1      13.171  11.808  36.375  0.00  0.00    +0.000 A 
ENDBRANCH   1   8
BRANCH   2  12
ATOM     12  C   UNL     1      19.103  10.928  37.651  0.00  0.00    +0.000 A 
ATOM     13  C   UNL     1      19.846   9.934  37.063  0.00  0.00    +0.000 A 
ATOM     14  C   UNL     1      21.222   9.976  37.002  0.00  0.00    +0.000 A 
ATOM     15  C   UNL     1      21.881  11.051  37.550  0.00  0.00    +0.000 A 
ATOM     16  C   UNL     1      23.371  11.040  37.456  0.00  0.00    +0.000 C 
ATOM     17  C   UNL     1      21.173  12.050  38.139  0.00  0.00    +0.000 A 
ATOM     18  N   UNL     1      21.892  13.154  38.699  0.00  0.00    +0.000 NA
ATOM     19  C   UNL     1      19.774  11.999  38.195  0.00  0.00    +0.000 A 
ENDBRANCH   2  12
TORSDOF 2
ENDMDL
MODEL 7
REMARK VINA RESULT:      -6.6     18.430     20.966
REMARK  Name = 
REMARK  2 active torsions:
REMARK  status: ('A' for Active; 'I' for Inactive)
REMARK    1  A    between atoms: C_5  and  N_6
REMARK    2  A    between atoms: C_7  and  C_9
REMARK                            x       y       z     vdW  Elec       q    Type
REMARK                         _______ _______ _______ _____ _____    ______ ____
ROOT
ATOM      1  N   UNL     1      33.955   0.178  34.433  0.00  0.00    +0.000 NA
ATOM      2  C   UNL     1      32.786  -0.624  34.528  0.00  0.00    +0.000 C 
ATOM      3  O   UNL     1      31.712  -0.029  34.719  0.00  0.00    +0.000 OA
ENDROOT
BRANCH   1   8
ATOM      4  C   UNL     1      33.532   5.835  34.856  0.00  0.00    +0.000 C 
ATOM      5  C   UNL     1      33.635   4.370  34.717  0.00  0.00    +0.000 A 
ATOM      6  C   UNL     1      33.443   3.756  33.498  0.00  0.00    +0.000 A 
ATOM      7  C   UNL     1      33.558   2.382  33.454  0.00  0.00    +0.000 A 
ATOM      8  C   UNL     1      33.852   1.610  34.560  0.00  0.00    +0.000 A 
ATOM      9  C   UNL     1      34.037   2.245  35.756  0.00  0.00    +0.000 A 
ATOM     10  C   UNL     1      34.355   1.401  36.945  0.00  0.00    +0.000 C 
ATOM     11  C   UNL     1      33.934   3.623  35.855  0.00  0.00    +0.000 A 
ENDBRANCH   1   8
BRANCH   2  12
ATOM     12  C   UNL     1      32.794  -2.066  34.414  0.00  0.00    +0.000 A 
ATOM     13  C   UNL     1      32.107  -2.823  35.329  0.00  0.00    +0.000 A 
ATOM     14  C   UNL     1      32.074  -4.200  35.274  0.00  0.00    +0.000 A 
ATOM     15  C   UNL     1      32.754  -4.844  34.267  0.00  0.00    +0.000 A 
ATOM     16  C   UNL     1      32.683  -6.335  34.261  0.00  0.00    +0.000 C 
ATOM     17  C   UNL     1      33.443  -4.120  33.347  0.00  0.00    +0.000 A 
ATOM     18  N   UNL     1      34.139  -4.823  32.313  0.00  0.00    +0.000 NA
ATOM     19  C   UNL     1      33.470  -2.721  33.410  0.00  0.00    +0.000 A 
ENDBRANCH   2  12
TORSDOF 2
ENDMDL
MODEL 8
REMARK VINA RESULT:      -6.6      3.466      7.235
REMARK  Name = 
REMARK  2 active torsions:
REMARK  status: ('A' for Active; 'I' for Inactive)
REMARK    1  A    between atoms: C_5  and  N_6
REMARK    2  A    between atoms: C_7  and  C_9
REMARK                            x       y       z     vdW  Elec       q    Type
REMARK                         _______ _______ _______ _____ _____    ______ ____
ROOT
ATOM      1  N   UNL     1      18.803  11.233  37.890  0.00  0.00    +0.000 NA
ATOM      2  C   UNL     1      19.488  10.192  37.207  0.00  0.00    +0.000 C 
ATOM      3  O   UNL     1      18.839   9.558  36.356  0.00  0.00    +0.000 OA
ENDROOT
BRANCH   1   8
ATOM      4  C   UNL     1      13.378  12.361  36.605  0.00  0.00    +0.000 C 
ATOM      5  C   UNL     1      14.793  12.088  36.917  0.00  0.00    +0.000 A 
ATOM      6  C   UNL     1      15.808  12.741  36.249  0.00  0.00    +0.000 A 
ATOM      7  C   UNL     1      17.105  12.427  36.602  0.00  0.00    +0.000 A 
ATOM      8  C   UNL     1      17.423  11.505  37.578  0.00  0.00    +0.000 A 
ATOM      9  C   UNL     1      16.397  10.874  38.224  0.00  0.00    +0.000 A 
ATOM     10  C   UNL     1      16.753   9.878  39.278  0.00  0.00    +0.000 C 
ATOM     11  C   UNL     1      15.077  11.152  37.909  0.00  0.00    +0.000 A 
ENDBRANCH   1   8
BRANCH   2  12
ATOM     12  C   UNL     1      20.870   9.847  37.454  0.00  0.00    +0.000 A 
ATOM     13  C   UNL     1      21.257   9.445  38.708  0.00  0.00    +0.000 A 
ATOM     14  C   UNL     1      22.558   9.102  39.007  0.00  0.00    +0.000 A 
ATOM     15  C   UNL     1      23.508   9.164  38.015  0.00  0.00    +0.000 A 
ATOM     16  C   UNL     1      24.899   8.782  38.399  0.00  0.00    +0.000 C 
ATOM     17  C   UNL     1      23.155   9.558  36.764  0.00  0.00    +0.000 A 
ATOM     18  N   UNL     1      24.171   9.611  35.757  0.00  0.00    +0.000 NA
ATOM     19  C   UNL     1      21.830   9.904  36.470  0.00  0.00    +0.000 A 
ENDBRANCH   2  12
TORSDOF 2
ENDMDL
MODEL 9
REMARK VINA RESULT:      -6.5     18.458     19.956
REMARK  Name = 
REMARK  2 active torsions:
REMARK  status: ('A' for Active; 'I' for Inactive)
REMARK    1  A    between atoms: C_5  and  N_6
REMARK    2  A    between atoms: C_7  and  C_9
REMARK                            x       y       z     vdW  Elec       q    Type
REMARK                         _______ _______ _______ _____ _____    ______ ____
ROOT
ATOM      1  N   UNL     1      33.045   1.390  34.498  0.00  0.00    +0.000 NA
ATOM      2  C   UNL     1      33.820   1.997  35.522  0.00  0.00    +0.000 C 
ATOM      3  O   UNL     1      34.427   1.234  36.294  0.00  0.00    +0.000 OA
ENDROOT
BRANCH   1   8
ATOM      4  C   UNL     1      32.796  -4.283  34.160  0.00  0.00    +0.000 C 
ATOM      5  C   UNL     1      32.841  -2.813  34.270  0.00  0.00    +0.000 A 
ATOM      6  C   UNL     1      32.108  -2.149  35.231  0.00  0.00    +0.000 A 
ATOM      7  C   UNL     1      32.207  -0.773  35.267  0.00  0.00    +0.000 A 
ATOM      8  C   UNL     1      32.995  -0.047  34.397  0.00  0.00    +0.000 A 
ATOM      9  C   UNL     1      33.710  -0.731  33.454  0.00  0.00    +0.000 A 
ATOM     10  C   UNL     1      34.559   0.064  32.518  0.00  0.00    +0.000 C 
ATOM     11  C   UNL     1      33.647  -2.113  33.376  0.00  0.00    +0.000 A 
ENDBRANCH   1   8
BRANCH   2  12
ATOM     12  C   UNL     1      33.929   3.429  35.700  0.00  0.00    +0.000 A 
ATOM     13  C   UNL     1      34.092   4.240  34.605  0.00  0.00    +0.000 A 
ATOM     14  C   UNL     1      34.201   5.609  34.708  0.00  0.00    +0.000 A 
ATOM     15  C   UNL     1      34.145   6.191  35.953  0.00  0.00    +0.000 A 
ATOM     16  C   UNL     1      34.270   7.677  36.002  0.00  0.00    +0.000 C 
ATOM     17  C   UNL     1      33.984   5.413  37.055  0.00  0.00    +0.000 A 
ATOM     18  N   UNL     1      33.930   6.053  38.335  0.00  0.00    +0.000 NA
ATOM     19  C   UNL     1      33.873   4.022  36.941  0.00  0.00    +0.000 A 
ENDBRANCH   2  12
TORSDOF 2
ENDMDL
MODEL 10
REMARK VINA RESULT:      -6.4     18.771     20.847
REMARK  Name = 
REMARK  2 active torsions:
REMARK  status: ('A' for Active; 'I' for Inactive)
REMARK    1  A    between atoms: C_5  and  N_6
REMARK    2  A    between atoms: C_7  and  C_9
REMARK                            x       y       z     vdW  Elec       q    Type
REMARK                         _______ _______ _______ _____ _____    ______ ____
ROOT
ATOM      1  N   UNL     1      30.164  21.880  27.030  0.00  0.00    +0.000 NA
ATOM      2  C   UNL     1      30.525  22.696  28.135  0.00  0.00    +0.000 C 
ATOM      3  O   UNL     1      30.046  23.843  28.165  0.00  0.00    +0.000 OA
ENDROOT
BRANCH   1   8
ATOM      4  C   UNL     1      26.621  23.917  23.073  0.00  0.00    +0.000 C 
ATOM      5  C   UNL     1      27.516  23.384  24.117  0.00  0.00    +0.000 A 
ATOM      6  C   UNL     1      27.015  22.929  25.318  0.00  0.00    +0.000 A 
ATOM      7  C   UNL     1      27.921  22.446  26.241  0.00  0.00    +0.000 A 
ATOM      8  C   UNL     1      29.282  22.399  26.015  0.00  0.00    +0.000 A 
ATOM      9  C   UNL     1      29.750  22.858  24.816  0.00  0.00    +0.000 A 
ATOM     10  C   UNL     1      31.224  22.804  24.583  0.00  0.00    +0.000 C 
ATOM     11  C   UNL     1      28.884  23.353  23.855  0.00  0.00    +0.000 A 
ENDBRANCH   1   8
BRANCH   2  12
ATOM     12  C   UNL     1      31.403  22.260  29.199  0.00  0.00    +0.000 A 
ATOM     13  C   UNL     1      32.729  22.026  28.932  0.00  0.00    +0.000 A 
ATOM     14  C   UNL     1      33.616  21.611  29.901  0.00  0.00    +0.000 A 
ATOM     15  C   UNL     1      33.161  21.421  31.185  0.00  0.00    +0.000 A 
ATOM     16  C   UNL     1      34.167  20.969  32.190  0.00  0.00    +0.000 C 
ATOM     17  C   UNL     1      31.854  21.645  31.478  0.00  0.00    +0.000 A 
ATOM     18  N   UNL     1      31.415  21.438  32.825  0.00  0.00    +0.000 NA
ATOM     19  C   UNL     1      30.959  22.068  30.487  0.00  0.00    +0.000 A 
ENDBRANCH   2  12
TORSDOF 2
ENDMDL
