MODEL 1
REMARK VINA RESULT:      -5.5      0.000      0.000
REMARK  Name = 
REMARK  4 active torsions:
REMARK  status: ('A' for Active; 'I' for Inactive)
REMARK    1  A    between atoms: C_2  and  C_3
REMARK    2  A    between atoms: C_9  and  C_10
REMARK    3  A    between atoms: N_12  and  C_13
REMARK    4  A    between atoms: C_13  and  C_14
REMARK                            x       y       z     vdW  Elec       q    Type
REMARK                         _______ _______ _______ _____ _____    ______ ____
ROOT
ATOM      1  C   UNL     1      27.283  23.694  27.646  0.00  0.00    +0.000 C 
ATOM      2  O   UNL     1      26.953  24.880  27.540  0.00  0.00    +0.000 OA
ATOM      3  N   UNL     1      26.859  22.798  26.645  0.00  0.00    +0.000 NA
ENDROOT
BRANCH   1  10
ATOM      4  C   UNL     1      29.448  23.153  28.774  0.00  0.00    +0.000 A 
ATOM      5  C   UNL     1      30.086  22.758  29.915  0.00  0.00    +0.000 A 
ATOM      6  C   UNL     1      31.576  22.554  30.109  0.00  0.00    +0.000 C 
ATOM      7  S   UNL     1      28.815  22.560  31.024  0.00  0.00    +0.000 S 
ATOM      8  C   UNL     1      27.506  22.982  30.019  0.00  0.00    +0.000 A 
ATOM      9  N   UNL     1      26.090  23.027  30.342  0.00  0.00    +0.000 NA
ATOM     10  C   UNL     1      28.103  23.274  28.817  0.00  0.00    +0.000 A 
BRANCH   4  12
ATOM     11  C   UNL     1      30.457  22.156  26.736  0.00  0.00    +0.000 C 
ATOM     12  C   UNL     1      30.250  23.441  27.505  0.00  0.00    +0.000 C 
ENDBRANCH   4  12
ENDBRANCH   1  10
BRANCH   3  13
ATOM     13  C   UNL     1      26.073  23.117  25.492  0.00  0.00    +0.000 C 
BRANCH  13  14
ATOM     14  C   UNL     1      26.839  23.319  24.261  0.00  0.00    +0.000 A 
ATOM     15  C   UNL     1      28.210  23.367  24.195  0.00  0.00    +0.000 A 
ATOM     16  C   UNL     1      28.872  23.557  23.009  0.00  0.00    +0.000 A 
ATOM     17  C   UNL     1      28.115  23.704  21.860  0.00  0.00    +0.000 A 
ATOM     18  N   UNL     1      26.787  23.659  21.926  0.00  0.00    +0.000 NA
ATOM     19  C   UNL     1      26.145  23.473  23.081  0.00  0.00    +0.000 A 
ENDBRANCH  13  14
ENDBRANCH   3  13
TORSDOF 4
ENDMDL
MODEL 2
REMARK VINA RESULT:      -5.3     14.670     17.522
REMARK  Name = 
REMARK  4 active torsions:
REMARK  status: ('A' for Active; 'I' for Inactive)
REMARK    1  A    between atoms: C_2  and  C_3
REMARK    2  A    between atoms: C_9  and  C_10
REMARK    3  A    between atoms: N_12  and  C_13
REMARK    4  A    between atoms: C_13  and  C_14
REMARK                            x       y       z     vdW  Elec       q    Type
REMARK                         _______ _______ _______ _____ _____    ______ ____
ROOT
ATOM      1  C   UNL     1      31.816  21.209  10.739  0.00  0.00    +0.000 C 
ATOM      2  O   UNL     1      31.944  20.256  11.515  0.00  0.00    +0.000 OA
ATOM      3  N   UNL     1      31.169  22.366  11.214  0.00  0.00    +0.000 NA
ENDROOT
BRANCH   1  10
ATOM      4  C   UNL     1      33.613  21.421   9.012  0.00  0.00    +0.000 A 
ATOM      5  C   UNL     1      33.979  21.266   7.706  0.00  0.00    +0.000 A 
ATOM      6  C   UNL     1      35.332  21.569   7.090  0.00  0.00    +0.000 C 
ATOM      7  S   UNL     1      32.570  20.664   6.972  0.00  0.00    +0.000 S 
ATOM      8  C   UNL     1      31.549  20.622   8.336  0.00  0.00    +0.000 A 
ATOM      9  N   UNL     1      30.162  20.198   8.420  0.00  0.00    +0.000 NA
ATOM     10  C   UNL     1      32.348  21.088   9.351  0.00  0.00    +0.000 A 
BRANCH   4  12
ATOM     11  C   UNL     1      34.527  23.464  10.085  0.00  0.00    +0.000 C 
ATOM     12  C   UNL     1      34.615  21.956  10.033  0.00  0.00    +0.000 C 
ENDBRANCH   4  12
ENDBRANCH   1  10
BRANCH   3  13
ATOM     13  C   UNL     1      30.631  22.565  12.525  0.00  0.00    +0.000 C 
BRANCH  13  14
ATOM     14  C   UNL     1      29.195  22.842  12.566  0.00  0.00    +0.000 A 
ATOM     15  C   UNL     1      28.570  23.576  13.545  0.00  0.00    +0.000 A 
ATOM     16  C   UNL     1      27.218  23.803  13.527  0.00  0.00    +0.000 A 
ATOM     17  C   UNL     1      26.483  23.268  12.483  0.00  0.00    +0.000 A 
ATOM     18  N   UNL     1      27.089  22.557  11.537  0.00  0.00    +0.000 NA
ATOM     19  C   UNL     1      28.405  22.337  11.556  0.00  0.00    +0.000 A 
ENDBRANCH  13  14
ENDBRANCH   3  13
TORSDOF 4
ENDMDL
MODEL 3
REMARK VINA RESULT:      -5.3     31.648     32.327
REMARK  Name = 
REMARK  4 active torsions:
REMARK  status: ('A' for Active; 'I' for Inactive)
REMARK    1  A    between atoms: C_2  and  C_3
REMARK    2  A    between atoms: C_9  and  C_10
REMARK    3  A    between atoms: N_12  and  C_13
REMARK    4  A    between atoms: C_13  and  C_14
REMARK                            x       y       z     vdW  Elec       q    Type
REMARK                         _______ _______ _______ _____ _____    ______ ____
ROOT
ATOM      1  C   UNL     1      22.403  -8.248  24.560  0.00  0.00    +0.000 C 
ATOM      2  O   UNL     1      21.676  -8.444  23.581  0.00  0.00    +0.000 OA
ATOM      3  N   UNL     1      22.144  -7.118  25.361  0.00  0.00    +0.000 NA
ENDROOT
BRANCH   1  10
ATOM      4  C   UNL     1      24.655  -9.248  24.130  0.00  0.00    +0.000 A 
ATOM      5  C   UNL     1      25.592 -10.174  24.488  0.00  0.00    +0.000 A 
ATOM      6  C   UNL     1      26.944 -10.408  23.842  0.00  0.00    +0.000 C 
ATOM      7  S   UNL     1      24.870 -10.973  25.802  0.00  0.00    +0.000 S 
ATOM      8  C   UNL     1      23.399 -10.115  25.869  0.00  0.00    +0.000 A 
ATOM      9  N   UNL     1      22.286 -10.291  26.785  0.00  0.00    +0.000 NA
ATOM     10  C   UNL     1      23.508  -9.208  24.844  0.00  0.00    +0.000 A 
BRANCH   4  12
ATOM     11  C   UNL     1      25.577  -7.040  23.467  0.00  0.00    +0.000 C 
ATOM     12  C   UNL     1      24.918  -8.302  22.959  0.00  0.00    +0.000 C 
ENDBRANCH   4  12
ENDBRANCH   1  10
BRANCH   3  13
ATOM     13  C   UNL     1      21.109  -6.151  25.162  0.00  0.00    +0.000 C 
BRANCH  13  14
ATOM     14  C   UNL     1      19.873  -6.411  25.902  0.00  0.00    +0.000 A 
ATOM     15  C   UNL     1      19.485  -7.645  26.365  0.00  0.00    +0.000 A 
ATOM     16  C   UNL     1      18.315  -7.824  27.056  0.00  0.00    +0.000 A 
ATOM     17  C   UNL     1      17.518  -6.715  27.281  0.00  0.00    +0.000 A 
ATOM     18  N   UNL     1      17.893  -5.521  26.832  0.00  0.00    +0.000 NA
ATOM     19  C   UNL     1      19.033  -5.348  26.160  0.00  0.00    +0.000 A 
ENDBRANCH  13  14
ENDBRANCH   3  13
TORSDOF 4
ENDMDL
MODEL 4
REMARK VINA RESULT:      -5.3     17.120     18.158
REMARK  Name = 
REMARK  4 active torsions:
REMARK  status: ('A' for Active; 'I' for Inactive)
REMARK    1  A    between atoms: C_2  and  C_3
REMARK    2  A    between atoms: C_9  and  C_10
REMARK    3  A    between atoms: N_12  and  C_13
REMARK    4  A    between atoms: C_13  and  C_14
REMARK                            x       y       z     vdW  Elec       q    Type
REMARK                         _______ _______ _______ _____ _____    ______ ____
ROOT
ATOM      1  C   UNL     1      20.369  10.038  37.519  0.00  0.00    +0.000 C 
ATOM      2  O   UNL     1      19.952   9.326  38.439  0.00  0.00    +0.000 OA
ATOM      3  N   UNL     1      19.629  10.072  36.321  0.00  0.00    +0.000 NA
ENDROOT
BRANCH   1  10
ATOM      4  C   UNL     1      21.671  11.982  38.404  0.00  0.00    +0.000 A 
ATOM      5  C   UNL     1      22.882  12.601  38.517  0.00  0.00    +0.000 A 
ATOM      6  C   UNL     1      23.181  13.906  39.231  0.00  0.00    +0.000 C 
ATOM      7  S   UNL     1      23.932  11.565  37.677  0.00  0.00    +0.000 S 
ATOM      8  C   UNL     1      22.814  10.370  37.201  0.00  0.00    +0.000 A 
ATOM      9  N   UNL     1      23.049   9.162  36.430  0.00  0.00    +0.000 NA
ATOM     10  C   UNL     1      21.624  10.817  37.720  0.00  0.00    +0.000 A 
BRANCH   4  12
ATOM     11  C   UNL     1      19.766  13.533  38.042  0.00  0.00    +0.000 C 
ATOM     12  C   UNL     1      20.426  12.604  39.036  0.00  0.00    +0.000 C 
ENDBRANCH   4  12
ENDBRANCH   1  10
BRANCH   3  13
ATOM     13  C   UNL     1      18.419   9.359  36.046  0.00  0.00    +0.000 C 
BRANCH  13  14
ATOM     14  C   UNL     1      17.423  10.109  35.280  0.00  0.00    +0.000 A 
ATOM     15  C   UNL     1      17.365  10.153  33.908  0.00  0.00    +0.000 A 
ATOM     16  C   UNL     1      16.404  10.873  33.246  0.00  0.00    +0.000 A 
ATOM     17  C   UNL     1      15.477  11.567  34.004  0.00  0.00    +0.000 A 
ATOM     18  N   UNL     1      15.534  11.524  35.332  0.00  0.00    +0.000 NA
ATOM     19  C   UNL     1      16.470  10.822  35.974  0.00  0.00    +0.000 A 
ENDBRANCH  13  14
ENDBRANCH   3  13
TORSDOF 4
ENDMDL
MODEL 5
REMARK VINA RESULT:      -5.3      1.968      2.368
REMARK  Name = 
REMARK  4 active torsions:
REMARK  status: ('A' for Active; 'I' for Inactive)
REMARK    1  A    between atoms: C_2  and  C_3
REMARK    2  A    between atoms: C_9  and  C_10
REMARK    3  A    between atoms: N_12  and  C_13
REMARK    4  A    between atoms: C_13  and  C_14
REMARK                            x       y       z     vdW  Elec       q    Type
REMARK                         _______ _______ _______ _____ _____    ______ ____
ROOT
ATOM      1  C   UNL     1      27.720  23.315  25.973  0.00  0.00    +0.000 C 
ATOM      2  O   UNL     1      26.956  22.415  25.605  0.00  0.00    +0.000 OA
ATOM      3  N   UNL     1      27.777  24.490  25.199  0.00  0.00    +0.000 NA
ENDROOT
BRANCH   1  10
ATOM      4  C   UNL     1      29.807  22.659  27.185  0.00  0.00    +0.000 A 
ATOM      5  C   UNL     1      30.447  22.515  28.382  0.00  0.00    +0.000 A 
ATOM      6  C   UNL     1      31.865  22.028  28.611  0.00  0.00    +0.000 C 
ATOM      7  S   UNL     1      29.279  23.008  29.512  0.00  0.00    +0.000 S 
ATOM      8  C   UNL     1      28.007  23.386  28.443  0.00  0.00    +0.000 A 
ATOM      9  N   UNL     1      26.676  23.879  28.753  0.00  0.00    +0.000 NA
ATOM     10  C   UNL     1      28.534  23.113  27.205  0.00  0.00    +0.000 A 
BRANCH   4  12
ATOM     11  C   UNL     1      31.284  23.521  25.385  0.00  0.00    +0.000 C 
ATOM     12  C   UNL     1      30.526  22.311  25.882  0.00  0.00    +0.000 C 
ENDBRANCH   4  12
ENDBRANCH   1  10
BRANCH   3  13
ATOM     13  C   UNL     1      27.033  24.765  24.009  0.00  0.00    +0.000 C 
BRANCH  13  14
ATOM     14  C   UNL     1      27.846  25.089  22.835  0.00  0.00    +0.000 A 
ATOM     15  C   UNL     1      27.842  26.305  22.196  0.00  0.00    +0.000 A 
ATOM     16  C   UNL     1      28.629  26.549  21.100  0.00  0.00    +0.000 A 
ATOM     17  C   UNL     1      29.442  25.526  20.644  0.00  0.00    +0.000 A 
ATOM     18  N   UNL     1      29.444  24.349  21.263  0.00  0.00    +0.000 NA
ATOM     19  C   UNL     1      28.677  24.113  22.330  0.00  0.00    +0.000 A 
ENDBRANCH  13  14
ENDBRANCH   3  13
TORSDOF 4
ENDMDL
MODEL 6
REMARK VINA RESULT:      -5.2      3.558      4.942
REMARK  Name = 
REMARK  4 active torsions:
REMARK  status: ('A' for Active; 'I' for Inactive)
REMARK    1  A    between atoms: C_2  and  C_3
REMARK    2  A    between atoms: C_9  and  C_10
REMARK    3  A    between atoms: N_12  and  C_13
REMARK    4  A    between atoms: C_13  and  C_14
REMARK                            x       y       z     vdW  Elec       q    Type
REMARK                         _______ _______ _______ _____ _____    ______ ____
ROOT
ATOM      1  C   UNL     1      28.561  23.652  22.995  0.00  0.00    +0.000 C 
ATOM      2  O   UNL     1      27.950  22.923  22.206  0.00  0.00    +0.000 OA
ATOM      3  N   UNL     1      29.239  24.771  22.473  0.00  0.00    +0.000 NA
ENDROOT
BRANCH   1  10
ATOM      4  C   UNL     1      29.633  22.836  25.103  0.00  0.00    +0.000 A 
ATOM      5  C   UNL     1      29.497  22.562  26.433  0.00  0.00    +0.000 A 
ATOM      6  C   UNL     1      30.559  22.023  27.372  0.00  0.00    +0.000 C 
ATOM      7  S   UNL     1      27.879  22.968  26.753  0.00  0.00    +0.000 S 
ATOM      8  C   UNL     1      27.412  23.476  25.195  0.00  0.00    +0.000 A 
ATOM      9  N   UNL     1      26.119  23.966  24.748  0.00  0.00    +0.000 NA
ATOM     10  C   UNL     1      28.552  23.313  24.447  0.00  0.00    +0.000 A 
BRANCH   4  12
ATOM     11  C   UNL     1      31.868  23.798  24.611  0.00  0.00    +0.000 C 
ATOM     12  C   UNL     1      30.970  22.600  24.402  0.00  0.00    +0.000 C 
ENDBRANCH   4  12
ENDBRANCH   1  10
BRANCH   3  13
ATOM     13  C   UNL     1      29.298  25.167  21.099  0.00  0.00    +0.000 C 
BRANCH  13  14
ATOM     14  C   UNL     1      29.413  26.610  20.879  0.00  0.00    +0.000 A 
ATOM     15  C   UNL     1      29.061  27.569  21.796  0.00  0.00    +0.000 A 
ATOM     16  C   UNL     1      29.195  28.908  21.532  0.00  0.00    +0.000 A 
ATOM     17  C   UNL     1      29.702  29.278  20.298  0.00  0.00    +0.000 A 
ATOM     18  N   UNL     1      30.042  28.348  19.410  0.00  0.00    +0.000 NA
ATOM     19  C   UNL     1      29.911  27.046  19.670  0.00  0.00    +0.000 A 
ENDBRANCH  13  14
ENDBRANCH   3  13
TORSDOF 4
ENDMDL
MODEL 7
REMARK VINA RESULT:      -5.2      3.742      7.012
REMARK  Name = 
REMARK  4 active torsions:
REMARK  status: ('A' for Active; 'I' for Inactive)
REMARK    1  A    between atoms: C_2  and  C_3
REMARK    2  A    between atoms: C_9  and  C_10
REMARK    3  A    between atoms: N_12  and  C_13
REMARK    4  A    between atoms: C_13  and  C_14
REMARK                            x       y       z     vdW  Elec       q    Type
REMARK                         _______ _______ _______ _____ _____    ______ ____
ROOT
ATOM      1  C   UNL     1      28.575  23.995  23.011  0.00  0.00    +0.000 C 
ATOM      2  O   UNL     1      27.880  23.013  22.730  0.00  0.00    +0.000 OA
ATOM      3  N   UNL     1      29.653  23.809  23.898  0.00  0.00    +0.000 NA
ENDROOT
BRANCH   1  10
ATOM      4  C   UNL     1      27.391  26.198  22.975  0.00  0.00    +0.000 A 
ATOM      5  C   UNL     1      27.166  27.374  22.319  0.00  0.00    +0.000 A 
ATOM      6  C   UNL     1      26.262  28.510  22.758  0.00  0.00    +0.000 C 
ATOM      7  S   UNL     1      28.131  27.237  20.928  0.00  0.00    +0.000 S 
ATOM      8  C   UNL     1      28.798  25.694  21.209  0.00  0.00    +0.000 A 
ATOM      9  N   UNL     1      29.734  24.946  20.387  0.00  0.00    +0.000 NA
ATOM     10  C   UNL     1      28.241  25.315  22.405  0.00  0.00    +0.000 A 
BRANCH   4  12
ATOM     11  C   UNL     1      27.530  26.455  25.441  0.00  0.00    +0.000 C 
ATOM     12  C   UNL     1      26.693  25.913  24.304  0.00  0.00    +0.000 C 
ENDBRANCH   4  12
ENDBRANCH   1  10
BRANCH   3  13
ATOM     13  C   UNL     1      30.042  22.581  24.522  0.00  0.00    +0.000 C 
BRANCH  13  14
ATOM     14  C   UNL     1      29.907  22.562  25.980  0.00  0.00    +0.000 A 
ATOM     15  C   UNL     1      30.960  22.530  26.861  0.00  0.00    +0.000 A 
ATOM     16  C   UNL     1      30.769  22.516  28.218  0.00  0.00    +0.000 A 
ATOM     17  C   UNL     1      29.468  22.533  28.690  0.00  0.00    +0.000 A 
ATOM     18  N   UNL     1      28.449  22.563  27.837  0.00  0.00    +0.000 NA
ATOM     19  C   UNL     1      28.637  22.578  26.516  0.00  0.00    +0.000 A 
ENDBRANCH  13  14
ENDBRANCH   3  13
TORSDOF 4
ENDMDL
MODEL 8
REMARK VINA RESULT:      -5.2      1.524      2.489
REMARK  Name = 
REMARK  4 active torsions:
REMARK  status: ('A' for Active; 'I' for Inactive)
REMARK    1  A    between atoms: C_2  and  C_3
REMARK    2  A    between atoms: C_9  and  C_10
REMARK    3  A    between atoms: N_12  and  C_13
REMARK    4  A    between atoms: C_13  and  C_14
REMARK                            x       y       z     vdW  Elec       q    Type
REMARK                         _______ _______ _______ _____ _____    ______ ____
ROOT
ATOM      1  C   UNL     1      28.389  23.486  27.621  0.00  0.00    +0.000 C 
ATOM      2  O   UNL     1      28.114  24.689  27.558  0.00  0.00    +0.000 OA
ATOM      3  N   UNL     1      27.716  22.607  26.749  0.00  0.00    +0.000 NA
ENDROOT
BRANCH   1  10
ATOM      4  C   UNL     1      29.126  22.795  29.909  0.00  0.00    +0.000 A 
ATOM      5  C   UNL     1      30.148  22.380  30.713  0.00  0.00    +0.000 A 
ATOM      6  C   UNL     1      30.077  22.057  32.194  0.00  0.00    +0.000 C 
ATOM      7  S   UNL     1      31.478  22.321  29.659  0.00  0.00    +0.000 S 
ATOM      8  C   UNL     1      30.710  22.823  28.222  0.00  0.00    +0.000 A 
ATOM      9  N   UNL     1      31.282  22.998  26.899  0.00  0.00    +0.000 NA
ATOM     10  C   UNL     1      29.408  23.029  28.608  0.00  0.00    +0.000 A 
BRANCH   4  12
ATOM     11  C   UNL     1      26.927  21.710  30.301  0.00  0.00    +0.000 C 
ATOM     12  C   UNL     1      27.723  22.983  30.484  0.00  0.00    +0.000 C 
ENDBRANCH   4  12
ENDBRANCH   1  10
BRANCH   3  13
ATOM     13  C   UNL     1      26.729  22.962  25.776  0.00  0.00    +0.000 C 
BRANCH  13  14
ATOM     14  C   UNL     1      27.256  23.249  24.441  0.00  0.00    +0.000 A 
ATOM     15  C   UNL     1      28.589  23.386  24.142  0.00  0.00    +0.000 A 
ATOM     16  C   UNL     1      29.022  23.653  22.868  0.00  0.00    +0.000 A 
ATOM     17  C   UNL     1      28.069  23.784  21.874  0.00  0.00    +0.000 A 
ATOM     18  N   UNL     1      26.778  23.652  22.164  0.00  0.00    +0.000 NA
ATOM     19  C   UNL     1      26.359  23.392  23.404  0.00  0.00    +0.000 A 
ENDBRANCH  13  14
ENDBRANCH   3  13
TORSDOF 4
ENDMDL
MODEL 9
REMARK VINA RESULT:      -5.1      2.589      6.249
REMARK  Name = 
REMARK  4 active torsions:
REMARK  status: ('A' for Active; 'I' for Inactive)
REMARK    1  A    between atoms: C_2  and  C_3
REMARK    2  A    between atoms: C_9  and  C_10
REMARK    3  A    between atoms: N_12  and  C_13
REMARK    4  A    between atoms: C_13  and  C_14
REMARK                            x       y       z     vdW  Elec       q    Type
REMARK                         _______ _______ _______ _____ _____    ______ ____
ROOT
ATOM      1  C   UNL     1      27.938  22.914  28.443  0.00  0.00    +0.000 C 
ATOM      2  O   UNL     1      27.478  21.879  28.937  0.00  0.00    +0.000 OA
ATOM      3  N   UNL     1      28.732  23.742  29.261  0.00  0.00    +0.000 NA
ENDROOT
BRANCH   1  10
ATOM      4  C   UNL     1      28.460  22.926  25.997  0.00  0.00    +0.000 A 
ATOM      5  C   UNL     1      28.066  23.273  24.737  0.00  0.00    +0.000 A 
ATOM      6  C   UNL     1      28.821  23.036  23.442  0.00  0.00    +0.000 C 
ATOM      7  S   UNL     1      26.560  24.017  24.988  0.00  0.00    +0.000 S 
ATOM      8  C   UNL     1      26.463  23.871  26.683  0.00  0.00    +0.000 A 
ATOM      9  N   UNL     1      25.404  24.313  27.573  0.00  0.00    +0.000 NA
ATOM     10  C   UNL     1      27.632  23.233  27.019  0.00  0.00    +0.000 A 
BRANCH   4  12
ATOM     11  C   UNL     1      30.898  23.246  26.338  0.00  0.00    +0.000 C 
ATOM     12  C   UNL     1      29.796  22.218  26.217  0.00  0.00    +0.000 C 
ENDBRANCH   4  12
ENDBRANCH   1  10
BRANCH   3  13
ATOM     13  C   UNL     1      29.073  23.511  30.631  0.00  0.00    +0.000 C 
BRANCH  13  14
ATOM     14  C   UNL     1      30.235  22.644  30.838  0.00  0.00    +0.000 A 
ATOM     15  C   UNL     1      31.268  22.498  29.946  0.00  0.00    +0.000 A 
ATOM     16  C   UNL     1      32.332  21.671  30.198  0.00  0.00    +0.000 A 
ATOM     17  C   UNL     1      32.342  20.974  31.393  0.00  0.00    +0.000 A 
ATOM     18  N   UNL     1      31.341  21.115  32.257  0.00  0.00    +0.000 NA
ATOM     19  C   UNL     1      30.306  21.921  32.009  0.00  0.00    +0.000 A 
ENDBRANCH  13  14
ENDBRANCH   3  13
TORSDOF 4
ENDMDL
MODEL 10
REMARK VINA RESULT:      -5.1     33.255     34.245
REMARK  Name = 
REMARK  4 active torsions:
REMARK  status: ('A' for Active; 'I' for Inactive)
REMARK    1  A    between atoms: C_2  and  C_3
REMARK    2  A    between atoms: C_9  and  C_10
REMARK    3  A    between atoms: N_12  and  C_13
REMARK    4  A    between atoms: C_13  and  C_14
REMARK                            x       y       z     vdW  Elec       q    Type
REMARK                         _______ _______ _______ _____ _____    ______ ____
ROOT
ATOM      1  C   UNL     1      15.296  -8.662  25.712  0.00  0.00    +0.000 C 
ATOM      2  O   UNL     1      15.630  -9.642  26.386  0.00  0.00    +0.000 OA
ATOM      3  N   UNL     1      15.921  -7.428  25.983  0.00  0.00    +0.000 NA
ENDROOT
BRANCH   1  10
ATOM      4  C   UNL     1      12.934  -8.700  24.890  0.00  0.00    +0.000 A 
ATOM      5  C   UNL     1      12.083  -8.881  23.838  0.00  0.00    +0.000 A 
ATOM      6  C   UNL     1      10.570  -8.786  23.856  0.00  0.00    +0.000 C 
ATOM      7  S   UNL     1      13.128  -9.229  22.545  0.00  0.00    +0.000 S 
ATOM      8  C   UNL     1      14.619  -9.137  23.366  0.00  0.00    +0.000 A 
ATOM      9  N   UNL     1      15.959  -9.334  22.841  0.00  0.00    +0.000 NA
ATOM     10  C   UNL     1      14.258  -8.831  24.655  0.00  0.00    +0.000 A 
BRANCH   4  12
ATOM     11  C   UNL     1      12.081  -9.643  27.023  0.00  0.00    +0.000 C 
ATOM     12  C   UNL     1      12.383  -8.364  26.275  0.00  0.00    +0.000 C 
ENDBRANCH   4  12
ENDBRANCH   1  10
BRANCH   3  13
ATOM     13  C   UNL     1      16.922  -7.179  26.975  0.00  0.00    +0.000 C 
BRANCH  13  14
ATOM     14  C   UNL     1      18.249  -6.866  26.444  0.00  0.00    +0.000 A 
ATOM     15  C   UNL     1      18.777  -5.600  26.361  0.00  0.00    +0.000 A 
ATOM     16  C   UNL     1      20.031  -5.370  25.856  0.00  0.00    +0.000 A 
ATOM     17  C   UNL     1      20.765  -6.460  25.422  0.00  0.00    +0.000 A 
ATOM     18  N   UNL     1      20.254  -7.684  25.502  0.00  0.00    +0.000 NA
ATOM     19  C   UNL     1      19.033  -7.907  25.995  0.00  0.00    +0.000 A 
ENDBRANCH  13  14
ENDBRANCH   3  13
TORSDOF 4
ENDMDL
