MODEL 1
REMARK VINA RESULT:      -7.8      0.000      0.000
REMARK  Name = 
REMARK  9 active torsions:
REMARK  status: ('A' for Active; 'I' for Inactive)
REMARK    1  A    between atoms: C_2  and  C_3
REMARK    2  A    between atoms: C_3  and  N_4
REMARK    3  A    between atoms: C_5  and  C_6
REMARK    4  A    between atoms: C_6  and  C_7
REMARK    5  A    between atoms: C_7  and  C_8
REMARK    6  A    between atoms: C_16  and  S_17
REMARK    7  A    between atoms: S_17  and  C_18
REMARK    8  A    between atoms: C_18  and  C_19
REMARK    9  A    between atoms: N_21  and  C_22
REMARK                            x       y       z     vdW  Elec       q    Type
REMARK                         _______ _______ _______ _____ _____    ______ ____
ROOT
ATOM      1  N   UNL     1      36.990   3.623  15.630  0.00  0.00    +0.000 N 
ATOM      2  C   UNL     1      37.822   4.248  16.470  0.00  0.00    +0.000 A 
ATOM      3  N   UNL     1      37.806   3.587  17.653  0.00  0.00    +0.000 NA
ATOM      4  N   UNL     1      36.975   2.584  17.516  0.00  0.00    +0.000 NA
ATOM      5  C   UNL     1      36.444   2.554  16.295  0.00  0.00    +0.000 A 
ENDROOT
BRANCH   1   6
ATOM      6  C   UNL     1      36.704   3.975  14.280  0.00  0.00    +0.000 C 
BRANCH   6   8
ATOM      7  C   UNL     1      35.614   6.240  13.923  0.00  0.00    +0.000 C 
ATOM      8  C   UNL     1      35.507   4.773  14.000  0.00  0.00    +0.000 C 
ENDBRANCH   6   8
ENDBRANCH   1   6
BRANCH   2   9
ATOM      9  C   UNL     1      38.663   5.469  16.246  0.00  0.00    +0.000 C 
BRANCH   9  10
ATOM     10  C   UNL     1      38.593   6.338  17.453  0.00  0.00    +0.000 C 
BRANCH  10  11
ATOM     11  C   UNL     1      39.891   6.398  18.200  0.00  0.00    +0.000 A 
ATOM     12  C   UNL     1      39.946   6.315  19.576  0.00  0.00    +0.000 A 
ATOM     13  C   UNL     1      41.132   6.370  20.279  0.00  0.00    +0.000 A 
ATOM     14  C   UNL     1      42.333   6.513  19.597  0.00  0.00    +0.000 A 
ATOM     15  C   UNL     1      42.293   6.599  18.220  0.00  0.00    +0.000 A 
ATOM     16  C   UNL     1      41.097   6.543  17.535  0.00  0.00    +0.000 A 
ENDBRANCH  10  11
ENDBRANCH   9  10
ENDBRANCH   2   9
BRANCH   5  17
ATOM     17  S   UNL     1      35.272   1.440  15.544  0.00  0.00    +0.000 S 
BRANCH  17  18
ATOM     18  C   UNL     1      35.652  -0.255  16.013  0.00  0.00    +0.000 C 
BRANCH  18  19
ATOM     19  C   UNL     1      36.932  -0.683  15.408  0.00  0.00    +0.000 C 
ATOM     20  O   UNL     1      36.945  -1.121  14.233  0.00  0.00    +0.000 OA
ATOM     21  N   UNL     1      38.165  -0.617  16.105  0.00  0.00    +0.000 NA
BRANCH  21  22
ATOM     22  C   UNL     1      39.336  -1.052  15.430  0.00  0.00    +0.000 A 
ATOM     23  C   UNL     1      39.725  -2.361  15.573  0.00  0.00    +0.000 A 
ATOM     24  C   UNL     1      38.923  -3.284  16.419  0.00  0.00    +0.000 C 
ATOM     25  C   UNL     1      40.867  -2.754  14.905  0.00  0.00    +0.000 A 
ATOM     26  C   UNL     1      41.602  -1.877  14.121  0.00  0.00    +0.000 A 
ATOM     27  C   UNL     1      41.167  -0.572  14.012  0.00  0.00    +0.000 A 
ATOM     28  C   UNL     1      40.039  -0.138  14.656  0.00  0.00    +0.000 A 
ATOM     29  C   UNL     1      39.607   1.275  14.511  0.00  0.00    +0.000 C 
ENDBRANCH  21  22
ENDBRANCH  18  19
ENDBRANCH  17  18
ENDBRANCH   5  17
TORSDOF 9
ENDMDL
MODEL 2
REMARK VINA RESULT:      -7.6      1.787      2.763
REMARK  Name = 
REMARK  9 active torsions:
REMARK  status: ('A' for Active; 'I' for Inactive)
REMARK    1  A    between atoms: C_2  and  C_3
REMARK    2  A    between atoms: C_3  and  N_4
REMARK    3  A    between atoms: C_5  and  C_6
REMARK    4  A    between atoms: C_6  and  C_7
REMARK    5  A    between atoms: C_7  and  C_8
REMARK    6  A    between atoms: C_16  and  S_17
REMARK    7  A    between atoms: S_17  and  C_18
REMARK    8  A    between atoms: C_18  and  C_19
REMARK    9  A    between atoms: N_21  and  C_22
REMARK                            x       y       z     vdW  Elec       q    Type
REMARK                         _______ _______ _______ _____ _____    ______ ____
ROOT
ATOM      1  N   UNL     1      37.304   4.050  15.848  0.00  0.00    +0.000 N 
ATOM      2  C   UNL     1      37.996   4.499  16.902  0.00  0.00    +0.000 A 
ATOM      3  N   UNL     1      37.807   3.638  17.931  0.00  0.00    +0.000 NA
ATOM      4  N   UNL     1      37.013   2.692  17.493  0.00  0.00    +0.000 NA
ATOM      5  C   UNL     1      36.672   2.891  16.221  0.00  0.00    +0.000 A 
ENDROOT
BRANCH   1   6
ATOM      6  C   UNL     1      37.222   4.643  14.556  0.00  0.00    +0.000 C 
BRANCH   6   8
ATOM      7  C   UNL     1      36.768   7.093  14.069  0.00  0.00    +0.000 C 
ATOM      8  C   UNL     1      36.268   5.735  14.342  0.00  0.00    +0.000 C 
ENDBRANCH   6   8
ENDBRANCH   1   6
BRANCH   2   9
ATOM      9  C   UNL     1      38.853   5.723  17.028  0.00  0.00    +0.000 C 
BRANCH   9  10
ATOM     10  C   UNL     1      39.065   6.022  18.471  0.00  0.00    +0.000 C 
BRANCH  10  11
ATOM     11  C   UNL     1      40.506   6.253  18.809  0.00  0.00    +0.000 A 
ATOM     12  C   UNL     1      41.463   6.451  17.834  0.00  0.00    +0.000 A 
ATOM     13  C   UNL     1      42.794   6.664  18.128  0.00  0.00    +0.000 A 
ATOM     14  C   UNL     1      43.214   6.686  19.451  0.00  0.00    +0.000 A 
ATOM     15  C   UNL     1      42.268   6.489  20.437  0.00  0.00    +0.000 A 
ATOM     16  C   UNL     1      40.942   6.277  20.123  0.00  0.00    +0.000 A 
ENDBRANCH  10  11
ENDBRANCH   9  10
ENDBRANCH   2   9
BRANCH   5  17
ATOM     17  S   UNL     1      35.634   1.953  15.117  0.00  0.00    +0.000 S 
BRANCH  17  18
ATOM     18  C   UNL     1      36.557   0.563  14.442  0.00  0.00    +0.000 C 
BRANCH  18  19
ATOM     19  C   UNL     1      37.186  -0.215  15.532  0.00  0.00    +0.000 C 
ATOM     20  O   UNL     1      38.377   0.015  15.849  0.00  0.00    +0.000 OA
ATOM     21  N   UNL     1      36.492  -1.223  16.247  0.00  0.00    +0.000 NA
BRANCH  21  22
ATOM     22  C   UNL     1      37.188  -1.910  17.276  0.00  0.00    +0.000 A 
ATOM     23  C   UNL     1      37.980  -2.977  16.930  0.00  0.00    +0.000 A 
ATOM     24  C   UNL     1      38.092  -3.386  15.505  0.00  0.00    +0.000 C 
ATOM     25  C   UNL     1      38.644  -3.624  17.953  0.00  0.00    +0.000 A 
ATOM     26  C   UNL     1      38.527  -3.228  19.277  0.00  0.00    +0.000 A 
ATOM     27  C   UNL     1      37.717  -2.149  19.570  0.00  0.00    +0.000 A 
ATOM     28  C   UNL     1      37.040  -1.476  18.587  0.00  0.00    +0.000 A 
ATOM     29  C   UNL     1      36.179  -0.321  18.947  0.00  0.00    +0.000 C 
ENDBRANCH  21  22
ENDBRANCH  18  19
ENDBRANCH  17  18
ENDBRANCH   5  17
TORSDOF 9
ENDMDL
MODEL 3
REMARK VINA RESULT:      -7.4      1.634      2.736
REMARK  Name = 
REMARK  9 active torsions:
REMARK  status: ('A' for Active; 'I' for Inactive)
REMARK    1  A    between atoms: C_2  and  C_3
REMARK    2  A    between atoms: C_3  and  N_4
REMARK    3  A    between atoms: C_5  and  C_6
REMARK    4  A    between atoms: C_6  and  C_7
REMARK    5  A    between atoms: C_7  and  C_8
REMARK    6  A    between atoms: C_16  and  S_17
REMARK    7  A    between atoms: S_17  and  C_18
REMARK    8  A    between atoms: C_18  and  C_19
REMARK    9  A    between atoms: N_21  and  C_22
REMARK                            x       y       z     vdW  Elec       q    Type
REMARK                         _______ _______ _______ _____ _____    ______ ____
ROOT
ATOM      1  N   UNL     1      38.185   4.368  15.900  0.00  0.00    +0.000 N 
ATOM      2  C   UNL     1      38.674   4.671  17.108  0.00  0.00    +0.000 A 
ATOM      3  N   UNL     1      38.057   3.884  18.024  0.00  0.00    +0.000 NA
ATOM      4  N   UNL     1      37.215   3.126  17.367  0.00  0.00    +0.000 NA
ATOM      5  C   UNL     1      37.249   3.377  16.060  0.00  0.00    +0.000 A 
ENDROOT
BRANCH   1   6
ATOM      6  C   UNL     1      38.553   4.947  14.652  0.00  0.00    +0.000 C 
BRANCH   6   8
ATOM      7  C   UNL     1      36.895   6.842  14.984  0.00  0.00    +0.000 C 
ATOM      8  C   UNL     1      38.120   6.316  14.358  0.00  0.00    +0.000 C 
ENDBRANCH   6   8
ENDBRANCH   1   6
BRANCH   2   9
ATOM      9  C   UNL     1      39.711   5.683  17.490  0.00  0.00    +0.000 C 
BRANCH   9  10
ATOM     10  C   UNL     1      39.685   5.875  18.966  0.00  0.00    +0.000 C 
BRANCH  10  11
ATOM     11  C   UNL     1      38.956   7.119  19.375  0.00  0.00    +0.000 A 
ATOM     12  C   UNL     1      37.930   7.647  18.619  0.00  0.00    +0.000 A 
ATOM     13  C   UNL     1      37.249   8.791  18.981  0.00  0.00    +0.000 A 
ATOM     14  C   UNL     1      37.592   9.457  20.151  0.00  0.00    +0.000 A 
ATOM     15  C   UNL     1      38.617   8.941  20.917  0.00  0.00    +0.000 A 
ATOM     16  C   UNL     1      39.286   7.796  20.538  0.00  0.00    +0.000 A 
ENDBRANCH  10  11
ENDBRANCH   9  10
ENDBRANCH   2   9
BRANCH   5  17
ATOM     17  S   UNL     1      36.342   2.670  14.698  0.00  0.00    +0.000 S 
BRANCH  17  18
ATOM     18  C   UNL     1      35.693   1.058  15.166  0.00  0.00    +0.000 C 
BRANCH  18  19
ATOM     19  C   UNL     1      36.741   0.023  15.034  0.00  0.00    +0.000 C 
ATOM     20  O   UNL     1      36.609  -0.886  14.179  0.00  0.00    +0.000 OA
ATOM     21  N   UNL     1      37.906   0.010  15.841  0.00  0.00    +0.000 NA
BRANCH  21  22
ATOM     22  C   UNL     1      38.850  -1.029  15.632  0.00  0.00    +0.000 A 
ATOM     23  C   UNL     1      39.891  -0.802  14.765  0.00  0.00    +0.000 A 
ATOM     24  C   UNL     1      40.007   0.508  14.073  0.00  0.00    +0.000 C 
ATOM     25  C   UNL     1      40.793  -1.832  14.584  0.00  0.00    +0.000 A 
ATOM     26  C   UNL     1      40.668  -3.048  15.239  0.00  0.00    +0.000 A 
ATOM     27  C   UNL     1      39.602  -3.223  16.098  0.00  0.00    +0.000 A 
ATOM     28  C   UNL     1      38.683  -2.230  16.310  0.00  0.00    +0.000 A 
ATOM     29  C   UNL     1      37.553  -2.461  17.245  0.00  0.00    +0.000 C 
ENDBRANCH  21  22
ENDBRANCH  18  19
ENDBRANCH  17  18
ENDBRANCH   5  17
TORSDOF 9
ENDMDL
MODEL 4
REMARK VINA RESULT:      -7.3      1.870      3.466
REMARK  Name = 
REMARK  9 active torsions:
REMARK  status: ('A' for Active; 'I' for Inactive)
REMARK    1  A    between atoms: C_2  and  C_3
REMARK    2  A    between atoms: C_3  and  N_4
REMARK    3  A    between atoms: C_5  and  C_6
REMARK    4  A    between atoms: C_6  and  C_7
REMARK    5  A    between atoms: C_7  and  C_8
REMARK    6  A    between atoms: C_16  and  S_17
REMARK    7  A    between atoms: S_17  and  C_18
REMARK    8  A    between atoms: C_18  and  C_19
REMARK    9  A    between atoms: N_21  and  C_22
REMARK                            x       y       z     vdW  Elec       q    Type
REMARK                         _______ _______ _______ _____ _____    ______ ____
ROOT
ATOM      1  N   UNL     1      38.359   5.536  16.463  0.00  0.00    +0.000 N 
ATOM      2  C   UNL     1      38.628   5.595  17.772  0.00  0.00    +0.000 A 
ATOM      3  N   UNL     1      38.317   4.396  18.322  0.00  0.00    +0.000 NA
ATOM      4  N   UNL     1      37.869   3.637  17.353  0.00  0.00    +0.000 NA
ATOM      5  C   UNL     1      37.872   4.283  16.188  0.00  0.00    +0.000 A 
ENDROOT
BRANCH   1   6
ATOM      6  C   UNL     1      38.538   6.569  15.499  0.00  0.00    +0.000 C 
BRANCH   6   8
ATOM      7  C   UNL     1      40.801   5.772  14.666  0.00  0.00    +0.000 C 
ATOM      8  C   UNL     1      39.897   6.873  15.040  0.00  0.00    +0.000 C 
ENDBRANCH   6   8
ENDBRANCH   1   6
BRANCH   2   9
ATOM      9  C   UNL     1      39.171   6.732  18.584  0.00  0.00    +0.000 C 
BRANCH   9  10
ATOM     10  C   UNL     1      40.028   6.189  19.673  0.00  0.00    +0.000 C 
BRANCH  10  11
ATOM     11  C   UNL     1      41.489   6.425  19.433  0.00  0.00    +0.000 A 
ATOM     12  C   UNL     1      42.400   6.473  20.467  0.00  0.00    +0.000 A 
ATOM     13  C   UNL     1      43.748   6.690  20.263  0.00  0.00    +0.000 A 
ATOM     14  C   UNL     1      44.231   6.869  18.974  0.00  0.00    +0.000 A 
ATOM     15  C   UNL     1      43.331   6.824  17.929  0.00  0.00    +0.000 A 
ATOM     16  C   UNL     1      41.987   6.606  18.153  0.00  0.00    +0.000 A 
ENDBRANCH  10  11
ENDBRANCH   9  10
ENDBRANCH   2   9
BRANCH   5  17
ATOM     17  S   UNL     1      37.383   3.769  14.553  0.00  0.00    +0.000 S 
BRANCH  17  18
ATOM     18  C   UNL     1      38.227   2.241  14.113  0.00  0.00    +0.000 C 
BRANCH  18  19
ATOM     19  C   UNL     1      37.458   1.072  14.594  0.00  0.00    +0.000 C 
ATOM     20  O   UNL     1      36.681   0.477  13.810  0.00  0.00    +0.000 OA
ATOM     21  N   UNL     1      37.562   0.586  15.922  0.00  0.00    +0.000 NA
BRANCH  21  22
ATOM     22  C   UNL     1      36.780  -0.543  16.281  0.00  0.00    +0.000 A 
ATOM     23  C   UNL     1      37.347  -1.790  16.180  0.00  0.00    +0.000 A 
ATOM     24  C   UNL     1      38.749  -1.930  15.704  0.00  0.00    +0.000 C 
ATOM     25  C   UNL     1      36.562  -2.868  16.537  0.00  0.00    +0.000 A 
ATOM     26  C   UNL     1      35.256  -2.717  16.978  0.00  0.00    +0.000 A 
ATOM     27  C   UNL     1      34.735  -1.441  17.060  0.00  0.00    +0.000 A 
ATOM     28  C   UNL     1      35.477  -0.342  16.717  0.00  0.00    +0.000 A 
ATOM     29  C   UNL     1      34.876   1.012  16.821  0.00  0.00    +0.000 C 
ENDBRANCH  21  22
ENDBRANCH  18  19
ENDBRANCH  17  18
ENDBRANCH   5  17
TORSDOF 9
ENDMDL
MODEL 5
REMARK VINA RESULT:      -7.2      2.171      3.829
REMARK  Name = 
REMARK  9 active torsions:
REMARK  status: ('A' for Active; 'I' for Inactive)
REMARK    1  A    between atoms: C_2  and  C_3
REMARK    2  A    between atoms: C_3  and  N_4
REMARK    3  A    between atoms: C_5  and  C_6
REMARK    4  A    between atoms: C_6  and  C_7
REMARK    5  A    between atoms: C_7  and  C_8
REMARK    6  A    between atoms: C_16  and  S_17
REMARK    7  A    between atoms: S_17  and  C_18
REMARK    8  A    between atoms: C_18  and  C_19
REMARK    9  A    between atoms: N_21  and  C_22
REMARK                            x       y       z     vdW  Elec       q    Type
REMARK                         _______ _______ _______ _____ _____    ______ ____
ROOT
ATOM      1  N   UNL     1      39.107   5.377  16.446  0.00  0.00    +0.000 N 
ATOM      2  C   UNL     1      39.489   5.366  17.728  0.00  0.00    +0.000 A 
ATOM      3  N   UNL     1      38.756   4.432  18.380  0.00  0.00    +0.000 NA
ATOM      4  N   UNL     1      37.950   3.896  17.498  0.00  0.00    +0.000 NA
ATOM      5  C   UNL     1      38.121   4.436  16.292  0.00  0.00    +0.000 A 
ENDROOT
BRANCH   1   6
ATOM      6  C   UNL     1      39.616   6.200  15.402  0.00  0.00    +0.000 C 
BRANCH   6   8
ATOM      7  C   UNL     1      37.949   8.014  16.018  0.00  0.00    +0.000 C 
ATOM      8  C   UNL     1      39.190   7.602  15.340  0.00  0.00    +0.000 C 
ENDBRANCH   6   8
ENDBRANCH   1   6
BRANCH   2   9
ATOM      9  C   UNL     1      40.525   6.199  18.420  0.00  0.00    +0.000 C 
BRANCH   9  10
ATOM     10  C   UNL     1      40.135   6.377  19.846  0.00  0.00    +0.000 C 
BRANCH  10  11
ATOM     11  C   UNL     1      39.840   7.805  20.192  0.00  0.00    +0.000 A 
ATOM     12  C   UNL     1      38.576   8.223  20.554  0.00  0.00    +0.000 A 
ATOM     13  C   UNL     1      38.288   9.534  20.875  0.00  0.00    +0.000 A 
ATOM     14  C   UNL     1      39.293  10.491  20.840  0.00  0.00    +0.000 A 
ATOM     15  C   UNL     1      40.563  10.088  20.478  0.00  0.00    +0.000 A 
ATOM     16  C   UNL     1      40.831   8.772  20.160  0.00  0.00    +0.000 A 
ENDBRANCH  10  11
ENDBRANCH   9  10
ENDBRANCH   2   9
BRANCH   5  17
ATOM     17  S   UNL     1      37.322   4.113  14.731  0.00  0.00    +0.000 S 
BRANCH  17  18
ATOM     18  C   UNL     1      37.967   2.594  14.015  0.00  0.00    +0.000 C 
BRANCH  18  19
ATOM     19  C   UNL     1      37.217   1.425  14.524  0.00  0.00    +0.000 C 
ATOM     20  O   UNL     1      36.376   0.859  13.785  0.00  0.00    +0.000 OA
ATOM     21  N   UNL     1      37.407   0.907  15.830  0.00  0.00    +0.000 NA
BRANCH  21  22
ATOM     22  C   UNL     1      36.636  -0.219  16.219  0.00  0.00    +0.000 A 
ATOM     23  C   UNL     1      37.174  -1.471  16.051  0.00  0.00    +0.000 A 
ATOM     24  C   UNL     1      38.535  -1.620  15.472  0.00  0.00    +0.000 C 
ATOM     25  C   UNL     1      36.400  -2.545  16.439  0.00  0.00    +0.000 A 
ATOM     26  C   UNL     1      35.131  -2.386  16.977  0.00  0.00    +0.000 A 
ATOM     27  C   UNL     1      34.637  -1.105  17.124  0.00  0.00    +0.000 A 
ATOM     28  C   UNL     1      35.371  -0.009  16.753  0.00  0.00    +0.000 A 
ATOM     29  C   UNL     1      34.800   1.350  16.929  0.00  0.00    +0.000 C 
ENDBRANCH  21  22
ENDBRANCH  18  19
ENDBRANCH  17  18
ENDBRANCH   5  17
TORSDOF 9
ENDMDL
MODEL 6
REMARK VINA RESULT:      -7.2      2.775      8.103
REMARK  Name = 
REMARK  9 active torsions:
REMARK  status: ('A' for Active; 'I' for Inactive)
REMARK    1  A    between atoms: C_2  and  C_3
REMARK    2  A    between atoms: C_3  and  N_4
REMARK    3  A    between atoms: C_5  and  C_6
REMARK    4  A    between atoms: C_6  and  C_7
REMARK    5  A    between atoms: C_7  and  C_8
REMARK    6  A    between atoms: C_16  and  S_17
REMARK    7  A    between atoms: S_17  and  C_18
REMARK    8  A    between atoms: C_18  and  C_19
REMARK    9  A    between atoms: N_21  and  C_22
REMARK                            x       y       z     vdW  Elec       q    Type
REMARK                         _______ _______ _______ _____ _____    ______ ____
ROOT
ATOM      1  N   UNL     1      37.550   1.492  14.376  0.00  0.00    +0.000 N 
ATOM      2  C   UNL     1      38.058   0.256  14.424  0.00  0.00    +0.000 A 
ATOM      3  N   UNL     1      39.372   0.351  14.742  0.00  0.00    +0.000 NA
ATOM      4  N   UNL     1      39.639   1.626  14.879  0.00  0.00    +0.000 NA
ATOM      5  C   UNL     1      38.558   2.375  14.667  0.00  0.00    +0.000 A 
ENDROOT
BRANCH   1   6
ATOM      6  C   UNL     1      36.205   1.860  14.082  0.00  0.00    +0.000 C 
BRANCH   6   8
ATOM      7  C   UNL     1      35.420   2.324  16.452  0.00  0.00    +0.000 C 
ATOM      8  C   UNL     1      35.191   1.713  15.131  0.00  0.00    +0.000 C 
ENDBRANCH   6   8
ENDBRANCH   1   6
BRANCH   2   9
ATOM      9  C   UNL     1      37.386  -1.062  14.182  0.00  0.00    +0.000 C 
BRANCH   9  10
ATOM     10  C   UNL     1      37.538  -1.917  15.391  0.00  0.00    +0.000 C 
BRANCH  10  11
ATOM     11  C   UNL     1      36.638  -1.497  16.514  0.00  0.00    +0.000 A 
ATOM     12  C   UNL     1      37.135  -0.981  17.694  0.00  0.00    +0.000 A 
ATOM     13  C   UNL     1      36.320  -0.591  18.737  0.00  0.00    +0.000 A 
ATOM     14  C   UNL     1      34.942  -0.711  18.620  0.00  0.00    +0.000 A 
ATOM     15  C   UNL     1      34.431  -1.227  17.446  0.00  0.00    +0.000 A 
ATOM     16  C   UNL     1      35.262  -1.612  16.414  0.00  0.00    +0.000 A 
ENDBRANCH  10  11
ENDBRANCH   9  10
ENDBRANCH   2   9
BRANCH   5  17
ATOM     17  S   UNL     1      38.319   4.141  14.714  0.00  0.00    +0.000 S 
BRANCH  17  18
ATOM     18  C   UNL     1      39.628   4.911  15.679  0.00  0.00    +0.000 C 
BRANCH  18  19
ATOM     19  C   UNL     1      39.055   5.668  16.813  0.00  0.00    +0.000 C 
ATOM     20  O   UNL     1      38.061   5.208  17.424  0.00  0.00    +0.000 OA
ATOM     21  N   UNL     1      39.585   6.909  17.247  0.00  0.00    +0.000 NA
BRANCH  21  22
ATOM     22  C   UNL     1      38.959   7.553  18.347  0.00  0.00    +0.000 A 
ATOM     23  C   UNL     1      39.439   7.306  19.609  0.00  0.00    +0.000 A 
ATOM     24  C   UNL     1      40.588   6.381  19.797  0.00  0.00    +0.000 C 
ATOM     25  C   UNL     1      38.809   7.947  20.657  0.00  0.00    +0.000 A 
ATOM     26  C   UNL     1      37.738   8.806  20.461  0.00  0.00    +0.000 A 
ATOM     27  C   UNL     1      37.295   9.018  19.172  0.00  0.00    +0.000 A 
ATOM     28  C   UNL     1      37.890   8.404  18.101  0.00  0.00    +0.000 A 
ATOM     29  C   UNL     1      37.381   8.662  16.730  0.00  0.00    +0.000 C 
ENDBRANCH  21  22
ENDBRANCH  18  19
ENDBRANCH  17  18
ENDBRANCH   5  17
TORSDOF 9
ENDMDL
MODEL 7
REMARK VINA RESULT:      -7.2      2.221      2.963
REMARK  Name = 
REMARK  9 active torsions:
REMARK  status: ('A' for Active; 'I' for Inactive)
REMARK    1  A    between atoms: C_2  and  C_3
REMARK    2  A    between atoms: C_3  and  N_4
REMARK    3  A    between atoms: C_5  and  C_6
REMARK    4  A    between atoms: C_6  and  C_7
REMARK    5  A    between atoms: C_7  and  C_8
REMARK    6  A    between atoms: C_16  and  S_17
REMARK    7  A    between atoms: S_17  and  C_18
REMARK    8  A    between atoms: C_18  and  C_19
REMARK    9  A    between atoms: N_21  and  C_22
REMARK                            x       y       z     vdW  Elec       q    Type
REMARK                         _______ _______ _______ _____ _____    ______ ____
ROOT
ATOM      1  N   UNL     1      37.442   3.761  15.508  0.00  0.00    +0.000 N 
ATOM      2  C   UNL     1      38.385   4.293  16.293  0.00  0.00    +0.000 A 
ATOM      3  N   UNL     1      38.196   3.833  17.554  0.00  0.00    +0.000 NA
ATOM      4  N   UNL     1      37.154   3.040  17.516  0.00  0.00    +0.000 NA
ATOM      5  C   UNL     1      36.649   2.956  16.286  0.00  0.00    +0.000 A 
ENDROOT
BRANCH   1   6
ATOM      6  C   UNL     1      37.267   3.968  14.110  0.00  0.00    +0.000 C 
BRANCH   6   8
ATOM      7  C   UNL     1      37.751   1.848  12.798  0.00  0.00    +0.000 C 
ATOM      8  C   UNL     1      38.118   3.224  13.177  0.00  0.00    +0.000 C 
ENDBRANCH   6   8
ENDBRANCH   1   6
BRANCH   2   9
ATOM      9  C   UNL     1      39.494   5.240  15.944  0.00  0.00    +0.000 C 
BRANCH   9  10
ATOM     10  C   UNL     1      39.399   6.444  16.815  0.00  0.00    +0.000 C 
BRANCH  10  11
ATOM     11  C   UNL     1      40.439   6.461  17.894  0.00  0.00    +0.000 A 
ATOM     12  C   UNL     1      40.111   6.323  19.227  0.00  0.00    +0.000 A 
ATOM     13  C   UNL     1      41.056   6.337  20.232  0.00  0.00    +0.000 A 
ATOM     14  C   UNL     1      42.398   6.496  19.916  0.00  0.00    +0.000 A 
ATOM     15  C   UNL     1      42.742   6.637  18.586  0.00  0.00    +0.000 A 
ATOM     16  C   UNL     1      41.782   6.620  17.596  0.00  0.00    +0.000 A 
ENDBRANCH  10  11
ENDBRANCH   9  10
ENDBRANCH   2   9
BRANCH   5  17
ATOM     17  S   UNL     1      35.260   2.046  15.641  0.00  0.00    +0.000 S 
BRANCH  17  18
ATOM     18  C   UNL     1      34.743   0.794  16.827  0.00  0.00    +0.000 C 
BRANCH  18  19
ATOM     19  C   UNL     1      35.586  -0.415  16.699  0.00  0.00    +0.000 C 
ATOM     20  O   UNL     1      36.508  -0.440  15.849  0.00  0.00    +0.000 OA
ATOM     21  N   UNL     1      35.398  -1.564  17.507  0.00  0.00    +0.000 NA
BRANCH  21  22
ATOM     22  C   UNL     1      36.263  -2.671  17.303  0.00  0.00    +0.000 A 
ATOM     23  C   UNL     1      35.890  -3.635  16.399  0.00  0.00    +0.000 A 
ATOM     24  C   UNL     1      34.606  -3.502  15.661  0.00  0.00    +0.000 C 
ATOM     25  C   UNL     1      36.752  -4.699  16.223  0.00  0.00    +0.000 A 
ATOM     26  C   UNL     1      37.946  -4.805  16.921  0.00  0.00    +0.000 A 
ATOM     27  C   UNL     1      38.272  -3.809  17.819  0.00  0.00    +0.000 A 
ATOM     28  C   UNL     1      37.447  -2.734  18.026  0.00  0.00    +0.000 A 
ATOM     29  C   UNL     1      37.838  -1.685  19.001  0.00  0.00    +0.000 C 
ENDBRANCH  21  22
ENDBRANCH  18  19
ENDBRANCH  17  18
ENDBRANCH   5  17
TORSDOF 9
ENDMDL
MODEL 8
REMARK VINA RESULT:      -7.2      2.372      7.478
REMARK  Name = 
REMARK  9 active torsions:
REMARK  status: ('A' for Active; 'I' for Inactive)
REMARK    1  A    between atoms: C_2  and  C_3
REMARK    2  A    between atoms: C_3  and  N_4
REMARK    3  A    between atoms: C_5  and  C_6
REMARK    4  A    between atoms: C_6  and  C_7
REMARK    5  A    between atoms: C_7  and  C_8
REMARK    6  A    between atoms: C_16  and  S_17
REMARK    7  A    between atoms: S_17  and  C_18
REMARK    8  A    between atoms: C_18  and  C_19
REMARK    9  A    between atoms: N_21  and  C_22
REMARK                            x       y       z     vdW  Elec       q    Type
REMARK                         _______ _______ _______ _____ _____    ______ ____
ROOT
ATOM      1  N   UNL     1      36.804   1.300  15.280  0.00  0.00    +0.000 N 
ATOM      2  C   UNL     1      35.802   1.144  16.152  0.00  0.00    +0.000 A 
ATOM      3  N   UNL     1      35.373   2.373  16.528  0.00  0.00    +0.000 NA
ATOM      4  N   UNL     1      36.111   3.245  15.888  0.00  0.00    +0.000 NA
ATOM      5  C   UNL     1      37.007   2.646  15.105  0.00  0.00    +0.000 A 
ENDROOT
BRANCH   1   6
ATOM      6  C   UNL     1      37.545   0.274  14.626  0.00  0.00    +0.000 C 
BRANCH   6   8
ATOM      7  C   UNL     1      39.316  -1.530  14.867  0.00  0.00    +0.000 C 
ATOM      8  C   UNL     1      38.773  -0.218  15.258  0.00  0.00    +0.000 C 
ENDBRANCH   6   8
ENDBRANCH   1   6
BRANCH   2   9
ATOM      9  C   UNL     1      35.192  -0.116  16.688  0.00  0.00    +0.000 C 
BRANCH   9  10
ATOM     10  C   UNL     1      35.825  -0.448  17.994  0.00  0.00    +0.000 C 
BRANCH  10  11
ATOM     11  C   UNL     1      36.708  -1.656  17.919  0.00  0.00    +0.000 A 
ATOM     12  C   UNL     1      36.459  -2.690  17.040  0.00  0.00    +0.000 A 
ATOM     13  C   UNL     1      37.262  -3.810  16.960  0.00  0.00    +0.000 A 
ATOM     14  C   UNL     1      38.372  -3.924  17.786  0.00  0.00    +0.000 A 
ATOM     15  C   UNL     1      38.633  -2.898  18.671  0.00  0.00    +0.000 A 
ATOM     16  C   UNL     1      37.818  -1.787  18.737  0.00  0.00    +0.000 A 
ENDBRANCH  10  11
ENDBRANCH   9  10
ENDBRANCH   2   9
BRANCH   5  17
ATOM     17  S   UNL     1      38.255   3.307  14.019  0.00  0.00    +0.000 S 
BRANCH  17  18
ATOM     18  C   UNL     1      38.150   5.103  13.986  0.00  0.00    +0.000 C 
BRANCH  18  19
ATOM     19  C   UNL     1      38.754   5.677  15.208  0.00  0.00    +0.000 C 
ATOM     20  O   UNL     1      38.400   6.815  15.598  0.00  0.00    +0.000 OA
ATOM     21  N   UNL     1      39.729   4.988  15.972  0.00  0.00    +0.000 NA
BRANCH  21  22
ATOM     22  C   UNL     1      40.244   5.628  17.130  0.00  0.00    +0.000 A 
ATOM     23  C   UNL     1      39.581   5.459  18.320  0.00  0.00    +0.000 A 
ATOM     24  C   UNL     1      38.356   4.619  18.373  0.00  0.00    +0.000 C 
ATOM     25  C   UNL     1      40.107   6.094  19.428  0.00  0.00    +0.000 A 
ATOM     26  C   UNL     1      41.252   6.874  19.358  0.00  0.00    +0.000 A 
ATOM     27  C   UNL     1      41.878   7.012  18.136  0.00  0.00    +0.000 A 
ATOM     28  C   UNL     1      41.393   6.399  17.010  0.00  0.00    +0.000 A 
ATOM     29  C   UNL     1      42.099   6.574  15.716  0.00  0.00    +0.000 C 
ENDBRANCH  21  22
ENDBRANCH  18  19
ENDBRANCH  17  18
ENDBRANCH   5  17
TORSDOF 9
ENDMDL
MODEL 9
REMARK VINA RESULT:      -7.1      2.777      8.316
REMARK  Name = 
REMARK  9 active torsions:
REMARK  status: ('A' for Active; 'I' for Inactive)
REMARK    1  A    between atoms: C_2  and  C_3
REMARK    2  A    between atoms: C_3  and  N_4
REMARK    3  A    between atoms: C_5  and  C_6
REMARK    4  A    between atoms: C_6  and  C_7
REMARK    5  A    between atoms: C_7  and  C_8
REMARK    6  A    between atoms: C_16  and  S_17
REMARK    7  A    between atoms: S_17  and  C_18
REMARK    8  A    between atoms: C_18  and  C_19
REMARK    9  A    between atoms: N_21  and  C_22
REMARK                            x       y       z     vdW  Elec       q    Type
REMARK                         _______ _______ _______ _____ _____    ______ ____
ROOT
ATOM      1  N   UNL     1      37.423   2.732  15.115  0.00  0.00    +0.000 N 
ATOM      2  C   UNL     1      36.559   2.087  15.907  0.00  0.00    +0.000 A 
ATOM      3  N   UNL     1      36.680   2.587  17.161  0.00  0.00    +0.000 NA
ATOM      4  N   UNL     1      37.603   3.515  17.113  0.00  0.00    +0.000 NA
ATOM      5  C   UNL     1      38.095   3.650  15.883  0.00  0.00    +0.000 A 
ENDROOT
BRANCH   1   6
ATOM      6  C   UNL     1      37.628   2.531  13.721  0.00  0.00    +0.000 C 
BRANCH   6   8
ATOM      7  C   UNL     1      39.687   1.051  13.854  0.00  0.00    +0.000 C 
ATOM      8  C   UNL     1      38.360   1.339  13.282  0.00  0.00    +0.000 C 
ENDBRANCH   6   8
ENDBRANCH   1   6
BRANCH   2   9
ATOM      9  C   UNL     1      35.592   0.992  15.571  0.00  0.00    +0.000 C 
BRANCH   9  10
ATOM     10  C   UNL     1      35.916  -0.212  16.384  0.00  0.00    +0.000 C 
BRANCH  10  11
ATOM     11  C   UNL     1      36.941  -1.091  15.735  0.00  0.00    +0.000 A 
ATOM     12  C   UNL     1      38.173  -1.326  16.311  0.00  0.00    +0.000 A 
ATOM     13  C   UNL     1      39.128  -2.133  15.725  0.00  0.00    +0.000 A 
ATOM     14  C   UNL     1      38.862  -2.744  14.508  0.00  0.00    +0.000 A 
ATOM     15  C   UNL     1      37.634  -2.518  13.919  0.00  0.00    +0.000 A 
ATOM     16  C   UNL     1      36.693  -1.708  14.520  0.00  0.00    +0.000 A 
ENDBRANCH  10  11
ENDBRANCH   9  10
ENDBRANCH   2   9
BRANCH   5  17
ATOM     17  S   UNL     1      39.349   4.733  15.226  0.00  0.00    +0.000 S 
BRANCH  17  18
ATOM     18  C   UNL     1      38.687   6.397  15.046  0.00  0.00    +0.000 C 
BRANCH  18  19
ATOM     19  C   UNL     1      38.807   7.139  16.320  0.00  0.00    +0.000 C 
ATOM     20  O   UNL     1      39.687   8.025  16.439  0.00  0.00    +0.000 OA
ATOM     21  N   UNL     1      37.960   6.892  17.429  0.00  0.00    +0.000 NA
BRANCH  21  22
ATOM     22  C   UNL     1      38.160   7.661  18.605  0.00  0.00    +0.000 A 
ATOM     23  C   UNL     1      39.052   7.203  19.543  0.00  0.00    +0.000 A 
ATOM     24  C   UNL     1      39.781   5.928  19.311  0.00  0.00    +0.000 C 
ATOM     25  C   UNL     1      39.224   7.973  20.675  0.00  0.00    +0.000 A 
ATOM     26  C   UNL     1      38.534   9.160  20.874  0.00  0.00    +0.000 A 
ATOM     27  C   UNL     1      37.649   9.574  19.900  0.00  0.00    +0.000 A 
ATOM     28  C   UNL     1      37.446   8.843  18.759  0.00  0.00    +0.000 A 
ATOM     29  C   UNL     1      36.483   9.327  17.737  0.00  0.00    +0.000 C 
ENDBRANCH  21  22
ENDBRANCH  18  19
ENDBRANCH  17  18
ENDBRANCH   5  17
TORSDOF 9
ENDMDL
MODEL 10
REMARK VINA RESULT:      -7.0      1.273      2.292
REMARK  Name = 
REMARK  9 active torsions:
REMARK  status: ('A' for Active; 'I' for Inactive)
REMARK    1  A    between atoms: C_2  and  C_3
REMARK    2  A    between atoms: C_3  and  N_4
REMARK    3  A    between atoms: C_5  and  C_6
REMARK    4  A    between atoms: C_6  and  C_7
REMARK    5  A    between atoms: C_7  and  C_8
REMARK    6  A    between atoms: C_16  and  S_17
REMARK    7  A    between atoms: S_17  and  C_18
REMARK    8  A    between atoms: C_18  and  C_19
REMARK    9  A    between atoms: N_21  and  C_22
REMARK                            x       y       z     vdW  Elec       q    Type
REMARK                         _______ _______ _______ _____ _____    ______ ____
ROOT
ATOM      1  N   UNL     1      37.026   4.195  15.363  0.00  0.00    +0.000 N 
ATOM      2  C   UNL     1      37.751   4.683  16.375  0.00  0.00    +0.000 A 
ATOM      3  N   UNL     1      37.737   3.778  17.383  0.00  0.00    +0.000 NA
ATOM      4  N   UNL     1      37.012   2.766  16.974  0.00  0.00    +0.000 NA
ATOM      5  C   UNL     1      36.549   2.965  15.741  0.00  0.00    +0.000 A 
ENDROOT
BRANCH   1   6
ATOM      6  C   UNL     1      36.777   4.812  14.104  0.00  0.00    +0.000 C 
BRANCH   6   8
ATOM      7  C   UNL     1      38.679   5.768  12.719  0.00  0.00    +0.000 C 
ATOM      8  C   UNL     1      37.768   4.654  13.036  0.00  0.00    +0.000 C 
ENDBRANCH   6   8
ENDBRANCH   1   6
BRANCH   2   9
ATOM      9  C   UNL     1      38.484   5.987  16.480  0.00  0.00    +0.000 C 
BRANCH   9  10
ATOM     10  C   UNL     1      39.949   5.729  16.429  0.00  0.00    +0.000 C 
BRANCH  10  11
ATOM     11  C   UNL     1      40.645   6.082  17.708  0.00  0.00    +0.000 A 
ATOM     12  C   UNL     1      41.981   6.426  17.743  0.00  0.00    +0.000 A 
ATOM     13  C   UNL     1      42.636   6.752  18.913  0.00  0.00    +0.000 A 
ATOM     14  C   UNL     1      41.945   6.743  20.117  0.00  0.00    +0.000 A 
ATOM     15  C   UNL     1      40.608   6.399  20.098  0.00  0.00    +0.000 A 
ATOM     16  C   UNL     1      39.971   6.076  18.918  0.00  0.00    +0.000 A 
ENDBRANCH  10  11
ENDBRANCH   9  10
ENDBRANCH   2   9
BRANCH   5  17
ATOM     17  S   UNL     1      35.527   1.954  14.687  0.00  0.00    +0.000 S 
BRANCH  17  18
ATOM     18  C   UNL     1      36.556   1.057  13.514  0.00  0.00    +0.000 C 
BRANCH  18  19
ATOM     19  C   UNL     1      37.004  -0.226  14.099  0.00  0.00    +0.000 C 
ATOM     20  O   UNL     1      37.105  -1.238  13.365  0.00  0.00    +0.000 OA
ATOM     21  N   UNL     1      37.330  -0.366  15.471  0.00  0.00    +0.000 NA
BRANCH  21  22
ATOM     22  C   UNL     1      37.750  -1.642  15.930  0.00  0.00    +0.000 A 
ATOM     23  C   UNL     1      36.820  -2.467  16.511  0.00  0.00    +0.000 A 
ATOM     24  C   UNL     1      35.410  -2.014  16.647  0.00  0.00    +0.000 C 
ATOM     25  C   UNL     1      37.259  -3.701  16.947  0.00  0.00    +0.000 A 
ATOM     26  C   UNL     1      38.579  -4.105  16.812  0.00  0.00    +0.000 A 
ATOM     27  C   UNL     1      39.473  -3.237  16.220  0.00  0.00    +0.000 A 
ATOM     28  C   UNL     1      39.082  -2.003  15.772  0.00  0.00    +0.000 A 
ATOM     29  C   UNL     1      40.079  -1.100  15.141  0.00  0.00    +0.000 C 
ENDBRANCH  21  22
ENDBRANCH  18  19
ENDBRANCH  17  18
ENDBRANCH   5  17
TORSDOF 9
ENDMDL
