MODEL 1
REMARK VINA RESULT:      -7.4      0.000      0.000
REMARK  Name = 
REMARK  7 active torsions:
REMARK  status: ('A' for Active; 'I' for Inactive)
REMARK    1  A    between atoms: O_2  and  C_3
REMARK    2  A    between atoms: C_5  and  C_6
REMARK    3  A    between atoms: C_16  and  O_17
REMARK    4  A    between atoms: O_17  and  C_18
REMARK    5  A    between atoms: C_18  and  C_19
REMARK    6  A    between atoms: C_28  and  O_29
REMARK    7  A    between atoms: C_31  and  O_32
REMARK                            x       y       z     vdW  Elec       q    Type
REMARK                         _______ _______ _______ _____ _____    ______ ____
ROOT
ATOM      1  C   UNL     1      36.801   0.735  14.972  0.00  0.00    +0.000 C 
ATOM      2  N   UNL     1      36.931   0.341  16.493  0.00  0.00    +0.000 NA
ATOM      3  C   UNL     1      35.848   1.090  17.108  0.00  0.00    +0.000 C 
ATOM      4  C   UNL     1      35.797   2.523  16.599  0.00  0.00    +0.000 C 
ATOM      5  C   UNL     1      37.088   2.879  15.927  0.00  0.00    +0.000 A 
ATOM      6  C   UNL     1      37.710   2.028  15.056  0.00  0.00    +0.000 A 
ATOM      7  N   UNL     1      38.785   2.538  14.611  0.00  0.00    +0.000 NA
ATOM      8  C   UNL     1      38.974   3.758  15.138  0.00  0.00    +0.000 A 
ATOM      9  C   UNL     1      39.916   4.754  15.042  0.00  0.00    +0.000 A 
ATOM     10  C   UNL     1      39.781   5.931  15.762  0.00  0.00    +0.000 A 
ATOM     11  C   UNL     1      38.701   6.152  16.601  0.00  0.00    +0.000 A 
ATOM     12  C   UNL     1      37.758   5.156  16.698  0.00  0.00    +0.000 A 
ATOM     13  C   UNL     1      37.912   4.005  15.980  0.00  0.00    +0.000 A 
ENDROOT
BRANCH   1  16
ATOM     14  C   UNL     1      39.364  -2.070  14.953  0.00  0.00    +0.000 A 
ATOM     15  C   UNL     1      38.419  -1.102  15.334  0.00  0.00    +0.000 A 
ATOM     16  C   UNL     1      37.827  -0.287  14.422  0.00  0.00    +0.000 A 
ATOM     17  C   UNL     1      38.150  -0.405  13.111  0.00  0.00    +0.000 A 
ATOM     18  C   UNL     1      39.089  -1.357  12.682  0.00  0.00    +0.000 A 
ATOM     19  C   UNL     1      39.673  -2.165  13.609  0.00  0.00    +0.000 A 
BRANCH  14  21
ATOM     20  C   UNL     1      39.203  -3.408  16.930  0.00  0.00    +0.000 C 
ATOM     21  O   UNL     1      39.991  -2.920  15.846  0.00  0.00    +0.000 OA
ENDBRANCH  14  21
BRANCH  18  22
ATOM     22  O   UNL     1      39.431  -1.492  11.353  0.00  0.00    +0.000 OA
ATOM     23  C   UNL     1      39.959  -0.426  10.576  0.00  0.00    +0.000 C 
ENDBRANCH  18  22
BRANCH  19  24
ATOM     24  O   UNL     1      40.613  -3.115  13.153  0.00  0.00    +0.000 OA
ATOM     25  C   UNL     1      41.986  -2.786  13.138  0.00  0.00    +0.000 C 
ENDBRANCH  19  24
ENDBRANCH   1  16
BRANCH  11  26
ATOM     26  O   UNL     1      38.529   7.293  17.328  0.00  0.00    +0.000 OA
BRANCH  26  27
ATOM     27  C   UNL     1      38.337   7.328  18.718  0.00  0.00    +0.000 C 
BRANCH  27  28
ATOM     28  C   UNL     1      39.677   7.319  19.352  0.00  0.00    +0.000 A 
ATOM     29  C   UNL     1      40.276   8.566  19.529  0.00  0.00    +0.000 A 
ATOM     30  C   UNL     1      41.523   8.695  20.096  0.00  0.00    +0.000 A 
ATOM     31  C   UNL     1      42.177   7.554  20.492  0.00  0.00    +0.000 A 
ATOM     32  C   UNL     1      41.589   6.310  20.321  0.00  0.00    +0.000 A 
ATOM     33  C   UNL     1      40.342   6.200  19.751  0.00  0.00    +0.000 A 
ENDBRANCH  27  28
ENDBRANCH  26  27
ENDBRANCH  11  26
TORSDOF 7
ENDMDL
MODEL 2
REMARK VINA RESULT:      -7.4      2.238      9.238
REMARK  Name = 
REMARK  7 active torsions:
REMARK  status: ('A' for Active; 'I' for Inactive)
REMARK    1  A    between atoms: O_2  and  C_3
REMARK    2  A    between atoms: C_5  and  C_6
REMARK    3  A    between atoms: C_16  and  O_17
REMARK    4  A    between atoms: O_17  and  C_18
REMARK    5  A    between atoms: C_18  and  C_19
REMARK    6  A    between atoms: C_28  and  O_29
REMARK    7  A    between atoms: C_31  and  O_32
REMARK                            x       y       z     vdW  Elec       q    Type
REMARK                         _______ _______ _______ _____ _____    ______ ____
ROOT
ATOM      1  C   UNL     1      38.117   4.823  14.866  0.00  0.00    +0.000 C 
ATOM      2  N   UNL     1      39.526   4.153  15.090  0.00  0.00    +0.000 NA
ATOM      3  C   UNL     1      39.680   3.333  13.900  0.00  0.00    +0.000 C 
ATOM      4  C   UNL     1      38.408   2.560  13.583  0.00  0.00    +0.000 C 
ATOM      5  C   UNL     1      37.504   2.540  14.777  0.00  0.00    +0.000 A 
ATOM      6  C   UNL     1      37.272   3.659  15.529  0.00  0.00    +0.000 A 
ATOM      7  N   UNL     1      36.476   3.408  16.487  0.00  0.00    +0.000 NA
ATOM      8  C   UNL     1      36.112   2.116  16.461  0.00  0.00    +0.000 A 
ATOM      9  C   UNL     1      35.305   1.289  17.206  0.00  0.00    +0.000 A 
ATOM     10  C   UNL     1      35.158  -0.048  16.872  0.00  0.00    +0.000 A 
ATOM     11  C   UNL     1      35.811  -0.604  15.784  0.00  0.00    +0.000 A 
ATOM     12  C   UNL     1      36.618   0.222  15.037  0.00  0.00    +0.000 A 
ATOM     13  C   UNL     1      36.748   1.536  15.385  0.00  0.00    +0.000 A 
ENDROOT
BRANCH   1  16
ATOM     14  C   UNL     1      37.692   8.049  16.828  0.00  0.00    +0.000 A 
ATOM     15  C   UNL     1      37.685   7.062  15.829  0.00  0.00    +0.000 A 
ATOM     16  C   UNL     1      38.188   5.818  16.051  0.00  0.00    +0.000 A 
ATOM     17  C   UNL     1      38.711   5.516  17.264  0.00  0.00    +0.000 A 
ATOM     18  C   UNL     1      38.741   6.470  18.296  0.00  0.00    +0.000 A 
ATOM     19  C   UNL     1      38.233   7.710  18.055  0.00  0.00    +0.000 A 
BRANCH  14  21
ATOM     20  C   UNL     1      35.780   9.444  16.482  0.00  0.00    +0.000 C 
ATOM     21  O   UNL     1      37.192   9.325  16.647  0.00  0.00    +0.000 OA
ENDBRANCH  14  21
BRANCH  18  22
ATOM     22  O   UNL     1      39.268   6.181  19.536  0.00  0.00    +0.000 OA
ATOM     23  C   UNL     1      40.642   6.352  19.854  0.00  0.00    +0.000 C 
ENDBRANCH  18  22
BRANCH  19  24
ATOM     24  O   UNL     1      38.273   8.650  19.108  0.00  0.00    +0.000 OA
ATOM     25  C   UNL     1      37.162   8.782  19.969  0.00  0.00    +0.000 C 
ENDBRANCH  19  24
ENDBRANCH   1  16
BRANCH  11  26
ATOM     26  O   UNL     1      35.696  -1.914  15.420  0.00  0.00    +0.000 OA
BRANCH  26  27
ATOM     27  C   UNL     1      36.545  -2.939  15.865  0.00  0.00    +0.000 C 
BRANCH  27  28
ATOM     28  C   UNL     1      37.789  -2.866  15.063  0.00  0.00    +0.000 A 
ATOM     29  C   UNL     1      38.962  -2.626  15.779  0.00  0.00    +0.000 A 
ATOM     30  C   UNL     1      40.184  -2.526  15.153  0.00  0.00    +0.000 A 
ATOM     31  C   UNL     1      40.226  -2.668  13.786  0.00  0.00    +0.000 A 
ATOM     32  C   UNL     1      39.065  -2.907  13.068  0.00  0.00    +0.000 A 
ATOM     33  C   UNL     1      37.853  -3.003  13.710  0.00  0.00    +0.000 A 
ENDBRANCH  27  28
ENDBRANCH  26  27
ENDBRANCH  11  26
TORSDOF 7
ENDMDL
MODEL 3
REMARK VINA RESULT:      -7.3      2.258      9.280
REMARK  Name = 
REMARK  7 active torsions:
REMARK  status: ('A' for Active; 'I' for Inactive)
REMARK    1  A    between atoms: O_2  and  C_3
REMARK    2  A    between atoms: C_5  and  C_6
REMARK    3  A    between atoms: C_16  and  O_17
REMARK    4  A    between atoms: O_17  and  C_18
REMARK    5  A    between atoms: C_18  and  C_19
REMARK    6  A    between atoms: C_28  and  O_29
REMARK    7  A    between atoms: C_31  and  O_32
REMARK                            x       y       z     vdW  Elec       q    Type
REMARK                         _______ _______ _______ _____ _____    ______ ____
ROOT
ATOM      1  C   UNL     1      38.515   5.605  15.515  0.00  0.00    +0.000 C 
ATOM      2  N   UNL     1      39.952   4.963  15.590  0.00  0.00    +0.000 NA
ATOM      3  C   UNL     1      40.140   4.447  14.244  0.00  0.00    +0.000 C 
ATOM      4  C   UNL     1      38.903   3.715  13.746  0.00  0.00    +0.000 C 
ATOM      5  C   UNL     1      38.002   3.381  14.896  0.00  0.00    +0.000 A 
ATOM      6  C   UNL     1      37.723   4.285  15.883  0.00  0.00    +0.000 A 
ATOM      7  N   UNL     1      36.940   3.785  16.750  0.00  0.00    +0.000 NA
ATOM      8  C   UNL     1      36.632   2.520  16.423  0.00  0.00    +0.000 A 
ATOM      9  C   UNL     1      35.863   1.509  16.950  0.00  0.00    +0.000 A 
ATOM     10  C   UNL     1      35.774   0.281  16.314  0.00  0.00    +0.000 A 
ATOM     11  C   UNL     1      36.449   0.020  15.133  0.00  0.00    +0.000 A 
ATOM     12  C   UNL     1      37.218   1.030  14.605  0.00  0.00    +0.000 A 
ATOM     13  C   UNL     1      37.292   2.232  15.248  0.00  0.00    +0.000 A 
ENDROOT
BRANCH   1  16
ATOM     14  C   UNL     1      39.620   6.432  19.055  0.00  0.00    +0.000 A 
ATOM     15  C   UNL     1      39.494   5.873  17.772  0.00  0.00    +0.000 A 
ATOM     16  C   UNL     1      38.545   6.302  16.898  0.00  0.00    +0.000 A 
ATOM     17  C   UNL     1      37.696   7.291  17.266  0.00  0.00    +0.000 A 
ATOM     18  C   UNL     1      37.782   7.881  18.539  0.00  0.00    +0.000 A 
ATOM     19  C   UNL     1      38.738   7.439  19.401  0.00  0.00    +0.000 A 
BRANCH  14  21
ATOM     20  C   UNL     1      41.906   6.475  19.759  0.00  0.00    +0.000 C 
ATOM     21  O   UNL     1      40.569   6.028  19.976  0.00  0.00    +0.000 OA
ENDBRANCH  14  21
BRANCH  18  22
ATOM     22  O   UNL     1      36.926   8.889  18.931  0.00  0.00    +0.000 OA
ATOM     23  C   UNL     1      36.296   9.772  18.015  0.00  0.00    +0.000 C 
ENDBRANCH  18  22
BRANCH  19  24
ATOM     24  O   UNL     1      38.805   8.048  20.673  0.00  0.00    +0.000 OA
ATOM     25  C   UNL     1      39.493   9.272  20.826  0.00  0.00    +0.000 C 
ENDBRANCH  19  24
ENDBRANCH   1  16
BRANCH  11  26
ATOM     26  O   UNL     1      36.391  -1.174  14.475  0.00  0.00    +0.000 OA
BRANCH  26  27
ATOM     27  C   UNL     1      37.512  -1.934  14.107  0.00  0.00    +0.000 C 
BRANCH  27  28
ATOM     28  C   UNL     1      37.871  -2.787  15.264  0.00  0.00    +0.000 A 
ATOM     29  C   UNL     1      37.094  -3.931  15.441  0.00  0.00    +0.000 A 
ATOM     30  C   UNL     1      37.317  -4.803  16.483  0.00  0.00    +0.000 A 
ATOM     31  C   UNL     1      38.337  -4.519  17.359  0.00  0.00    +0.000 A 
ATOM     32  C   UNL     1      39.115  -3.384  17.190  0.00  0.00    +0.000 A 
ATOM     33  C   UNL     1      38.877  -2.524  16.143  0.00  0.00    +0.000 A 
ENDBRANCH  27  28
ENDBRANCH  26  27
ENDBRANCH  11  26
TORSDOF 7
ENDMDL
MODEL 4
REMARK VINA RESULT:      -7.2     26.175     30.241
REMARK  Name = 
REMARK  7 active torsions:
REMARK  status: ('A' for Active; 'I' for Inactive)
REMARK    1  A    between atoms: O_2  and  C_3
REMARK    2  A    between atoms: C_5  and  C_6
REMARK    3  A    between atoms: C_16  and  O_17
REMARK    4  A    between atoms: O_17  and  C_18
REMARK    5  A    between atoms: C_18  and  C_19
REMARK    6  A    between atoms: C_28  and  O_29
REMARK    7  A    between atoms: C_31  and  O_32
REMARK                            x       y       z     vdW  Elec       q    Type
REMARK                         _______ _______ _______ _____ _____    ______ ____
ROOT
ATOM      1  C   UNL     1      26.950  12.858  42.647  0.00  0.00    +0.000 C 
ATOM      2  N   UNL     1      27.880  11.845  41.878  0.00  0.00    +0.000 NA
ATOM      3  C   UNL     1      29.086  12.625  41.659  0.00  0.00    +0.000 C 
ATOM      4  C   UNL     1      28.765  14.030  41.168  0.00  0.00    +0.000 C 
ATOM      5  C   UNL     1      27.353  14.092  40.670  0.00  0.00    +0.000 A 
ATOM      6  C   UNL     1      26.317  13.519  41.355  0.00  0.00    +0.000 A 
ATOM      7  N   UNL     1      25.216  13.698  40.747  0.00  0.00    +0.000 NA
ATOM      8  C   UNL     1      25.416  14.396  39.619  0.00  0.00    +0.000 A 
ATOM      9  C   UNL     1      24.641  14.877  38.590  0.00  0.00    +0.000 A 
ATOM     10  C   UNL     1      25.211  15.588  37.545  0.00  0.00    +0.000 A 
ATOM     11  C   UNL     1      26.573  15.841  37.492  0.00  0.00    +0.000 A 
ATOM     12  C   UNL     1      27.348  15.361  38.521  0.00  0.00    +0.000 A 
ATOM     13  C   UNL     1      26.765  14.663  39.540  0.00  0.00    +0.000 A 
ENDROOT
BRANCH   1  16
ATOM     14  C   UNL     1      25.166   9.532  43.085  0.00  0.00    +0.000 A 
ATOM     15  C   UNL     1      26.102  10.538  42.788  0.00  0.00    +0.000 A 
ATOM     16  C   UNL     1      25.832  11.851  43.015  0.00  0.00    +0.000 A 
ATOM     17  C   UNL     1      24.635  12.206  43.541  0.00  0.00    +0.000 A 
ATOM     18  C   UNL     1      23.667  11.237  43.853  0.00  0.00    +0.000 A 
ATOM     19  C   UNL     1      23.954   9.927  43.619  0.00  0.00    +0.000 A 
BRANCH  14  21
ATOM     20  C   UNL     1      26.088   7.834  41.674  0.00  0.00    +0.000 C 
ATOM     21  O   UNL     1      25.397   8.185  42.871  0.00  0.00    +0.000 OA
ENDBRANCH  14  21
BRANCH  18  22
ATOM     22  O   UNL     1      22.443  11.579  44.388  0.00  0.00    +0.000 OA
ATOM     23  C   UNL     1      21.440  12.265  43.653  0.00  0.00    +0.000 C 
ENDBRANCH  18  22
BRANCH  19  24
ATOM     24  O   UNL     1      22.965   8.972  43.943  0.00  0.00    +0.000 OA
ATOM     25  C   UNL     1      22.951   8.391  45.229  0.00  0.00    +0.000 C 
ENDBRANCH  19  24
ENDBRANCH   1  16
BRANCH  11  26
ATOM     26  O   UNL     1      27.175  16.535  36.484  0.00  0.00    +0.000 OA
BRANCH  26  27
ATOM     27  C   UNL     1      27.712  15.948  35.327  0.00  0.00    +0.000 C 
BRANCH  27  28
ATOM     28  C   UNL     1      26.630  15.883  34.318  0.00  0.00    +0.000 A 
ATOM     29  C   UNL     1      26.308  14.608  33.851  0.00  0.00    +0.000 A 
ATOM     30  C   UNL     1      25.327  14.411  32.905  0.00  0.00    +0.000 A 
ATOM     31  C   UNL     1      24.661  15.511  32.421  0.00  0.00    +0.000 A 
ATOM     32  C   UNL     1      24.976  16.781  32.880  0.00  0.00    +0.000 A 
ATOM     33  C   UNL     1      25.959  16.960  33.825  0.00  0.00    +0.000 A 
ENDBRANCH  27  28
ENDBRANCH  26  27
ENDBRANCH  11  26
TORSDOF 7
ENDMDL
MODEL 5
REMARK VINA RESULT:      -7.1      2.161      3.101
REMARK  Name = 
REMARK  7 active torsions:
REMARK  status: ('A' for Active; 'I' for Inactive)
REMARK    1  A    between atoms: O_2  and  C_3
REMARK    2  A    between atoms: C_5  and  C_6
REMARK    3  A    between atoms: C_16  and  O_17
REMARK    4  A    between atoms: O_17  and  C_18
REMARK    5  A    between atoms: C_18  and  C_19
REMARK    6  A    between atoms: C_28  and  O_29
REMARK    7  A    between atoms: C_31  and  O_32
REMARK                            x       y       z     vdW  Elec       q    Type
REMARK                         _______ _______ _______ _____ _____    ______ ____
ROOT
ATOM      1  C   UNL     1      36.490   1.676  14.661  0.00  0.00    +0.000 C 
ATOM      2  N   UNL     1      35.337   1.942  15.702  0.00  0.00    +0.000 NA
ATOM      3  C   UNL     1      34.520   2.935  15.024  0.00  0.00    +0.000 C 
ATOM      4  C   UNL     1      35.372   4.029  14.396  0.00  0.00    +0.000 C 
ATOM      5  C   UNL     1      36.753   4.005  14.977  0.00  0.00    +0.000 A 
ATOM      6  C   UNL     1      37.440   2.838  15.165  0.00  0.00    +0.000 A 
ATOM      7  N   UNL     1      38.586   3.060  15.668  0.00  0.00    +0.000 NA
ATOM      8  C   UNL     1      38.762   4.376  15.860  0.00  0.00    +0.000 A 
ATOM      9  C   UNL     1      39.754   5.192  16.350  0.00  0.00    +0.000 A 
ATOM     10  C   UNL     1      39.583   6.567  16.399  0.00  0.00    +0.000 A 
ATOM     11  C   UNL     1      38.417   7.172  15.960  0.00  0.00    +0.000 A 
ATOM     12  C   UNL     1      37.424   6.358  15.468  0.00  0.00    +0.000 A 
ATOM     13  C   UNL     1      37.615   5.006  15.430  0.00  0.00    +0.000 A 
ENDROOT
BRANCH   1  16
ATOM     14  C   UNL     1      37.016  -1.018  17.288  0.00  0.00    +0.000 A 
ATOM     15  C   UNL     1      36.529   0.069  16.543  0.00  0.00    +0.000 A 
ATOM     16  C   UNL     1      37.127   0.466  15.388  0.00  0.00    +0.000 A 
ATOM     17  C   UNL     1      38.219  -0.199  14.938  0.00  0.00    +0.000 A 
ATOM     18  C   UNL     1      38.743  -1.292  15.649  0.00  0.00    +0.000 A 
ATOM     19  C   UNL     1      38.132  -1.675  16.803  0.00  0.00    +0.000 A 
BRANCH  14  21
ATOM     20  C   UNL     1      35.804  -0.471  19.277  0.00  0.00    +0.000 C 
ATOM     21  O   UNL     1      36.440  -1.457  18.467  0.00  0.00    +0.000 OA
ENDBRANCH  14  21
BRANCH  18  22
ATOM     22  O   UNL     1      39.854  -1.980  15.208  0.00  0.00    +0.000 OA
ATOM     23  C   UNL     1      40.971  -1.344  14.605  0.00  0.00    +0.000 C 
ENDBRANCH  18  22
BRANCH  19  24
ATOM     24  O   UNL     1      38.676  -2.777  17.499  0.00  0.00    +0.000 OA
ATOM     25  C   UNL     1      38.187  -4.076  17.241  0.00  0.00    +0.000 C 
ENDBRANCH  19  24
ENDBRANCH   1  16
BRANCH  11  26
ATOM     26  O   UNL     1      38.206   8.520  15.991  0.00  0.00    +0.000 OA
BRANCH  26  27
ATOM     27  C   UNL     1      37.264   9.158  16.812  0.00  0.00    +0.000 C 
BRANCH  27  28
ATOM     28  C   UNL     1      37.878   9.320  18.151  0.00  0.00    +0.000 A 
ATOM     29  C   UNL     1      37.261   8.627  19.192  0.00  0.00    +0.000 A 
ATOM     30  C   UNL     1      37.726   8.699  20.486  0.00  0.00    +0.000 A 
ATOM     31  C   UNL     1      38.829   9.481  20.735  0.00  0.00    +0.000 A 
ATOM     32  C   UNL     1      39.448  10.173  19.706  0.00  0.00    +0.000 A 
ATOM     33  C   UNL     1      38.969  10.089  18.420  0.00  0.00    +0.000 A 
ENDBRANCH  27  28
ENDBRANCH  26  27
ENDBRANCH  11  26
TORSDOF 7
ENDMDL
MODEL 6
REMARK VINA RESULT:      -7.0      2.332      4.010
REMARK  Name = 
REMARK  7 active torsions:
REMARK  status: ('A' for Active; 'I' for Inactive)
REMARK    1  A    between atoms: O_2  and  C_3
REMARK    2  A    between atoms: C_5  and  C_6
REMARK    3  A    between atoms: C_16  and  O_17
REMARK    4  A    between atoms: O_17  and  C_18
REMARK    5  A    between atoms: C_18  and  C_19
REMARK    6  A    between atoms: C_28  and  O_29
REMARK    7  A    between atoms: C_31  and  O_32
REMARK                            x       y       z     vdW  Elec       q    Type
REMARK                         _______ _______ _______ _____ _____    ______ ____
ROOT
ATOM      1  C   UNL     1      37.343   3.410  14.565  0.00  0.00    +0.000 C 
ATOM      2  N   UNL     1      35.833   3.746  14.866  0.00  0.00    +0.000 NA
ATOM      3  C   UNL     1      35.672   5.053  14.253  0.00  0.00    +0.000 C 
ATOM      4  C   UNL     1      36.834   5.978  14.585  0.00  0.00    +0.000 C 
ATOM      5  C   UNL     1      37.605   5.439  15.752  0.00  0.00    +0.000 A 
ATOM      6  C   UNL     1      37.932   4.115  15.855  0.00  0.00    +0.000 A 
ATOM      7  N   UNL     1      38.583   3.888  16.923  0.00  0.00    +0.000 NA
ATOM      8  C   UNL     1      38.745   5.025  17.618  0.00  0.00    +0.000 A 
ATOM      9  C   UNL     1      39.339   5.398  18.799  0.00  0.00    +0.000 A 
ATOM     10  C   UNL     1      39.311   6.718  19.222  0.00  0.00    +0.000 A 
ATOM     11  C   UNL     1      38.689   7.709  18.479  0.00  0.00    +0.000 A 
ATOM     12  C   UNL     1      38.095   7.337  17.297  0.00  0.00    +0.000 A 
ATOM     13  C   UNL     1      38.135   6.030  16.900  0.00  0.00    +0.000 A 
ENDROOT
BRANCH   1  16
ATOM     14  C   UNL     1      38.273  -0.265  14.830  0.00  0.00    +0.000 A 
ATOM     15  C   UNL     1      38.206   1.092  14.472  0.00  0.00    +0.000 A 
ATOM     16  C   UNL     1      37.311   1.938  15.048  0.00  0.00    +0.000 A 
ATOM     17  C   UNL     1      36.460   1.469  15.992  0.00  0.00    +0.000 A 
ATOM     18  C   UNL     1      36.489   0.120  16.384  0.00  0.00    +0.000 A 
ATOM     19  C   UNL     1      37.391  -0.713  15.796  0.00  0.00    +0.000 A 
BRANCH  14  21
ATOM     20  C   UNL     1      40.530  -1.038  14.666  0.00  0.00    +0.000 C 
ATOM     21  O   UNL     1      39.166  -1.161  14.271  0.00  0.00    +0.000 OA
ENDBRANCH  14  21
BRANCH  18  22
ATOM     22  O   UNL     1      35.630  -0.376  17.342  0.00  0.00    +0.000 OA
ATOM     23  C   UNL     1      35.774  -0.101  18.728  0.00  0.00    +0.000 C 
ENDBRANCH  18  22
BRANCH  19  24
ATOM     24  O   UNL     1      37.400  -2.064  16.207  0.00  0.00    +0.000 OA
ATOM     25  C   UNL     1      38.257  -2.469  17.254  0.00  0.00    +0.000 C 
ENDBRANCH  19  24
ENDBRANCH   1  16
BRANCH  11  26
ATOM     26  O   UNL     1      38.636   9.019  18.858  0.00  0.00    +0.000 OA
BRANCH  26  27
ATOM     27  C   UNL     1      38.141   9.469  20.091  0.00  0.00    +0.000 C 
BRANCH  27  28
ATOM     28  C   UNL     1      39.154  10.382  20.671  0.00  0.00    +0.000 A 
ATOM     29  C   UNL     1      38.664  11.568  21.216  0.00  0.00    +0.000 A 
ATOM     30  C   UNL     1      39.501  12.506  21.778  0.00  0.00    +0.000 A 
ATOM     31  C   UNL     1      40.850  12.246  21.791  0.00  0.00    +0.000 A 
ATOM     32  C   UNL     1      41.345  11.069  21.251  0.00  0.00    +0.000 A 
ATOM     33  C   UNL     1      40.494  10.144  20.694  0.00  0.00    +0.000 A 
ENDBRANCH  27  28
ENDBRANCH  26  27
ENDBRANCH  11  26
TORSDOF 7
ENDMDL
MODEL 7
REMARK VINA RESULT:      -7.0      5.452     11.450
REMARK  Name = 
REMARK  7 active torsions:
REMARK  status: ('A' for Active; 'I' for Inactive)
REMARK    1  A    between atoms: O_2  and  C_3
REMARK    2  A    between atoms: C_5  and  C_6
REMARK    3  A    between atoms: C_16  and  O_17
REMARK    4  A    between atoms: O_17  and  C_18
REMARK    5  A    between atoms: C_18  and  C_19
REMARK    6  A    between atoms: C_28  and  O_29
REMARK    7  A    between atoms: C_31  and  O_32
REMARK                            x       y       z     vdW  Elec       q    Type
REMARK                         _______ _______ _______ _____ _____    ______ ____
ROOT
ATOM      1  C   UNL     1      38.562  -2.428  15.891  0.00  0.00    +0.000 C 
ATOM      2  N   UNL     1      38.201  -2.288  17.419  0.00  0.00    +0.000 NA
ATOM      3  C   UNL     1      38.690  -3.538  17.976  0.00  0.00    +0.000 C 
ATOM      4  C   UNL     1      38.300  -4.729  17.113  0.00  0.00    +0.000 C 
ATOM      5  C   UNL     1      37.202  -4.343  16.168  0.00  0.00    +0.000 A 
ATOM      6  C   UNL     1      37.226  -3.166  15.471  0.00  0.00    +0.000 A 
ATOM      7  N   UNL     1      36.198  -3.053  14.734  0.00  0.00    +0.000 NA
ATOM      8  C   UNL     1      35.406  -4.128  14.872  0.00  0.00    +0.000 A 
ATOM      9  C   UNL     1      34.208  -4.560  14.356  0.00  0.00    +0.000 A 
ATOM     10  C   UNL     1      33.667  -5.777  14.741  0.00  0.00    +0.000 A 
ATOM     11  C   UNL     1      34.304  -6.602  15.655  0.00  0.00    +0.000 A 
ATOM     12  C   UNL     1      35.503  -6.170  16.171  0.00  0.00    +0.000 A 
ATOM     13  C   UNL     1      36.017  -4.968  15.777  0.00  0.00    +0.000 A 
ENDROOT
BRANCH   1  16
ATOM     14  C   UNL     1      38.746   0.879  14.029  0.00  0.00    +0.000 A 
ATOM     15  C   UNL     1      38.969  -0.430  14.489  0.00  0.00    +0.000 A 
ATOM     16  C   UNL     1      38.214  -0.976  15.479  0.00  0.00    +0.000 A 
ATOM     17  C   UNL     1      37.220  -0.247  16.040  0.00  0.00    +0.000 A 
ATOM     18  C   UNL     1      36.958   1.066  15.614  0.00  0.00    +0.000 A 
ATOM     19  C   UNL     1      37.724   1.597  14.622  0.00  0.00    +0.000 A 
BRANCH  14  21
ATOM     20  C   UNL     1      40.860   1.738  13.311  0.00  0.00    +0.000 C 
ATOM     21  O   UNL     1      39.488   1.474  13.025  0.00  0.00    +0.000 OA
ENDBRANCH  14  21
BRANCH  18  22
ATOM     22  O   UNL     1      35.950   1.824  16.173  0.00  0.00    +0.000 OA
ATOM     23  C   UNL     1      34.889   1.264  16.933  0.00  0.00    +0.000 C 
ENDBRANCH  18  22
BRANCH  19  24
ATOM     24  O   UNL     1      37.441   2.918  14.210  0.00  0.00    +0.000 OA
ATOM     25  C   UNL     1      38.146   3.995  14.790  0.00  0.00    +0.000 C 
ENDBRANCH  19  24
ENDBRANCH   1  16
BRANCH  11  26
ATOM     26  O   UNL     1      33.808  -7.806  16.062  0.00  0.00    +0.000 OA
BRANCH  26  27
ATOM     27  C   UNL     1      34.253  -9.049  15.587  0.00  0.00    +0.000 C 
BRANCH  27  28
ATOM     28  C   UNL     1      33.545  -9.318  14.314  0.00  0.00    +0.000 A 
ATOM     29  C   UNL     1      34.336  -9.322  13.166  0.00  0.00    +0.000 A 
ATOM     30  C   UNL     1      33.801  -9.550  11.918  0.00  0.00    +0.000 A 
ATOM     31  C   UNL     1      32.448  -9.776  11.824  0.00  0.00    +0.000 A 
ATOM     32  C   UNL     1      31.654  -9.774  12.961  0.00  0.00    +0.000 A 
ATOM     33  C   UNL     1      32.207  -9.544  14.199  0.00  0.00    +0.000 A 
ENDBRANCH  27  28
ENDBRANCH  26  27
ENDBRANCH  11  26
TORSDOF 7
ENDMDL
MODEL 8
REMARK VINA RESULT:      -7.0      5.189      7.688
REMARK  Name = 
REMARK  7 active torsions:
REMARK  status: ('A' for Active; 'I' for Inactive)
REMARK    1  A    between atoms: O_2  and  C_3
REMARK    2  A    between atoms: C_5  and  C_6
REMARK    3  A    between atoms: C_16  and  O_17
REMARK    4  A    between atoms: O_17  and  C_18
REMARK    5  A    between atoms: C_18  and  C_19
REMARK    6  A    between atoms: C_28  and  O_29
REMARK    7  A    between atoms: C_31  and  O_32
REMARK                            x       y       z     vdW  Elec       q    Type
REMARK                         _______ _______ _______ _____ _____    ______ ____
ROOT
ATOM      1  C   UNL     1      42.108  -0.708  13.750  0.00  0.00    +0.000 C 
ATOM      2  N   UNL     1      41.638  -1.105  12.300  0.00  0.00    +0.000 NA
ATOM      3  C   UNL     1      40.586  -0.139  12.032  0.00  0.00    +0.000 C 
ATOM      4  C   UNL     1      39.648   0.015  13.221  0.00  0.00    +0.000 C 
ATOM      5  C   UNL     1      39.820  -1.136  14.166  0.00  0.00    +0.000 A 
ATOM      6  C   UNL     1      41.055  -1.605  14.519  0.00  0.00    +0.000 A 
ATOM      7  N   UNL     1      40.957  -2.581  15.328  0.00  0.00    +0.000 NA
ATOM      8  C   UNL     1      39.666  -2.846  15.581  0.00  0.00    +0.000 A 
ATOM      9  C   UNL     1      38.961  -3.747  16.343  0.00  0.00    +0.000 A 
ATOM     10  C   UNL     1      37.575  -3.728  16.364  0.00  0.00    +0.000 A 
ATOM     11  C   UNL     1      36.847  -2.809  15.625  0.00  0.00    +0.000 A 
ATOM     12  C   UNL     1      37.551  -1.907  14.863  0.00  0.00    +0.000 A 
ATOM     13  C   UNL     1      38.916  -1.945  14.857  0.00  0.00    +0.000 A 
ENDROOT
BRANCH   1  16
ATOM     14  C   UNL     1      44.549  -3.447  12.763  0.00  0.00    +0.000 A 
ATOM     15  C   UNL     1      43.465  -2.556  12.817  0.00  0.00    +0.000 A 
ATOM     16  C   UNL     1      43.350  -1.632  13.808  0.00  0.00    +0.000 A 
ATOM     17  C   UNL     1      44.301  -1.564  14.771  0.00  0.00    +0.000 A 
ATOM     18  C   UNL     1      45.404  -2.435  14.760  0.00  0.00    +0.000 A 
ATOM     19  C   UNL     1      45.502  -3.353  13.760  0.00  0.00    +0.000 A 
BRANCH  14  21
ATOM     20  C   UNL     1      43.874  -4.277  10.623  0.00  0.00    +0.000 C 
ATOM     21  O   UNL     1      44.707  -4.401  11.774  0.00  0.00    +0.000 OA
ENDBRANCH  14  21
BRANCH  18  22
ATOM     22  O   UNL     1      46.381  -2.381  15.731  0.00  0.00    +0.000 OA
ATOM     23  C   UNL     1      46.099  -2.455  17.121  0.00  0.00    +0.000 C 
ENDBRANCH  18  22
BRANCH  19  24
ATOM     24  O   UNL     1      46.620  -4.216  13.770  0.00  0.00    +0.000 OA
ATOM     25  C   UNL     1      47.782  -3.860  13.052  0.00  0.00    +0.000 C 
ENDBRANCH  19  24
ENDBRANCH   1  16
BRANCH  11  26
ATOM     26  O   UNL     1      35.484  -2.754  15.616  0.00  0.00    +0.000 OA
BRANCH  26  27
ATOM     27  C   UNL     1      34.692  -2.491  16.745  0.00  0.00    +0.000 C 
BRANCH  27  28
ATOM     28  C   UNL     1      35.179  -1.226  17.344  0.00  0.00    +0.000 A 
ATOM     29  C   UNL     1      34.904  -0.065  16.622  0.00  0.00    +0.000 A 
ATOM     30  C   UNL     1      35.310   1.174  17.064  0.00  0.00    +0.000 A 
ATOM     31  C   UNL     1      36.002   1.246  18.249  0.00  0.00    +0.000 A 
ATOM     32  C   UNL     1      36.280   0.096  18.972  0.00  0.00    +0.000 A 
ATOM     33  C   UNL     1      35.867  -1.134  18.515  0.00  0.00    +0.000 A 
ENDBRANCH  27  28
ENDBRANCH  26  27
ENDBRANCH  11  26
TORSDOF 7
ENDMDL
MODEL 9
REMARK VINA RESULT:      -6.9      2.429      3.905
REMARK  Name = 
REMARK  7 active torsions:
REMARK  status: ('A' for Active; 'I' for Inactive)
REMARK    1  A    between atoms: O_2  and  C_3
REMARK    2  A    between atoms: C_5  and  C_6
REMARK    3  A    between atoms: C_16  and  O_17
REMARK    4  A    between atoms: O_17  and  C_18
REMARK    5  A    between atoms: C_18  and  C_19
REMARK    6  A    between atoms: C_28  and  O_29
REMARK    7  A    between atoms: C_31  and  O_32
REMARK                            x       y       z     vdW  Elec       q    Type
REMARK                         _______ _______ _______ _____ _____    ______ ____
ROOT
ATOM      1  C   UNL     1      37.351   3.448  14.516  0.00  0.00    +0.000 C 
ATOM      2  N   UNL     1      35.838   3.801  14.782  0.00  0.00    +0.000 NA
ATOM      3  C   UNL     1      35.710   5.119  14.184  0.00  0.00    +0.000 C 
ATOM      4  C   UNL     1      36.876   6.022  14.560  0.00  0.00    +0.000 C 
ATOM      5  C   UNL     1      37.608   5.457  15.738  0.00  0.00    +0.000 A 
ATOM      6  C   UNL     1      37.914   4.127  15.830  0.00  0.00    +0.000 A 
ATOM      7  N   UNL     1      38.535   3.877  16.911  0.00  0.00    +0.000 NA
ATOM      8  C   UNL     1      38.694   5.001  17.626  0.00  0.00    +0.000 A 
ATOM      9  C   UNL     1      39.262   5.349  18.829  0.00  0.00    +0.000 A 
ATOM     10  C   UNL     1      39.240   6.663  19.269  0.00  0.00    +0.000 A 
ATOM     11  C   UNL     1      38.651   7.673  18.525  0.00  0.00    +0.000 A 
ATOM     12  C   UNL     1      38.083   7.326  17.322  0.00  0.00    +0.000 A 
ATOM     13  C   UNL     1      38.116   6.024  16.908  0.00  0.00    +0.000 A 
ENDROOT
BRANCH   1  16
ATOM     14  C   UNL     1      36.172   0.354  16.379  0.00  0.00    +0.000 A 
ATOM     15  C   UNL     1      36.328   1.662  15.889  0.00  0.00    +0.000 A 
ATOM     16  C   UNL     1      37.286   1.971  14.976  0.00  0.00    +0.000 A 
ATOM     17  C   UNL     1      38.114   0.999  14.521  0.00  0.00    +0.000 A 
ATOM     18  C   UNL     1      37.997  -0.323  14.982  0.00  0.00    +0.000 A 
ATOM     19  C   UNL     1      37.032  -0.614  15.897  0.00  0.00    +0.000 A 
BRANCH  14  21
ATOM     20  C   UNL     1      35.577   0.096  18.682  0.00  0.00    +0.000 C 
ATOM     21  O   UNL     1      35.211  -0.005  17.308  0.00  0.00    +0.000 OA
ENDBRANCH  14  21
BRANCH  18  22
ATOM     22  O   UNL     1      38.830  -1.325  14.531  0.00  0.00    +0.000 OA
ATOM     23  C   UNL     1      40.007  -1.724  15.220  0.00  0.00    +0.000 C 
ENDBRANCH  18  22
BRANCH  19  24
ATOM     24  O   UNL     1      36.933  -1.950  16.343  0.00  0.00    +0.000 OA
ATOM     25  C   UNL     1      35.995  -2.819  15.744  0.00  0.00    +0.000 C 
ENDBRANCH  19  24
ENDBRANCH   1  16
BRANCH  11  26
ATOM     26  O   UNL     1      38.606   8.978  18.921  0.00  0.00    +0.000 OA
BRANCH  26  27
ATOM     27  C   UNL     1      38.040   9.423  20.126  0.00  0.00    +0.000 C 
BRANCH  27  28
ATOM     28  C   UNL     1      38.942  10.456  20.686  0.00  0.00    +0.000 A 
ATOM     29  C   UNL     1      40.299  10.133  20.709  0.00  0.00    +0.000 A 
ATOM     30  C   UNL     1      41.241  11.001  21.212  0.00  0.00    +0.000 A 
ATOM     31  C   UNL     1      40.812  12.212  21.700  0.00  0.00    +0.000 A 
ATOM     32  C   UNL     1      39.465  12.541  21.681  0.00  0.00    +0.000 A 
ATOM     33  C   UNL     1      38.538  11.661  21.175  0.00  0.00    +0.000 A 
ENDBRANCH  27  28
ENDBRANCH  26  27
ENDBRANCH  11  26
TORSDOF 7
ENDMDL
MODEL 10
REMARK VINA RESULT:      -6.9     26.229     29.236
REMARK  Name = 
REMARK  7 active torsions:
REMARK  status: ('A' for Active; 'I' for Inactive)
REMARK    1  A    between atoms: O_2  and  C_3
REMARK    2  A    between atoms: C_5  and  C_6
REMARK    3  A    between atoms: C_16  and  O_17
REMARK    4  A    between atoms: O_17  and  C_18
REMARK    5  A    between atoms: C_18  and  C_19
REMARK    6  A    between atoms: C_28  and  O_29
REMARK    7  A    between atoms: C_31  and  O_32
REMARK                            x       y       z     vdW  Elec       q    Type
REMARK                         _______ _______ _______ _____ _____    ______ ____
ROOT
ATOM      1  C   UNL     1      25.687  16.988  33.955  0.00  0.00    +0.000 C 
ATOM      2  N   UNL     1      27.247  16.997  34.175  0.00  0.00    +0.000 NA
ATOM      3  C   UNL     1      27.577  15.582  34.155  0.00  0.00    +0.000 C 
ATOM      4  C   UNL     1      26.602  14.765  34.990  0.00  0.00    +0.000 C 
ATOM      5  C   UNL     1      25.831  15.664  35.908  0.00  0.00    +0.000 A 
ATOM      6  C   UNL     1      25.303  16.852  35.484  0.00  0.00    +0.000 A 
ATOM      7  N   UNL     1      24.693  17.442  36.430  0.00  0.00    +0.000 NA
ATOM      8  C   UNL     1      24.760  16.711  37.554  0.00  0.00    +0.000 A 
ATOM      9  C   UNL     1      24.310  16.823  38.848  0.00  0.00    +0.000 A 
ATOM     10  C   UNL     1      24.577  15.832  39.780  0.00  0.00    +0.000 A 
ATOM     11  C   UNL     1      25.302  14.698  39.451  0.00  0.00    +0.000 A 
ATOM     12  C   UNL     1      25.752  14.585  38.157  0.00  0.00    +0.000 A 
ATOM     13  C   UNL     1      25.477  15.573  37.256  0.00  0.00    +0.000 A 
ENDROOT
BRANCH   1  16
ATOM     14  C   UNL     1      26.582  20.679  33.823  0.00  0.00    +0.000 A 
ATOM     15  C   UNL     1      26.617  19.282  33.969  0.00  0.00    +0.000 A 
ATOM     16  C   UNL     1      25.513  18.516  33.764  0.00  0.00    +0.000 A 
ATOM     17  C   UNL     1      24.346  19.107  33.409  0.00  0.00    +0.000 A 
ATOM     18  C   UNL     1      24.261  20.501  33.252  0.00  0.00    +0.000 A 
ATOM     19  C   UNL     1      25.377  21.252  33.461  0.00  0.00    +0.000 A 
BRANCH  14  21
ATOM     20  C   UNL     1      28.950  20.970  33.642  0.00  0.00    +0.000 C 
ATOM     21  O   UNL     1      27.680  21.496  34.021  0.00  0.00    +0.000 OA
ENDBRANCH  14  21
BRANCH  18  22
ATOM     22  O   UNL     1      23.083  21.120  32.892  0.00  0.00    +0.000 OA
ATOM     23  C   UNL     1      22.470  20.944  31.623  0.00  0.00    +0.000 C 
ENDBRANCH  18  22
BRANCH  19  24
ATOM     24  O   UNL     1      25.267  22.650  33.295  0.00  0.00    +0.000 OA
ATOM     25  C   UNL     1      25.552  23.228  32.039  0.00  0.00    +0.000 C 
ENDBRANCH  19  24
ENDBRANCH   1  16
BRANCH  11  26
ATOM     26  O   UNL     1      25.588  13.699  40.336  0.00  0.00    +0.000 OA
BRANCH  26  27
ATOM     27  C   UNL     1      26.695  13.697  41.199  0.00  0.00    +0.000 C 
BRANCH  27  28
ATOM     28  C   UNL     1      27.449  12.446  40.951  0.00  0.00    +0.000 A 
ATOM     29  C   UNL     1      26.717  11.263  41.050  0.00  0.00    +0.000 A 
ATOM     30  C   UNL     1      27.301  10.032  40.853  0.00  0.00    +0.000 A 
ATOM     31  C   UNL     1      28.641   9.991  40.550  0.00  0.00    +0.000 A 
ATOM     32  C   UNL     1      29.376  11.162  40.449  0.00  0.00    +0.000 A 
ATOM     33  C   UNL     1      28.776  12.383  40.651  0.00  0.00    +0.000 A 
ENDBRANCH  27  28
ENDBRANCH  26  27
ENDBRANCH  11  26
TORSDOF 7
ENDMDL
