MODEL 1
REMARK VINA RESULT:      -6.4      0.000      0.000
REMARK  Name = 
REMARK  4 active torsions:
REMARK  status: ('A' for Active; 'I' for Inactive)
REMARK    1  A    between atoms: O_2  and  C_3
REMARK    2  A    between atoms: C_3  and  C_5
REMARK    3  A    between atoms: C_5  and  C_14
REMARK    4  A    between atoms: C_6  and  C_7
REMARK                            x       y       z     vdW  Elec       q    Type
REMARK                         _______ _______ _______ _____ _____    ______ ____
ROOT
ATOM      1  C   UNL     1      28.875  23.532  23.667  0.00  0.00    +0.000 C 
ATOM      2  C   UNL     1      30.049  23.195  24.077  0.00  0.00    +0.000 C 
ENDROOT
BRANCH   2   3
ATOM      3  C   UNL     1      30.571  23.023  25.399  0.00  0.00    +0.000 A 
ATOM      4  C   UNL     1      30.258  22.059  26.315  0.00  0.00    +0.000 A 
ATOM      5  C   UNL     1      30.848  22.050  27.549  0.00  0.00    +0.000 A 
ATOM      6  C   UNL     1      31.775  22.991  27.942  0.00  0.00    +0.000 A 
ATOM      7  C   UNL     1      32.109  23.974  27.036  0.00  0.00    +0.000 A 
ATOM      8  N   UNL     1      33.068  24.946  27.438  0.00  0.00    +0.000 NA
ATOM      9  C   UNL     1      31.518  23.985  25.798  0.00  0.00    +0.000 A 
ENDBRANCH   2   3
BRANCH   1  10
ATOM     10  C   UNL     1      27.837  23.863  24.622  0.00  0.00    +0.000 A 
ATOM     11  C   UNL     1      27.732  25.212  24.986  0.00  0.00    +0.000 A 
ATOM     12  C   UNL     1      26.803  25.667  25.892  0.00  0.00    +0.000 A 
ATOM     13  C   UNL     1      25.938  24.768  26.471  0.00  0.00    +0.000 A 
ATOM     14 CL   UNL     1      24.721  25.298  27.644  0.00  0.00    +0.000 Cl
ATOM     15  C   UNL     1      26.037  23.435  26.116  0.00  0.00    +0.000 A 
ATOM     16  C   UNL     1      26.969  22.994  25.211  0.00  0.00    +0.000 A 
ENDBRANCH   1  10
BRANCH   1  17
ATOM     17  C   UNL     1      28.555  23.643  22.224  0.00  0.00    +0.000 C 
ATOM     18  O   UNL     1      27.414  23.256  21.802  0.00  0.00    +0.000 OA
BRANCH  17  20
ATOM     19  C   UNL     1      29.361  25.485  20.816  0.00  0.00    +0.000 C 
ATOM     20  O   UNL     1      29.416  24.140  21.283  0.00  0.00    +0.000 OA
ENDBRANCH  17  20
ENDBRANCH   1  17
TORSDOF 4
ENDMDL
MODEL 2
REMARK VINA RESULT:      -6.1      3.169      4.386
REMARK  Name = 
REMARK  4 active torsions:
REMARK  status: ('A' for Active; 'I' for Inactive)
REMARK    1  A    between atoms: O_2  and  C_3
REMARK    2  A    between atoms: C_3  and  C_5
REMARK    3  A    between atoms: C_5  and  C_14
REMARK    4  A    between atoms: C_6  and  C_7
REMARK                            x       y       z     vdW  Elec       q    Type
REMARK                         _______ _______ _______ _____ _____    ______ ____
ROOT
ATOM      1  C   UNL     1      27.442  23.436  24.210  0.00  0.00    +0.000 C 
ATOM      2  C   UNL     1      26.681  23.145  25.209  0.00  0.00    +0.000 C 
ENDROOT
BRANCH   2   3
ATOM      3  C   UNL     1      26.971  23.011  26.604  0.00  0.00    +0.000 A 
ATOM      4  C   UNL     1      27.927  22.238  27.201  0.00  0.00    +0.000 A 
ATOM      5  C   UNL     1      28.060  22.219  28.562  0.00  0.00    +0.000 A 
ATOM      6  C   UNL     1      27.257  22.959  29.403  0.00  0.00    +0.000 A 
ATOM      7  C   UNL     1      26.285  23.747  28.826  0.00  0.00    +0.000 A 
ATOM      8  N   UNL     1      25.455  24.514  29.692  0.00  0.00    +0.000 NA
ATOM      9  C   UNL     1      26.150  23.768  27.462  0.00  0.00    +0.000 A 
ENDBRANCH   2   3
BRANCH   1  10
ATOM     10  C   UNL     1      28.863  23.633  24.411  0.00  0.00    +0.000 A 
ATOM     11  C   UNL     1      29.270  24.930  24.753  0.00  0.00    +0.000 A 
ATOM     12  C   UNL     1      30.588  25.265  24.959  0.00  0.00    +0.000 A 
ATOM     13  C   UNL     1      31.553  24.294  24.827  0.00  0.00    +0.000 A 
ATOM     14 CL   UNL     1      33.265  24.668  25.083  0.00  0.00    +0.000 Cl
ATOM     15  C   UNL     1      31.157  23.013  24.491  0.00  0.00    +0.000 A 
ATOM     16  C   UNL     1      29.840  22.692  24.287  0.00  0.00    +0.000 A 
ENDBRANCH   1  10
BRANCH   1  17
ATOM     17  C   UNL     1      26.914  23.529  22.829  0.00  0.00    +0.000 C 
ATOM     18  O   UNL     1      25.779  23.011  22.553  0.00  0.00    +0.000 OA
BRANCH  17  20
ATOM     19  C   UNL     1      27.500  25.544  21.555  0.00  0.00    +0.000 C 
ATOM     20  O   UNL     1      27.570  24.141  21.795  0.00  0.00    +0.000 OA
ENDBRANCH  17  20
ENDBRANCH   1  17
TORSDOF 4
ENDMDL
MODEL 3
REMARK VINA RESULT:      -6.0     20.527     22.306
REMARK  Name = 
REMARK  4 active torsions:
REMARK  status: ('A' for Active; 'I' for Inactive)
REMARK    1  A    between atoms: O_2  and  C_3
REMARK    2  A    between atoms: C_3  and  C_5
REMARK    3  A    between atoms: C_5  and  C_14
REMARK    4  A    between atoms: C_6  and  C_7
REMARK                            x       y       z     vdW  Elec       q    Type
REMARK                         _______ _______ _______ _____ _____    ______ ____
ROOT
ATOM      1  C   UNL     1      19.955   9.994  37.887  0.00  0.00    +0.000 C 
ATOM      2  C   UNL     1      19.816   9.376  39.010  0.00  0.00    +0.000 C 
ENDROOT
BRANCH   2   3
ATOM      3  C   UNL     1      18.641   8.967  39.719  0.00  0.00    +0.000 A 
ATOM      4  C   UNL     1      17.575   9.730  40.105  0.00  0.00    +0.000 A 
ATOM      5  C   UNL     1      16.532   9.175  40.794  0.00  0.00    +0.000 A 
ATOM      6  C   UNL     1      16.488   7.841  41.137  0.00  0.00    +0.000 A 
ATOM      7  C   UNL     1      17.550   7.049  40.759  0.00  0.00    +0.000 A 
ATOM      8  N   UNL     1      17.506   5.670  41.110  0.00  0.00    +0.000 NA
ATOM      9  C   UNL     1      18.597   7.604  40.068  0.00  0.00    +0.000 A 
ENDBRANCH   2   3
BRANCH   1  10
ATOM     10  C   UNL     1      18.789  10.443  37.154  0.00  0.00    +0.000 A 
ATOM     11  C   UNL     1      18.284   9.562  36.187  0.00  0.00    +0.000 A 
ATOM     12  C   UNL     1      17.192   9.864  35.407  0.00  0.00    +0.000 A 
ATOM     13  C   UNL     1      16.563  11.075  35.576  0.00  0.00    +0.000 A 
ATOM     14 CL   UNL     1      15.151  11.514  34.601  0.00  0.00    +0.000 Cl
ATOM     15  C   UNL     1      17.056  11.947  36.529  0.00  0.00    +0.000 A 
ATOM     16  C   UNL     1      18.147  11.635  37.300  0.00  0.00    +0.000 A 
ENDBRANCH   1  10
BRANCH   1  17
ATOM     17  C   UNL     1      21.292  10.311  37.333  0.00  0.00    +0.000 C 
ATOM     18  O   UNL     1      21.884  11.383  37.694  0.00  0.00    +0.000 OA
BRANCH  17  20
ATOM     19  C   UNL     1      23.312   9.116  36.613  0.00  0.00    +0.000 C 
ATOM     20  O   UNL     1      21.958   9.522  36.434  0.00  0.00    +0.000 OA
ENDBRANCH  17  20
ENDBRANCH   1  17
TORSDOF 4
ENDMDL
MODEL 4
REMARK VINA RESULT:      -5.8      3.294      4.480
REMARK  Name = 
REMARK  4 active torsions:
REMARK  status: ('A' for Active; 'I' for Inactive)
REMARK    1  A    between atoms: O_2  and  C_3
REMARK    2  A    between atoms: C_3  and  C_5
REMARK    3  A    between atoms: C_5  and  C_14
REMARK    4  A    between atoms: C_6  and  C_7
REMARK                            x       y       z     vdW  Elec       q    Type
REMARK                         _______ _______ _______ _____ _____    ______ ____
ROOT
ATOM      1  C   UNL     1      29.860  23.512  24.543  0.00  0.00    +0.000 C 
ATOM      2  C   UNL     1      29.418  22.816  25.533  0.00  0.00    +0.000 C 
ENDROOT
BRANCH   2   3
ATOM      3  C   UNL     1      29.867  22.718  26.889  0.00  0.00    +0.000 A 
ATOM      4  C   UNL     1      31.017  22.153  27.363  0.00  0.00    +0.000 A 
ATOM      5  C   UNL     1      31.286  22.136  28.704  0.00  0.00    +0.000 A 
ATOM      6  C   UNL     1      30.435  22.674  29.644  0.00  0.00    +0.000 A 
ATOM      7  C   UNL     1      29.268  23.252  29.193  0.00  0.00    +0.000 A 
ATOM      8  N   UNL     1      28.388  23.811  30.162  0.00  0.00    +0.000 NA
ATOM      9  C   UNL     1      28.997  23.270  27.848  0.00  0.00    +0.000 A 
ENDBRANCH   2   3
BRANCH   1  10
ATOM     10  C   UNL     1      31.039  24.339  24.703  0.00  0.00    +0.000 A 
ATOM     11  C   UNL     1      32.274  23.707  24.507  0.00  0.00    +0.000 A 
ATOM     12  C   UNL     1      33.474  24.366  24.640  0.00  0.00    +0.000 A 
ATOM     13  C   UNL     1      33.472  25.699  24.979  0.00  0.00    +0.000 A 
ATOM     14 CL   UNL     1      34.988  26.597  25.162  0.00  0.00    +0.000 Cl
ATOM     15  C   UNL     1      32.256  26.327  25.173  0.00  0.00    +0.000 A 
ATOM     16  C   UNL     1      31.066  25.659  25.037  0.00  0.00    +0.000 A 
ENDBRANCH   1  10
BRANCH   1  17
ATOM     17  C   UNL     1      29.222  23.459  23.206  0.00  0.00    +0.000 C 
ATOM     18  O   UNL     1      28.082  22.900  23.076  0.00  0.00    +0.000 OA
BRANCH  17  20
ATOM     19  C   UNL     1      29.195  25.048  21.335  0.00  0.00    +0.000 C 
ATOM     20  O   UNL     1      29.780  23.976  22.068  0.00  0.00    +0.000 OA
ENDBRANCH  17  20
ENDBRANCH   1  17
TORSDOF 4
ENDMDL
MODEL 5
REMARK VINA RESULT:      -5.7     18.510     20.122
REMARK  Name = 
REMARK  4 active torsions:
REMARK  status: ('A' for Active; 'I' for Inactive)
REMARK    1  A    between atoms: O_2  and  C_3
REMARK    2  A    between atoms: C_3  and  C_5
REMARK    3  A    between atoms: C_5  and  C_14
REMARK    4  A    between atoms: C_6  and  C_7
REMARK                            x       y       z     vdW  Elec       q    Type
REMARK                         _______ _______ _______ _____ _____    ______ ____
ROOT
ATOM      1  C   UNL     1      20.320  10.167  37.451  0.00  0.00    +0.000 C 
ATOM      2  C   UNL     1      21.260   9.655  36.734  0.00  0.00    +0.000 C 
ENDROOT
BRANCH   2   3
ATOM      3  C   UNL     1      22.679   9.839  36.773  0.00  0.00    +0.000 A 
ATOM      4  C   UNL     1      23.447  10.677  36.014  0.00  0.00    +0.000 A 
ATOM      5  C   UNL     1      24.805  10.719  36.175  0.00  0.00    +0.000 A 
ATOM      6  C   UNL     1      25.474   9.936  37.091  0.00  0.00    +0.000 A 
ATOM      7  C   UNL     1      24.723   9.082  37.870  0.00  0.00    +0.000 A 
ATOM      8  N   UNL     1      25.412   8.275  38.818  0.00  0.00    +0.000 NA
ATOM      9  C   UNL     1      23.362   9.040  37.710  0.00  0.00    +0.000 A 
ENDBRANCH   2   3
BRANCH   1  10
ATOM     10  C   UNL     1      20.634  11.148  38.471  0.00  0.00    +0.000 A 
ATOM     11  C   UNL     1      20.579  12.492  38.079  0.00  0.00    +0.000 A 
ATOM     12  C   UNL     1      20.867  13.528  38.938  0.00  0.00    +0.000 A 
ATOM     13  C   UNL     1      21.223  13.241  40.235  0.00  0.00    +0.000 A 
ATOM     14 CL   UNL     1      21.602  14.535  41.385  0.00  0.00    +0.000 Cl
ATOM     15  C   UNL     1      21.278  11.916  40.627  0.00  0.00    +0.000 A 
ATOM     16  C   UNL     1      20.990  10.893  39.760  0.00  0.00    +0.000 A 
ENDBRANCH   1  10
BRANCH   1  17
ATOM     17  C   UNL     1      18.896   9.819  37.234  0.00  0.00    +0.000 C 
ATOM     18  O   UNL     1      18.224   9.299  38.186  0.00  0.00    +0.000 OA
BRANCH  17  20
ATOM     19  C   UNL     1      17.811   8.946  35.212  0.00  0.00    +0.000 C 
ATOM     20  O   UNL     1      18.229  10.016  36.055  0.00  0.00    +0.000 OA
ENDBRANCH  17  20
ENDBRANCH   1  17
TORSDOF 4
ENDMDL
MODEL 6
REMARK VINA RESULT:      -5.7      4.603      6.482
REMARK  Name = 
REMARK  4 active torsions:
REMARK  status: ('A' for Active; 'I' for Inactive)
REMARK    1  A    between atoms: O_2  and  C_3
REMARK    2  A    between atoms: C_3  and  C_5
REMARK    3  A    between atoms: C_5  and  C_14
REMARK    4  A    between atoms: C_6  and  C_7
REMARK                            x       y       z     vdW  Elec       q    Type
REMARK                         _______ _______ _______ _____ _____    ______ ____
ROOT
ATOM      1  C   UNL     1      27.557  22.905  29.417  0.00  0.00    +0.000 C 
ATOM      2  C   UNL     1      27.443  22.526  28.191  0.00  0.00    +0.000 C 
ENDROOT
BRANCH   2   3
ATOM      3  C   UNL     1      28.400  22.485  27.127  0.00  0.00    +0.000 A 
ATOM      4  C   UNL     1      29.707  22.089  27.176  0.00  0.00    +0.000 A 
ATOM      5  C   UNL     1      30.490  22.125  26.055  0.00  0.00    +0.000 A 
ATOM      6  C   UNL     1      30.026  22.554  24.831  0.00  0.00    +0.000 A 
ATOM      7  C   UNL     1      28.711  22.958  24.753  0.00  0.00    +0.000 A 
ATOM      8  N   UNL     1      28.228  23.399  23.489  0.00  0.00    +0.000 NA
ATOM      9  C   UNL     1      27.924  22.923  25.876  0.00  0.00    +0.000 A 
ENDBRANCH   2   3
BRANCH   1  10
ATOM     10  C   UNL     1      28.812  23.445  29.899  0.00  0.00    +0.000 A 
ATOM     11  C   UNL     1      29.594  22.592  30.689  0.00  0.00    +0.000 A 
ATOM     12  C   UNL     1      30.801  22.977  31.226  0.00  0.00    +0.000 A 
ATOM     13  C   UNL     1      31.267  24.248  30.982  0.00  0.00    +0.000 A 
ATOM     14 CL   UNL     1      32.815  24.796  31.646  0.00  0.00    +0.000 Cl
ATOM     15  C   UNL     1      30.499  25.093  30.202  0.00  0.00    +0.000 A 
ATOM     16  C   UNL     1      29.297  24.698  29.674  0.00  0.00    +0.000 A 
ENDBRANCH   1  10
BRANCH   1  17
ATOM     17  C   UNL     1      26.413  22.852  30.358  0.00  0.00    +0.000 C 
ATOM     18  O   UNL     1      25.964  21.720  30.739  0.00  0.00    +0.000 OA
BRANCH  17  20
ATOM     19  C   UNL     1      25.507  25.117  30.080  0.00  0.00    +0.000 C 
ATOM     20  O   UNL     1      25.782  23.958  30.862  0.00  0.00    +0.000 OA
ENDBRANCH  17  20
ENDBRANCH   1  17
TORSDOF 4
ENDMDL
MODEL 7
REMARK VINA RESULT:      -5.7     20.374     22.113
REMARK  Name = 
REMARK  4 active torsions:
REMARK  status: ('A' for Active; 'I' for Inactive)
REMARK    1  A    between atoms: O_2  and  C_3
REMARK    2  A    between atoms: C_3  and  C_5
REMARK    3  A    between atoms: C_5  and  C_14
REMARK    4  A    between atoms: C_6  and  C_7
REMARK                            x       y       z     vdW  Elec       q    Type
REMARK                         _______ _______ _______ _____ _____    ______ ____
ROOT
ATOM      1  C   UNL     1      17.999  10.606  37.836  0.00  0.00    +0.000 C 
ATOM      2  C   UNL     1      17.497   9.915  38.801  0.00  0.00    +0.000 C 
ENDROOT
BRANCH   2   3
ATOM      3  C   UNL     1      18.125   9.177  39.855  0.00  0.00    +0.000 A 
ATOM      4  C   UNL     1      18.518   9.621  41.086  0.00  0.00    +0.000 A 
ATOM      5  C   UNL     1      19.120   8.774  41.975  0.00  0.00    +0.000 A 
ATOM      6  C   UNL     1      19.366   7.447  41.695  0.00  0.00    +0.000 A 
ATOM      7  C   UNL     1      18.979   6.973  40.461  0.00  0.00    +0.000 A 
ATOM      8  N   UNL     1      19.229   5.602  40.171  0.00  0.00    +0.000 NA
ATOM      9  C   UNL     1      18.375   7.821  39.568  0.00  0.00    +0.000 A 
ENDBRANCH   2   3
BRANCH   1  10
ATOM     10  C   UNL     1      19.435  10.676  37.661  0.00  0.00    +0.000 A 
ATOM     11  C   UNL     1      20.085  11.757  38.272  0.00  0.00    +0.000 A 
ATOM     12  C   UNL     1      21.443  11.957  38.177  0.00  0.00    +0.000 A 
ATOM     13  C   UNL     1      22.202  11.065  37.456  0.00  0.00    +0.000 A 
ATOM     14 CL   UNL     1      23.954  11.272  37.302  0.00  0.00    +0.000 Cl
ATOM     15  C   UNL     1      21.566   9.996  36.852  0.00  0.00    +0.000 A 
ATOM     16  C   UNL     1      20.211   9.808  36.953  0.00  0.00    +0.000 A 
ENDBRANCH   1  10
BRANCH   1  17
ATOM     17  C   UNL     1      17.141  11.304  36.849  0.00  0.00    +0.000 C 
ATOM     18  O   UNL     1      16.987  12.568  36.934  0.00  0.00    +0.000 OA
BRANCH  17  20
ATOM     19  C   UNL     1      17.154   9.985  34.778  0.00  0.00    +0.000 C 
ATOM     20  O   UNL     1      16.481  10.677  35.827  0.00  0.00    +0.000 OA
ENDBRANCH  17  20
ENDBRANCH   1  17
TORSDOF 4
ENDMDL
MODEL 8
REMARK VINA RESULT:      -5.6     20.169     21.997
REMARK  Name = 
REMARK  4 active torsions:
REMARK  status: ('A' for Active; 'I' for Inactive)
REMARK    1  A    between atoms: O_2  and  C_3
REMARK    2  A    between atoms: C_3  and  C_5
REMARK    3  A    between atoms: C_5  and  C_14
REMARK    4  A    between atoms: C_6  and  C_7
REMARK                            x       y       z     vdW  Elec       q    Type
REMARK                         _______ _______ _______ _____ _____    ______ ____
ROOT
ATOM      1  C   UNL     1      17.954   9.852  39.395  0.00  0.00    +0.000 C 
ATOM      2  C   UNL     1      19.080  10.230  39.895  0.00  0.00    +0.000 C 
ENDROOT
BRANCH   2   3
ATOM      3  C   UNL     1      20.183  10.930  39.308  0.00  0.00    +0.000 A 
ATOM      4  C   UNL     1      20.296  12.265  39.042  0.00  0.00    +0.000 A 
ATOM      5  C   UNL     1      21.427  12.769  38.461  0.00  0.00    +0.000 A 
ATOM      6  C   UNL     1      22.503  11.982  38.113  0.00  0.00    +0.000 A 
ATOM      7  C   UNL     1      22.416  10.631  38.372  0.00  0.00    +0.000 A 
ATOM      8  N   UNL     1      23.527   9.816  38.015  0.00  0.00    +0.000 NA
ATOM      9  C   UNL     1      21.282  10.124  38.954  0.00  0.00    +0.000 A 
ENDBRANCH   2   3
BRANCH   1  10
ATOM     10  C   UNL     1      17.668  10.080  37.993  0.00  0.00    +0.000 A 
ATOM     11  C   UNL     1      18.208   9.154  37.089  0.00  0.00    +0.000 A 
ATOM     12  C   UNL     1      18.029   9.254  35.729  0.00  0.00    +0.000 A 
ATOM     13  C   UNL     1      17.291  10.301  35.226  0.00  0.00    +0.000 A 
ATOM     14 CL   UNL     1      17.028  10.478  33.484  0.00  0.00    +0.000 Cl
ATOM     15  C   UNL     1      16.756  11.216  36.114  0.00  0.00    +0.000 A 
ATOM     16  C   UNL     1      16.943  11.106  37.468  0.00  0.00    +0.000 A 
ENDBRANCH   1  10
BRANCH   1  17
ATOM     17  C   UNL     1      16.942   9.136  40.206  0.00  0.00    +0.000 C 
ATOM     18  O   UNL     1      15.856   9.727  40.521  0.00  0.00    +0.000 OA
BRANCH  17  20
ATOM     19  C   UNL     1      16.666   7.433  41.953  0.00  0.00    +0.000 C 
ATOM     20  O   UNL     1      17.090   7.852  40.659  0.00  0.00    +0.000 OA
ENDBRANCH  17  20
ENDBRANCH   1  17
TORSDOF 4
ENDMDL
MODEL 9
REMARK VINA RESULT:      -5.6     20.039     22.090
REMARK  Name = 
REMARK  4 active torsions:
REMARK  status: ('A' for Active; 'I' for Inactive)
REMARK    1  A    between atoms: O_2  and  C_3
REMARK    2  A    between atoms: C_3  and  C_5
REMARK    3  A    between atoms: C_5  and  C_14
REMARK    4  A    between atoms: C_6  and  C_7
REMARK                            x       y       z     vdW  Elec       q    Type
REMARK                         _______ _______ _______ _____ _____    ______ ____
ROOT
ATOM      1  C   UNL     1      18.440   9.945  39.207  0.00  0.00    +0.000 C 
ATOM      2  C   UNL     1      17.465   9.794  38.378  0.00  0.00    +0.000 C 
ENDROOT
BRANCH   2   3
ATOM      3  C   UNL     1      17.380  10.041  36.971  0.00  0.00    +0.000 A 
ATOM      4  C   UNL     1      18.113   9.475  35.965  0.00  0.00    +0.000 A 
ATOM      5  C   UNL     1      17.908   9.839  34.662  0.00  0.00    +0.000 A 
ATOM      6  C   UNL     1      16.972  10.778  34.286  0.00  0.00    +0.000 A 
ATOM      7  C   UNL     1      16.219  11.363  35.281  0.00  0.00    +0.000 A 
ATOM      8  N   UNL     1      15.250  12.331  34.894  0.00  0.00    +0.000 NA
ATOM      9  C   UNL     1      16.423  11.000  36.587  0.00  0.00    +0.000 A 
ENDBRANCH   2   3
BRANCH   1  10
ATOM     10  C   UNL     1      19.701  10.497  38.755  0.00  0.00    +0.000 A 
ATOM     11  C   UNL     1      20.704   9.574  38.429  0.00  0.00    +0.000 A 
ATOM     12  C   UNL     1      21.953   9.957  38.000  0.00  0.00    +0.000 A 
ATOM     13  C   UNL     1      22.239  11.298  37.883  0.00  0.00    +0.000 A 
ATOM     14 CL   UNL     1      23.831  11.847  37.334  0.00  0.00    +0.000 Cl
ATOM     15  C   UNL     1      21.253  12.212  38.204  0.00  0.00    +0.000 A 
ATOM     16  C   UNL     1      20.011  11.818  38.631  0.00  0.00    +0.000 A 
ENDBRANCH   1  10
BRANCH   1  17
ATOM     17  C   UNL     1      18.299   9.613  40.645  0.00  0.00    +0.000 C 
ATOM     18  O   UNL     1      19.212   9.968  41.464  0.00  0.00    +0.000 OA
BRANCH  17  20
ATOM     19  C   UNL     1      16.235   9.557  41.973  0.00  0.00    +0.000 C 
ATOM     20  O   UNL     1      17.237   8.932  41.175  0.00  0.00    +0.000 OA
ENDBRANCH  17  20
ENDBRANCH   1  17
TORSDOF 4
ENDMDL
MODEL 10
REMARK VINA RESULT:      -5.5      3.336      5.070
REMARK  Name = 
REMARK  4 active torsions:
REMARK  status: ('A' for Active; 'I' for Inactive)
REMARK    1  A    between atoms: O_2  and  C_3
REMARK    2  A    between atoms: C_3  and  C_5
REMARK    3  A    between atoms: C_5  and  C_14
REMARK    4  A    between atoms: C_6  and  C_7
REMARK                            x       y       z     vdW  Elec       q    Type
REMARK                         _______ _______ _______ _____ _____    ______ ____
ROOT
ATOM      1  C   UNL     1      30.356  23.065  26.792  0.00  0.00    +0.000 C 
ATOM      2  C   UNL     1      30.398  22.992  25.506  0.00  0.00    +0.000 C 
ENDROOT
BRANCH   2   3
ATOM      3  C   UNL     1      29.401  23.263  24.516  0.00  0.00    +0.000 A 
ATOM      4  C   UNL     1      28.050  23.074  24.598  0.00  0.00    +0.000 A 
ATOM      5  C   UNL     1      27.236  23.379  23.542  0.00  0.00    +0.000 A 
ATOM      6  C   UNL     1      27.712  23.884  22.352  0.00  0.00    +0.000 A 
ATOM      7  C   UNL     1      29.071  24.086  22.242  0.00  0.00    +0.000 A 
ATOM      8  N   UNL     1      29.566  24.610  21.015  0.00  0.00    +0.000 NA
ATOM      9  C   UNL     1      29.889  23.780  23.300  0.00  0.00    +0.000 A 
ENDBRANCH   2   3
BRANCH   1  10
ATOM     10  C   UNL     1      29.123  23.427  27.461  0.00  0.00    +0.000 A 
ATOM     11  C   UNL     1      28.894  24.797  27.644  0.00  0.00    +0.000 A 
ATOM     12  C   UNL     1      27.773  25.284  28.276  0.00  0.00    +0.000 A 
ATOM     13  C   UNL     1      26.834  24.398  28.749  0.00  0.00    +0.000 A 
ATOM     14 CL   UNL     1      25.371  24.969  29.569  0.00  0.00    +0.000 Cl
ATOM     15  C   UNL     1      27.055  23.045  28.570  0.00  0.00    +0.000 A 
ATOM     16  C   UNL     1      28.178  22.572  27.939  0.00  0.00    +0.000 A 
ENDBRANCH   1  10
BRANCH   1  17
ATOM     17  C   UNL     1      31.534  22.737  27.630  0.00  0.00    +0.000 C 
ATOM     18  O   UNL     1      32.486  23.581  27.734  0.00  0.00    +0.000 OA
BRANCH  17  20
ATOM     19  C   UNL     1      32.474  21.451  29.497  0.00  0.00    +0.000 C 
ATOM     20  O   UNL     1      31.684  21.563  28.317  0.00  0.00    +0.000 OA
ENDBRANCH  17  20
ENDBRANCH   1  17
TORSDOF 4
ENDMDL
