MODEL 1
REMARK VINA RESULT:      -7.9      0.000      0.000
REMARK  Name = 
REMARK  7 active torsions:
REMARK  status: ('A' for Active; 'I' for Inactive)
REMARK    1  A    between atoms: C_2  and  C_3
REMARK    2  A    between atoms: C_3  and  C_5
REMARK    3  A    between atoms: C_5  and  O_6
REMARK    4  A    between atoms: O_6  and  C_7
REMARK    5  A    between atoms: C_7  and  C_9
REMARK    6  A    between atoms: N_12  and  C_13
REMARK    7  A    between atoms: C_13  and  C_15
REMARK                            x       y       z     vdW  Elec       q    Type
REMARK                         _______ _______ _______ _____ _____    ______ ____
ROOT
ATOM      1  C   UNL     1      36.419   0.787  15.813  0.00  0.00    +0.000 A 
ATOM      2  C   UNL     1      36.769   0.440  14.510  0.00  0.00    +0.000 A 
ATOM      3  N   UNL     1      36.440   1.238  13.393  0.00  0.00    +0.000 NA
ATOM      4  N   UNL     1      37.435  -0.718  14.519  0.00  0.00    +0.000 N 
ATOM      5  C   UNL     1      37.517  -1.112  15.756  0.00  0.00    +0.000 A 
ATOM      6  N   UNL     1      38.106  -2.231  16.225  0.00  0.00    +0.000 NA
ATOM      7  C   UNL     1      38.110  -2.505  17.546  0.00  0.00    +0.000 A 
ATOM      8  C   UNL     1      38.709  -3.650  18.051  0.00  0.00    +0.000 A 
ATOM      9  C   UNL     1      38.704  -3.915  19.404  0.00  0.00    +0.000 A 
ATOM     10  C   UNL     1      38.106  -3.045  20.259  0.00  0.00    +0.000 A 
ATOM     11  C   UNL     1      37.509  -1.903  19.747  0.00  0.00    +0.000 A 
ATOM     12  C   UNL     1      37.495  -1.607  18.399  0.00  0.00    +0.000 A 
ATOM     13  N   UNL     1      36.907  -0.490  17.920  0.00  0.00    +0.000 NA
ATOM     14  C   UNL     1      36.891  -0.198  16.619  0.00  0.00    +0.000 A 
ENDROOT
BRANCH   1  15
ATOM     15  C   UNL     1      35.694   1.953  16.279  0.00  0.00    +0.000 C 
ATOM     16  O   UNL     1      34.445   1.783  16.496  0.00  0.00    +0.000 OA
BRANCH  15  17
ATOM     17  O   UNL     1      36.205   3.178  16.500  0.00  0.00    +0.000 OA
BRANCH  17  18
ATOM     18  C   UNL     1      36.535   4.019  15.411  0.00  0.00    +0.000 C 
BRANCH  18  19
ATOM     19  C   UNL     1      37.926   4.775  15.862  0.00  0.00    +0.000 C 
ATOM     20  C   UNL     1      38.877   3.567  15.280  0.00  0.00    +0.000 C 
BRANCH  19  22
ATOM     21  C   UNL     1      38.884   4.977  18.211  0.00  0.00    +0.000 C 
ATOM     22  C   UNL     1      37.975   4.207  17.397  0.00  0.00    +0.000 C 
ENDBRANCH  19  22
ENDBRANCH  18  19
ENDBRANCH  17  18
ENDBRANCH  15  17
ENDBRANCH   1  15
BRANCH   4  23
ATOM     23  C   UNL     1      37.959  -1.368  13.221  0.00  0.00    +0.000 C 
ATOM     24  C   UNL     1      37.794  -2.972  13.634  0.00  0.00    +0.000 C 
BRANCH  23  25
ATOM     25  C   UNL     1      39.510  -1.200  13.559  0.00  0.00    +0.000 A 
ATOM     26  C   UNL     1      40.132  -0.077  13.802  0.00  0.00    +0.000 A 
ATOM     27  C   UNL     1      41.503  -0.105  14.084  0.00  0.00    +0.000 A 
ATOM     28  C   UNL     1      42.170  -1.283  14.101  0.00  0.00    +0.000 A 
ATOM     29  C   UNL     1      41.540  -2.470  13.850  0.00  0.00    +0.000 A 
ATOM     30  C   UNL     1      40.161  -2.408  13.570  0.00  0.00    +0.000 A 
ENDBRANCH  23  25
ENDBRANCH   4  23
TORSDOF 7
ENDMDL
MODEL 2
REMARK VINA RESULT:      -7.8      2.106      5.927
REMARK  Name = 
REMARK  7 active torsions:
REMARK  status: ('A' for Active; 'I' for Inactive)
REMARK    1  A    between atoms: C_2  and  C_3
REMARK    2  A    between atoms: C_3  and  C_5
REMARK    3  A    between atoms: C_5  and  O_6
REMARK    4  A    between atoms: O_6  and  C_7
REMARK    5  A    between atoms: C_7  and  C_9
REMARK    6  A    between atoms: N_12  and  C_13
REMARK    7  A    between atoms: C_13  and  C_15
REMARK                            x       y       z     vdW  Elec       q    Type
REMARK                         _______ _______ _______ _____ _____    ______ ____
ROOT
ATOM      1  C   UNL     1      36.030   0.253  16.459  0.00  0.00    +0.000 A 
ATOM      2  C   UNL     1      35.686   1.559  16.122  0.00  0.00    +0.000 A 
ATOM      3  N   UNL     1      34.459   2.147  16.498  0.00  0.00    +0.000 NA
ATOM      4  N   UNL     1      36.677   2.116  15.419  0.00  0.00    +0.000 N 
ATOM      5  C   UNL     1      37.619   1.227  15.300  0.00  0.00    +0.000 A 
ATOM      6  N   UNL     1      38.801   1.362  14.666  0.00  0.00    +0.000 NA
ATOM      7  C   UNL     1      39.683   0.341  14.628  0.00  0.00    +0.000 A 
ATOM      8  C   UNL     1      40.905   0.457  13.981  0.00  0.00    +0.000 A 
ATOM      9  C   UNL     1      41.794  -0.596  13.952  0.00  0.00    +0.000 A 
ATOM     10  C   UNL     1      41.474  -1.767  14.564  0.00  0.00    +0.000 A 
ATOM     11  C   UNL     1      40.251  -1.875  15.208  0.00  0.00    +0.000 A 
ATOM     12  C   UNL     1      39.337  -0.842  15.256  0.00  0.00    +0.000 A 
ATOM     13  N   UNL     1      38.150  -0.967  15.888  0.00  0.00    +0.000 NA
ATOM     14  C   UNL     1      37.264   0.028  15.939  0.00  0.00    +0.000 A 
ENDROOT
BRANCH   1  15
ATOM     15  C   UNL     1      35.266  -0.722  17.213  0.00  0.00    +0.000 C 
ATOM     16  O   UNL     1      35.271  -0.574  18.483  0.00  0.00    +0.000 OA
BRANCH  15  17
ATOM     17  O   UNL     1      34.563  -1.752  16.707  0.00  0.00    +0.000 OA
BRANCH  17  18
ATOM     18  C   UNL     1      35.172  -3.020  16.549  0.00  0.00    +0.000 C 
BRANCH  18  19
ATOM     19  C   UNL     1      35.466  -3.153  14.935  0.00  0.00    +0.000 C 
ATOM     20  C   UNL     1      34.302  -4.296  14.727  0.00  0.00    +0.000 C 
BRANCH  19  22
ATOM     21  C   UNL     1      37.140  -4.392  16.399  0.00  0.00    +0.000 C 
ATOM     22  C   UNL     1      36.670  -4.258  15.040  0.00  0.00    +0.000 C 
ENDBRANCH  19  22
ENDBRANCH  18  19
ENDBRANCH  17  18
ENDBRANCH  15  17
ENDBRANCH   1  15
BRANCH   4  23
ATOM     23  C   UNL     1      36.594   3.567  14.898  0.00  0.00    +0.000 C 
ATOM     24  C   UNL     1      37.573   3.431  13.559  0.00  0.00    +0.000 C 
BRANCH  23  25
ATOM     25  C   UNL     1      37.668   4.174  15.910  0.00  0.00    +0.000 A 
ATOM     26  C   UNL     1      37.635   4.095  17.214  0.00  0.00    +0.000 A 
ATOM     27  C   UNL     1      38.662   4.686  17.959  0.00  0.00    +0.000 A 
ATOM     28  C   UNL     1      39.673   5.331  17.330  0.00  0.00    +0.000 A 
ATOM     29  C   UNL     1      39.728   5.427  15.967  0.00  0.00    +0.000 A 
ATOM     30  C   UNL     1      38.680   4.822  15.247  0.00  0.00    +0.000 A 
ENDBRANCH  23  25
ENDBRANCH   4  23
TORSDOF 7
ENDMDL
MODEL 3
REMARK VINA RESULT:      -7.7      1.826      4.380
REMARK  Name = 
REMARK  7 active torsions:
REMARK  status: ('A' for Active; 'I' for Inactive)
REMARK    1  A    between atoms: C_2  and  C_3
REMARK    2  A    between atoms: C_3  and  C_5
REMARK    3  A    between atoms: C_5  and  O_6
REMARK    4  A    between atoms: O_6  and  C_7
REMARK    5  A    between atoms: C_7  and  C_9
REMARK    6  A    between atoms: N_12  and  C_13
REMARK    7  A    between atoms: C_13  and  C_15
REMARK                            x       y       z     vdW  Elec       q    Type
REMARK                         _______ _______ _______ _____ _____    ______ ____
ROOT
ATOM      1  C   UNL     1      36.567   1.017  15.730  0.00  0.00    +0.000 A 
ATOM      2  C   UNL     1      35.914   0.207  16.655  0.00  0.00    +0.000 A 
ATOM      3  N   UNL     1      34.681   0.562  17.245  0.00  0.00    +0.000 NA
ATOM      4  N   UNL     1      36.631  -0.901  16.866  0.00  0.00    +0.000 N 
ATOM      5  C   UNL     1      37.695  -0.825  16.122  0.00  0.00    +0.000 A 
ATOM      6  N   UNL     1      38.693  -1.725  16.021  0.00  0.00    +0.000 NA
ATOM      7  C   UNL     1      39.740  -1.503  15.199  0.00  0.00    +0.000 A 
ATOM      8  C   UNL     1      40.779  -2.415  15.079  0.00  0.00    +0.000 A 
ATOM      9  C   UNL     1      41.841  -2.173  14.234  0.00  0.00    +0.000 A 
ATOM     10  C   UNL     1      41.875  -1.026  13.506  0.00  0.00    +0.000 A 
ATOM     11  C   UNL     1      40.834  -0.120  13.631  0.00  0.00    +0.000 A 
ATOM     12  C   UNL     1      39.756  -0.330  14.467  0.00  0.00    +0.000 A 
ATOM     13  N   UNL     1      38.752   0.566  14.575  0.00  0.00    +0.000 NA
ATOM     14  C   UNL     1      37.708   0.368  15.381  0.00  0.00    +0.000 A 
ENDROOT
BRANCH   1  15
ATOM     15  C   UNL     1      36.161   2.306  15.204  0.00  0.00    +0.000 C 
ATOM     16  O   UNL     1      35.274   2.278  14.283  0.00  0.00    +0.000 OA
BRANCH  15  17
ATOM     17  O   UNL     1      36.623   3.509  15.589  0.00  0.00    +0.000 OA
BRANCH  17  18
ATOM     18  C   UNL     1      37.176   3.679  16.881  0.00  0.00    +0.000 C 
BRANCH  18  19
ATOM     19  C   UNL     1      38.051   5.070  16.790  0.00  0.00    +0.000 C 
ATOM     20  C   UNL     1      39.185   4.397  15.807  0.00  0.00    +0.000 C 
BRANCH  19  22
ATOM     21  C   UNL     1      39.083   6.058  18.897  0.00  0.00    +0.000 C 
ATOM     22  C   UNL     1      38.944   4.835  18.143  0.00  0.00    +0.000 C 
ENDBRANCH  19  22
ENDBRANCH  18  19
ENDBRANCH  17  18
ENDBRANCH  15  17
ENDBRANCH   1  15
BRANCH   4  23
ATOM     23  C   UNL     1      36.167  -2.000  17.845  0.00  0.00    +0.000 C 
ATOM     24  C   UNL     1      37.645  -2.662  18.231  0.00  0.00    +0.000 C 
BRANCH  23  25
ATOM     25  C   UNL     1      35.727  -3.051  16.728  0.00  0.00    +0.000 A 
ATOM     26  C   UNL     1      34.747  -2.909  15.875  0.00  0.00    +0.000 A 
ATOM     27  C   UNL     1      34.492  -3.933  14.955  0.00  0.00    +0.000 A 
ATOM     28  C   UNL     1      35.253  -5.052  14.954  0.00  0.00    +0.000 A 
ATOM     29  C   UNL     1      36.283  -5.222  15.838  0.00  0.00    +0.000 A 
ATOM     30  C   UNL     1      36.514  -4.174  16.750  0.00  0.00    +0.000 A 
ENDBRANCH  23  25
ENDBRANCH   4  23
TORSDOF 7
ENDMDL
MODEL 4
REMARK VINA RESULT:      -7.2      2.398      3.224
REMARK  Name = 
REMARK  7 active torsions:
REMARK  status: ('A' for Active; 'I' for Inactive)
REMARK    1  A    between atoms: C_2  and  C_3
REMARK    2  A    between atoms: C_3  and  C_5
REMARK    3  A    between atoms: C_5  and  O_6
REMARK    4  A    between atoms: O_6  and  C_7
REMARK    5  A    between atoms: C_7  and  C_9
REMARK    6  A    between atoms: N_12  and  C_13
REMARK    7  A    between atoms: C_13  and  C_15
REMARK                            x       y       z     vdW  Elec       q    Type
REMARK                         _______ _______ _______ _____ _____    ______ ____
ROOT
ATOM      1  C   UNL     1      38.052   2.809  15.205  0.00  0.00    +0.000 A 
ATOM      2  C   UNL     1      38.809   2.591  14.056  0.00  0.00    +0.000 A 
ATOM      3  N   UNL     1      39.656   3.575  13.502  0.00  0.00    +0.000 NA
ATOM      4  N   UNL     1      38.594   1.351  13.607  0.00  0.00    +0.000 N 
ATOM      5  C   UNL     1      37.744   0.785  14.413  0.00  0.00    +0.000 A 
ATOM      6  N   UNL     1      37.247  -0.466  14.337  0.00  0.00    +0.000 NA
ATOM      7  C   UNL     1      36.366  -0.914  15.256  0.00  0.00    +0.000 A 
ATOM      8  C   UNL     1      35.841  -2.197  15.197  0.00  0.00    +0.000 A 
ATOM      9  C   UNL     1      34.942  -2.639  16.144  0.00  0.00    +0.000 A 
ATOM     10  C   UNL     1      34.561  -1.809  17.151  0.00  0.00    +0.000 A 
ATOM     11  C   UNL     1      35.090  -0.529  17.203  0.00  0.00    +0.000 A 
ATOM     12  C   UNL     1      35.991  -0.054  16.272  0.00  0.00    +0.000 A 
ATOM     13  N   UNL     1      36.494   1.197  16.339  0.00  0.00    +0.000 NA
ATOM     14  C   UNL     1      37.366   1.662  15.443  0.00  0.00    +0.000 A 
ENDROOT
BRANCH   1  15
ATOM     15  C   UNL     1      37.969   4.001  16.026  0.00  0.00    +0.000 C 
ATOM     16  O   UNL     1      37.177   4.913  15.606  0.00  0.00    +0.000 OA
BRANCH  15  17
ATOM     17  O   UNL     1      38.637   4.233  17.170  0.00  0.00    +0.000 OA
BRANCH  17  18
ATOM     18  C   UNL     1      39.378   5.428  17.332  0.00  0.00    +0.000 C 
BRANCH  18  19
ATOM     19  C   UNL     1      39.473   5.653  18.960  0.00  0.00    +0.000 C 
ATOM     20  C   UNL     1      38.685   7.094  18.897  0.00  0.00    +0.000 C 
BRANCH  19  22
ATOM     21  C   UNL     1      41.366   6.665  20.328  0.00  0.00    +0.000 C 
ATOM     22  C   UNL     1      40.954   6.352  18.981  0.00  0.00    +0.000 C 
ENDBRANCH  19  22
ENDBRANCH  18  19
ENDBRANCH  17  18
ENDBRANCH  15  17
ENDBRANCH   1  15
BRANCH   4  23
ATOM     23  C   UNL     1      39.294   0.808  12.343  0.00  0.00    +0.000 C 
ATOM     24  C   UNL     1      38.036  -0.064  11.689  0.00  0.00    +0.000 C 
BRANCH  23  25
ATOM     25  C   UNL     1      40.054  -0.392  13.070  0.00  0.00    +0.000 A 
ATOM     26  C   UNL     1      40.872  -0.290  14.084  0.00  0.00    +0.000 A 
ATOM     27  C   UNL     1      41.459  -1.448  14.606  0.00  0.00    +0.000 A 
ATOM     28  C   UNL     1      41.180  -2.656  14.062  0.00  0.00    +0.000 A 
ATOM     29  C   UNL     1      40.328  -2.787  13.000  0.00  0.00    +0.000 A 
ATOM     30  C   UNL     1      39.754  -1.603  12.499  0.00  0.00    +0.000 A 
ENDBRANCH  23  25
ENDBRANCH   4  23
TORSDOF 7
ENDMDL
MODEL 5
REMARK VINA RESULT:      -7.0      2.333      6.295
REMARK  Name = 
REMARK  7 active torsions:
REMARK  status: ('A' for Active; 'I' for Inactive)
REMARK    1  A    between atoms: C_2  and  C_3
REMARK    2  A    between atoms: C_3  and  C_5
REMARK    3  A    between atoms: C_5  and  O_6
REMARK    4  A    between atoms: O_6  and  C_7
REMARK    5  A    between atoms: C_7  and  C_9
REMARK    6  A    between atoms: N_12  and  C_13
REMARK    7  A    between atoms: C_13  and  C_15
REMARK                            x       y       z     vdW  Elec       q    Type
REMARK                         _______ _______ _______ _____ _____    ______ ____
ROOT
ATOM      1  C   UNL     1      38.486   1.495  13.508  0.00  0.00    +0.000 A 
ATOM      2  C   UNL     1      37.360   0.761  13.870  0.00  0.00    +0.000 A 
ATOM      3  N   UNL     1      36.905  -0.354  13.132  0.00  0.00    +0.000 NA
ATOM      4  N   UNL     1      36.826   1.279  14.980  0.00  0.00    +0.000 N 
ATOM      5  C   UNL     1      37.558   2.296  15.329  0.00  0.00    +0.000 A 
ATOM      6  N   UNL     1      37.383   3.109  16.389  0.00  0.00    +0.000 NA
ATOM      7  C   UNL     1      38.234   4.131  16.621  0.00  0.00    +0.000 A 
ATOM      8  C   UNL     1      38.073   4.981  17.706  0.00  0.00    +0.000 A 
ATOM      9  C   UNL     1      38.952   6.020  17.928  0.00  0.00    +0.000 A 
ATOM     10  C   UNL     1      39.991   6.219  17.075  0.00  0.00    +0.000 A 
ATOM     11  C   UNL     1      40.145   5.365  15.994  0.00  0.00    +0.000 A 
ATOM     12  C   UNL     1      39.285   4.316  15.741  0.00  0.00    +0.000 A 
ATOM     13  N   UNL     1      39.451   3.496  14.681  0.00  0.00    +0.000 NA
ATOM     14  C   UNL     1      38.623   2.480  14.432  0.00  0.00    +0.000 A 
ENDROOT
BRANCH   1  15
ATOM     15  C   UNL     1      39.376   1.298  12.380  0.00  0.00    +0.000 C 
ATOM     16  O   UNL     1      38.929   1.680  11.244  0.00  0.00    +0.000 OA
BRANCH  15  17
ATOM     17  O   UNL     1      40.607   0.757  12.417  0.00  0.00    +0.000 OA
BRANCH  17  18
ATOM     18  C   UNL     1      40.783  -0.587  12.824  0.00  0.00    +0.000 C 
BRANCH  18  19
ATOM     19  C   UNL     1      41.326  -0.495  14.375  0.00  0.00    +0.000 C 
ATOM     20  C   UNL     1      42.670  -1.385  14.052  0.00  0.00    +0.000 C 
BRANCH  19  22
ATOM     21  C   UNL     1      39.718  -2.414  13.917  0.00  0.00    +0.000 C 
ATOM     22  C   UNL     1      40.494  -1.781  14.956  0.00  0.00    +0.000 C 
ENDBRANCH  19  22
ENDBRANCH  18  19
ENDBRANCH  17  18
ENDBRANCH  15  17
ENDBRANCH   1  15
BRANCH   4  23
ATOM     23  C   UNL     1      35.561   0.681  15.633  0.00  0.00    +0.000 C 
ATOM     24  C   UNL     1      35.084   1.987  16.548  0.00  0.00    +0.000 C 
BRANCH  23  25
ATOM     25  C   UNL     1      36.325  -0.133  16.773  0.00  0.00    +0.000 A 
ATOM     26  C   UNL     1      37.217  -1.071  16.591  0.00  0.00    +0.000 A 
ATOM     27  C   UNL     1      37.795  -1.689  17.706  0.00  0.00    +0.000 A 
ATOM     28  C   UNL     1      37.430  -1.316  18.955  0.00  0.00    +0.000 A 
ATOM     29  C   UNL     1      36.499  -0.337  19.170  0.00  0.00    +0.000 A 
ATOM     30  C   UNL     1      35.937   0.264  18.028  0.00  0.00    +0.000 A 
ENDBRANCH  23  25
ENDBRANCH   4  23
TORSDOF 7
ENDMDL
MODEL 6
REMARK VINA RESULT:      -6.6      2.425      3.376
REMARK  Name = 
REMARK  7 active torsions:
REMARK  status: ('A' for Active; 'I' for Inactive)
REMARK    1  A    between atoms: C_2  and  C_3
REMARK    2  A    between atoms: C_3  and  C_5
REMARK    3  A    between atoms: C_5  and  O_6
REMARK    4  A    between atoms: O_6  and  C_7
REMARK    5  A    between atoms: C_7  and  C_9
REMARK    6  A    between atoms: N_12  and  C_13
REMARK    7  A    between atoms: C_13  and  C_15
REMARK                            x       y       z     vdW  Elec       q    Type
REMARK                         _______ _______ _______ _____ _____    ______ ____
ROOT
ATOM      1  C   UNL     1      38.067   2.865  15.124  0.00  0.00    +0.000 A 
ATOM      2  C   UNL     1      38.810   2.610  13.975  0.00  0.00    +0.000 A 
ATOM      3  N   UNL     1      39.655   3.573  13.382  0.00  0.00    +0.000 NA
ATOM      4  N   UNL     1      38.584   1.358  13.564  0.00  0.00    +0.000 N 
ATOM      5  C   UNL     1      37.741   0.820  14.396  0.00  0.00    +0.000 A 
ATOM      6  N   UNL     1      37.238  -0.430  14.362  0.00  0.00    +0.000 NA
ATOM      7  C   UNL     1      36.365  -0.847  15.303  0.00  0.00    +0.000 A 
ATOM      8  C   UNL     1      35.834  -2.128  15.288  0.00  0.00    +0.000 A 
ATOM      9  C   UNL     1      34.943  -2.538  16.258  0.00  0.00    +0.000 A 
ATOM     10  C   UNL     1      34.578  -1.678  17.244  0.00  0.00    +0.000 A 
ATOM     11  C   UNL     1      35.113  -0.399  17.252  0.00  0.00    +0.000 A 
ATOM     12  C   UNL     1      36.006   0.044  16.298  0.00  0.00    +0.000 A 
ATOM     13  N   UNL     1      36.516   1.294  16.323  0.00  0.00    +0.000 NA
ATOM     14  C   UNL     1      37.379   1.728  15.404  0.00  0.00    +0.000 A 
ENDROOT
BRANCH   1  15
ATOM     15  C   UNL     1      37.999   4.081  15.911  0.00  0.00    +0.000 C 
ATOM     16  O   UNL     1      38.921   4.233  16.784  0.00  0.00    +0.000 OA
BRANCH  15  17
ATOM     17  O   UNL     1      37.070   5.049  15.809  0.00  0.00    +0.000 OA
BRANCH  17  18
ATOM     18  C   UNL     1      36.955   5.803  14.617  0.00  0.00    +0.000 C 
BRANCH  18  19
ATOM     19  C   UNL     1      35.610   5.216  13.871  0.00  0.00    +0.000 C 
ATOM     20  C   UNL     1      36.384   5.019  12.434  0.00  0.00    +0.000 C 
BRANCH  19  22
ATOM     21  C   UNL     1      33.749   6.929  14.160  0.00  0.00    +0.000 C 
ATOM     22  C   UNL     1      34.971   6.662  13.441  0.00  0.00    +0.000 C 
ENDBRANCH  19  22
ENDBRANCH  18  19
ENDBRANCH  17  18
ENDBRANCH  15  17
ENDBRANCH   1  15
BRANCH   4  23
ATOM     23  C   UNL     1      39.267   0.776  12.308  0.00  0.00    +0.000 C 
ATOM     24  C   UNL     1      38.019  -0.162  11.731  0.00  0.00    +0.000 C 
BRANCH  23  25
ATOM     25  C   UNL     1      40.081  -0.366  13.070  0.00  0.00    +0.000 A 
ATOM     26  C   UNL     1      40.945  -0.190  14.035  0.00  0.00    +0.000 A 
ATOM     27  C   UNL     1      41.575  -1.306  14.598  0.00  0.00    +0.000 A 
ATOM     28  C   UNL     1      41.289  -2.549  14.144  0.00  0.00    +0.000 A 
ATOM     29  C   UNL     1      40.389  -2.758  13.136  0.00  0.00    +0.000 A 
ATOM     30  C   UNL     1      39.773  -1.615  12.591  0.00  0.00    +0.000 A 
ENDBRANCH  23  25
ENDBRANCH   4  23
TORSDOF 7
ENDMDL
MODEL 7
REMARK VINA RESULT:      -6.5      2.298      6.106
REMARK  Name = 
REMARK  7 active torsions:
REMARK  status: ('A' for Active; 'I' for Inactive)
REMARK    1  A    between atoms: C_2  and  C_3
REMARK    2  A    between atoms: C_3  and  C_5
REMARK    3  A    between atoms: C_5  and  O_6
REMARK    4  A    between atoms: O_6  and  C_7
REMARK    5  A    between atoms: C_7  and  C_9
REMARK    6  A    between atoms: N_12  and  C_13
REMARK    7  A    between atoms: C_13  and  C_15
REMARK                            x       y       z     vdW  Elec       q    Type
REMARK                         _______ _______ _______ _____ _____    ______ ____
ROOT
ATOM      1  C   UNL     1      38.319  -0.400  13.435  0.00  0.00    +0.000 A 
ATOM      2  C   UNL     1      37.374  -1.229  14.033  0.00  0.00    +0.000 A 
ATOM      3  N   UNL     1      37.104  -2.536  13.572  0.00  0.00    +0.000 NA
ATOM      4  N   UNL     1      36.808  -0.593  15.063  0.00  0.00    +0.000 N 
ATOM      5  C   UNL     1      37.349   0.588  15.138  0.00  0.00    +0.000 A 
ATOM      6  N   UNL     1      37.076   1.561  16.030  0.00  0.00    +0.000 NA
ATOM      7  C   UNL     1      37.726   2.743  15.980  0.00  0.00    +0.000 A 
ATOM      8  C   UNL     1      37.462   3.759  16.887  0.00  0.00    +0.000 A 
ATOM      9  C   UNL     1      38.135   4.960  16.821  0.00  0.00    +0.000 A 
ATOM     10  C   UNL     1      39.073   5.156  15.858  0.00  0.00    +0.000 A 
ATOM     11  C   UNL     1      39.332   4.136  14.955  0.00  0.00    +0.000 A 
ATOM     12  C   UNL     1      38.676   2.922  14.991  0.00  0.00    +0.000 A 
ATOM     13  N   UNL     1      38.942   1.940  14.103  0.00  0.00    +0.000 NA
ATOM     14  C   UNL     1      38.313   0.765  14.132  0.00  0.00    +0.000 A 
ENDROOT
BRANCH   1  15
ATOM     15  C   UNL     1      39.172  -0.669  12.293  0.00  0.00    +0.000 C 
ATOM     16  O   UNL     1      38.818  -0.123  11.193  0.00  0.00    +0.000 OA
BRANCH  15  17
ATOM     17  O   UNL     1      40.283  -1.428  12.285  0.00  0.00    +0.000 OA
BRANCH  17  18
ATOM     18  C   UNL     1      41.457  -0.980  12.937  0.00  0.00    +0.000 C 
BRANCH  18  19
ATOM     19  C   UNL     1      42.125  -2.334  13.591  0.00  0.00    +0.000 C 
ATOM     20  C   UNL     1      40.967  -2.454  14.752  0.00  0.00    +0.000 C 
BRANCH  19  22
ATOM     21  C   UNL     1      44.079  -0.723  13.844  0.00  0.00    +0.000 C 
ATOM     22  C   UNL     1      43.183  -1.577  14.586  0.00  0.00    +0.000 C 
ENDBRANCH  19  22
ENDBRANCH  18  19
ENDBRANCH  17  18
ENDBRANCH  15  17
ENDBRANCH   1  15
BRANCH   4  23
ATOM     23  C   UNL     1      35.716  -1.254  15.930  0.00  0.00    +0.000 C 
ATOM     24  C   UNL     1      35.013   0.112  16.570  0.00  0.00    +0.000 C 
BRANCH  23  25
ATOM     25  C   UNL     1      36.669  -1.621  17.157  0.00  0.00    +0.000 A 
ATOM     26  C   UNL     1      36.760  -0.971  18.288  0.00  0.00    +0.000 A 
ATOM     27  C   UNL     1      37.651  -1.428  19.266  0.00  0.00    +0.000 A 
ATOM     28  C   UNL     1      38.406  -2.528  19.037  0.00  0.00    +0.000 A 
ATOM     29  C   UNL     1      38.328  -3.223  17.862  0.00  0.00    +0.000 A 
ATOM     30  C   UNL     1      37.422  -2.738  16.899  0.00  0.00    +0.000 A 
ENDBRANCH  23  25
ENDBRANCH   4  23
TORSDOF 7
ENDMDL
MODEL 8
REMARK VINA RESULT:      -6.5      3.414      6.295
REMARK  Name = 
REMARK  7 active torsions:
REMARK  status: ('A' for Active; 'I' for Inactive)
REMARK    1  A    between atoms: C_2  and  C_3
REMARK    2  A    between atoms: C_3  and  C_5
REMARK    3  A    between atoms: C_5  and  O_6
REMARK    4  A    between atoms: O_6  and  C_7
REMARK    5  A    between atoms: C_7  and  C_9
REMARK    6  A    between atoms: N_12  and  C_13
REMARK    7  A    between atoms: C_13  and  C_15
REMARK                            x       y       z     vdW  Elec       q    Type
REMARK                         _______ _______ _______ _____ _____    ______ ____
ROOT
ATOM      1  C   UNL     1      38.114   2.394  13.212  0.00  0.00    +0.000 A 
ATOM      2  C   UNL     1      37.080   1.512  13.515  0.00  0.00    +0.000 A 
ATOM      3  N   UNL     1      36.543   0.612  12.568  0.00  0.00    +0.000 NA
ATOM      4  N   UNL     1      36.717   1.669  14.791  0.00  0.00    +0.000 N 
ATOM      5  C   UNL     1      37.468   2.601  15.300  0.00  0.00    +0.000 A 
ATOM      6  N   UNL     1      37.443   3.080  16.559  0.00  0.00    +0.000 NA
ATOM      7  C   UNL     1      38.292   4.057  16.942  0.00  0.00    +0.000 A 
ATOM      8  C   UNL     1      38.285   4.566  18.232  0.00  0.00    +0.000 A 
ATOM      9  C   UNL     1      39.160   5.563  18.606  0.00  0.00    +0.000 A 
ATOM     10  C   UNL     1      40.044   6.059  17.701  0.00  0.00    +0.000 A 
ATOM     11  C   UNL     1      40.046   5.545  16.413  0.00  0.00    +0.000 A 
ATOM     12  C   UNL     1      39.184   4.547  16.005  0.00  0.00    +0.000 A 
ATOM     13  N   UNL     1      39.201   4.061  14.746  0.00  0.00    +0.000 NA
ATOM     14  C   UNL     1      38.371   3.097  14.346  0.00  0.00    +0.000 A 
ENDROOT
BRANCH   1  15
ATOM     15  C   UNL     1      38.817   2.574  11.957  0.00  0.00    +0.000 C 
ATOM     16  O   UNL     1      39.768   1.751  11.727  0.00  0.00    +0.000 OA
BRANCH  15  17
ATOM     17  O   UNL     1      38.565   3.513  11.026  0.00  0.00    +0.000 OA
BRANCH  17  18
ATOM     18  C   UNL     1      37.238   3.949  10.796  0.00  0.00    +0.000 C 
BRANCH  18  19
ATOM     19  C   UNL     1      37.197   4.363   9.203  0.00  0.00    +0.000 C 
ATOM     20  C   UNL     1      36.051   5.518   9.442  0.00  0.00    +0.000 C 
BRANCH  19  22
ATOM     21  C   UNL     1      36.005   3.177   7.292  0.00  0.00    +0.000 C 
ATOM     22  C   UNL     1      36.104   3.238   8.731  0.00  0.00    +0.000 C 
ENDBRANCH  19  22
ENDBRANCH  18  19
ENDBRANCH  17  18
ENDBRANCH  15  17
ENDBRANCH   1  15
BRANCH   4  23
ATOM     23  C   UNL     1      35.589   0.829  15.428  0.00  0.00    +0.000 C 
ATOM     24  C   UNL     1      35.154   1.853  16.666  0.00  0.00    +0.000 C 
BRANCH  23  25
ATOM     25  C   UNL     1      36.545  -0.143  16.256  0.00  0.00    +0.000 A 
ATOM     26  C   UNL     1      37.529  -0.856  15.776  0.00  0.00    +0.000 A 
ATOM     27  C   UNL     1      38.275  -1.662  16.644  0.00  0.00    +0.000 A 
ATOM     28  C   UNL     1      37.975  -1.698  17.964  0.00  0.00    +0.000 A 
ATOM     29  C   UNL     1      36.950  -0.961  18.489  0.00  0.00    +0.000 A 
ATOM     30  C   UNL     1      36.219  -0.161  17.589  0.00  0.00    +0.000 A 
ENDBRANCH  23  25
ENDBRANCH   4  23
TORSDOF 7
ENDMDL
MODEL 9
REMARK VINA RESULT:      -6.4     26.706     30.355
REMARK  Name = 
REMARK  7 active torsions:
REMARK  status: ('A' for Active; 'I' for Inactive)
REMARK    1  A    between atoms: C_2  and  C_3
REMARK    2  A    between atoms: C_3  and  C_5
REMARK    3  A    between atoms: C_5  and  O_6
REMARK    4  A    between atoms: O_6  and  C_7
REMARK    5  A    between atoms: C_7  and  C_9
REMARK    6  A    between atoms: N_12  and  C_13
REMARK    7  A    between atoms: C_13  and  C_15
REMARK                            x       y       z     vdW  Elec       q    Type
REMARK                         _______ _______ _______ _____ _____    ______ ____
ROOT
ATOM      1  C   UNL     1      24.500  19.964  35.915  0.00  0.00    +0.000 A 
ATOM      2  C   UNL     1      23.873  20.837  35.031  0.00  0.00    +0.000 A 
ATOM      3  N   UNL     1      23.504  22.152  35.389  0.00  0.00    +0.000 NA
ATOM      4  N   UNL     1      23.697  20.232  33.853  0.00  0.00    +0.000 N 
ATOM      5  C   UNL     1      24.181  19.028  33.955  0.00  0.00    +0.000 A 
ATOM      6  N   UNL     1      24.214  18.072  33.006  0.00  0.00    +0.000 NA
ATOM      7  C   UNL     1      24.753  16.863  33.265  0.00  0.00    +0.000 A 
ATOM      8  C   UNL     1      24.798  15.863  32.303  0.00  0.00    +0.000 A 
ATOM      9  C   UNL     1      25.353  14.633  32.585  0.00  0.00    +0.000 A 
ATOM     10  C   UNL     1      25.865  14.391  33.820  0.00  0.00    +0.000 A 
ATOM     11  C   UNL     1      25.817  15.395  34.775  0.00  0.00    +0.000 A 
ATOM     12  C   UNL     1      25.269  16.637  34.528  0.00  0.00    +0.000 A 
ATOM     13  N   UNL     1      25.230  17.601  35.472  0.00  0.00    +0.000 NA
ATOM     14  C   UNL     1      24.702  18.803  35.240  0.00  0.00    +0.000 A 
ENDROOT
BRANCH   1  15
ATOM     15  C   UNL     1      24.887  20.189  37.295  0.00  0.00    +0.000 C 
ATOM     16  O   UNL     1      25.895  20.955  37.473  0.00  0.00    +0.000 OA
BRANCH  15  17
ATOM     17  O   UNL     1      24.292  19.675  38.387  0.00  0.00    +0.000 OA
BRANCH  17  18
ATOM     18  C   UNL     1      24.950  18.687  39.157  0.00  0.00    +0.000 C 
BRANCH  18  19
ATOM     19  C   UNL     1      23.751  17.690  39.685  0.00  0.00    +0.000 C 
ATOM     20  C   UNL     1      24.132  17.924  41.267  0.00  0.00    +0.000 C 
BRANCH  19  22
ATOM     21  C   UNL     1      24.413  15.657  38.303  0.00  0.00    +0.000 C 
ATOM     22  C   UNL     1      24.596  16.290  39.587  0.00  0.00    +0.000 C 
ENDBRANCH  19  22
ENDBRANCH  18  19
ENDBRANCH  17  18
ENDBRANCH  15  17
ENDBRANCH   1  15
BRANCH   4  23
ATOM     23  C   UNL     1      23.024  20.945  32.661  0.00  0.00    +0.000 C 
ATOM     24  C   UNL     1      22.738  19.629  31.682  0.00  0.00    +0.000 C 
BRANCH  23  25
ATOM     25  C   UNL     1      24.375  21.451  31.979  0.00  0.00    +0.000 A 
ATOM     26  C   UNL     1      25.153  20.757  31.190  0.00  0.00    +0.000 A 
ATOM     27  C   UNL     1      26.308  21.354  30.673  0.00  0.00    +0.000 A 
ATOM     28  C   UNL     1      26.611  22.635  30.990  0.00  0.00    +0.000 A 
ATOM     29  C   UNL     1      25.813  23.381  31.813  0.00  0.00    +0.000 A 
ATOM     30  C   UNL     1      24.659  22.751  32.316  0.00  0.00    +0.000 A 
ENDBRANCH  23  25
ENDBRANCH   4  23
TORSDOF 7
ENDMDL
MODEL 10
REMARK VINA RESULT:      -6.2      2.684      6.177
REMARK  Name = 
REMARK  7 active torsions:
REMARK  status: ('A' for Active; 'I' for Inactive)
REMARK    1  A    between atoms: C_2  and  C_3
REMARK    2  A    between atoms: C_3  and  C_5
REMARK    3  A    between atoms: C_5  and  O_6
REMARK    4  A    between atoms: O_6  and  C_7
REMARK    5  A    between atoms: C_7  and  C_9
REMARK    6  A    between atoms: N_12  and  C_13
REMARK    7  A    between atoms: C_13  and  C_15
REMARK                            x       y       z     vdW  Elec       q    Type
REMARK                         _______ _______ _______ _____ _____    ______ ____
ROOT
ATOM      1  C   UNL     1      38.890   1.165  13.483  0.00  0.00    +0.000 A 
ATOM      2  C   UNL     1      39.132   2.463  13.925  0.00  0.00    +0.000 A 
ATOM      3  N   UNL     1      40.060   3.323  13.297  0.00  0.00    +0.000 NA
ATOM      4  N   UNL     1      38.368   2.724  14.989  0.00  0.00    +0.000 N 
ATOM      5  C   UNL     1      37.663   1.659  15.234  0.00  0.00    +0.000 A 
ATOM      6  N   UNL     1      36.759   1.480  16.218  0.00  0.00    +0.000 NA
ATOM      7  C   UNL     1      36.101   0.309  16.345  0.00  0.00    +0.000 A 
ATOM      8  C   UNL     1      35.167   0.102  17.351  0.00  0.00    +0.000 A 
ATOM      9  C   UNL     1      34.505  -1.102  17.466  0.00  0.00    +0.000 A 
ATOM     10  C   UNL     1      34.767  -2.102  16.585  0.00  0.00    +0.000 A 
ATOM     11  C   UNL     1      35.701  -1.889  15.584  0.00  0.00    +0.000 A 
ATOM     12  C   UNL     1      36.383  -0.698  15.439  0.00  0.00    +0.000 A 
ATOM     13  N   UNL     1      37.290  -0.509  14.457  0.00  0.00    +0.000 NA
ATOM     14  C   UNL     1      37.952   0.640  14.312  0.00  0.00    +0.000 A 
ENDROOT
BRANCH   1  15
ATOM     15  C   UNL     1      39.487   0.459  12.366  0.00  0.00    +0.000 C 
ATOM     16  O   UNL     1      38.911   0.614  11.235  0.00  0.00    +0.000 OA
BRANCH  15  17
ATOM     17  O   UNL     1      40.575  -0.333  12.410  0.00  0.00    +0.000 OA
BRANCH  17  18
ATOM     18  C   UNL     1      40.502  -1.611  13.014  0.00  0.00    +0.000 C 
BRANCH  18  19
ATOM     19  C   UNL     1      41.096  -1.397  14.535  0.00  0.00    +0.000 C 
ATOM     20  C   UNL     1      42.601  -1.908  14.115  0.00  0.00    +0.000 C 
BRANCH  19  22
ATOM     21  C   UNL     1      39.519  -2.747  16.008  0.00  0.00    +0.000 C 
ATOM     22  C   UNL     1      40.658  -2.859  15.129  0.00  0.00    +0.000 C 
ENDBRANCH  19  22
ENDBRANCH  18  19
ENDBRANCH  17  18
ENDBRANCH  15  17
ENDBRANCH   1  15
BRANCH   4  23
ATOM     23  C   UNL     1      38.410   4.089  15.710  0.00  0.00    +0.000 C 
ATOM     24  C   UNL     1      37.440   3.736  17.016  0.00  0.00    +0.000 C 
BRANCH  23  25
ATOM     25  C   UNL     1      37.314   4.800  14.793  0.00  0.00    +0.000 A 
ATOM     26  C   UNL     1      36.079   4.412  14.620  0.00  0.00    +0.000 A 
ATOM     27  C   UNL     1      35.243   5.154  13.777  0.00  0.00    +0.000 A 
ATOM     28  C   UNL     1      35.715   6.258  13.152  0.00  0.00    +0.000 A 
ATOM     29  C   UNL     1      37.004   6.683  13.318  0.00  0.00    +0.000 A 
ATOM     30  C   UNL     1      37.819   5.915  14.172  0.00  0.00    +0.000 A 
ENDBRANCH  23  25
ENDBRANCH   4  23
TORSDOF 7
ENDMDL
