MODEL 1
REMARK VINA RESULT:      -8.0      0.000      0.000
REMARK  Name = 
REMARK  8 active torsions:
REMARK  status: ('A' for Active; 'I' for Inactive)
REMARK    1  A    between atoms: C_2  and  N_3
REMARK    2  A    between atoms: N_3  and  C_4
REMARK    3  A    between atoms: N_3  and  C_6
REMARK    4  A    between atoms: C_9  and  N_10
REMARK    5  A    between atoms: C_11  and  C_13
REMARK    6  A    between atoms: C_13  and  C_15
REMARK    7  A    between atoms: C_19  and  C_20
REMARK    8  A    between atoms: C_20  and  C_22
REMARK                            x       y       z     vdW  Elec       q    Type
REMARK                         _______ _______ _______ _____ _____    ______ ____
ROOT
ATOM      1  C   UNL     1      36.781   2.891  14.115  0.00  0.00    +0.000 C 
ATOM      2  C   UNL     1      38.214   2.070  13.942  0.00  0.00    +0.000 C 
ENDROOT
BRANCH   1   3
ATOM      3  C   UNL     1      36.238   1.875  15.248  0.00  0.00    +0.000 A 
ATOM      4  C   UNL     1      35.219   2.165  16.020  0.00  0.00    +0.000 A 
ATOM      5  C   UNL     1      34.788   1.276  16.979  0.00  0.00    +0.000 A 
ATOM      6  C   UNL     1      35.449   0.073  17.109  0.00  0.00    +0.000 A 
ATOM      7  C   UNL     1      36.524  -0.216  16.283  0.00  0.00    +0.000 A 
ATOM      8  C   UNL     1      36.935   0.695  15.332  0.00  0.00    +0.000 A 
BRANCH   7   9
ATOM      9  C   UNL     1      37.226  -1.504  16.432  0.00  0.00    +0.000 C 
ATOM     10  O   UNL     1      38.391  -1.491  16.894  0.00  0.00    +0.000 OA
BRANCH   9  11
ATOM     11  C   UNL     1      36.646  -2.785  16.078  0.00  0.00    +0.000 A 
ATOM     12  C   UNL     1      35.713  -2.830  15.068  0.00  0.00    +0.000 A 
ATOM     13  C   UNL     1      35.144  -3.996  14.700  0.00  0.00    +0.000 A 
ATOM     14  C   UNL     1      35.467  -5.184  15.312  0.00  0.00    +0.000 A 
ATOM     15  C   UNL     1      36.409  -5.144  16.333  0.00  0.00    +0.000 A 
ATOM     16  C   UNL     1      36.985  -3.956  16.703  0.00  0.00    +0.000 A 
ENDBRANCH   9  11
ENDBRANCH   7   9
ENDBRANCH   1   3
BRANCH   1  18
ATOM     17  N   UNL     1      38.485   3.708  15.797  0.00  0.00    +0.000 NA
ATOM     18  C   UNL     1      37.344   4.043  15.056  0.00  0.00    +0.000 C 
ATOM     19  O   UNL     1      36.846   5.133  15.145  0.00  0.00    +0.000 OA
BRANCH  17  23
ATOM     20  C   UNL     1      40.150   6.569  18.392  0.00  0.00    +0.000 A 
ATOM     21  C   UNL     1      39.187   5.697  18.831  0.00  0.00    +0.000 A 
ATOM     22  C   UNL     1      38.643   4.763  17.984  0.00  0.00    +0.000 A 
ATOM     23  C   UNL     1      39.053   4.674  16.660  0.00  0.00    +0.000 A 
ATOM     24  C   UNL     1      40.020   5.560  16.248  0.00  0.00    +0.000 A 
ATOM     25  C   UNL     1      40.495   5.513  14.846  0.00  0.00    +0.000 C 
ATOM     26  C   UNL     1      40.553   6.480  17.086  0.00  0.00    +0.000 A 
BRANCH  20  27
ATOM     27  N   UNL     1      40.738   7.547  19.226  0.00  0.00    +0.000 N 
BRANCH  27  29
ATOM     28  C   UNL     1      39.002   8.423  20.759  0.00  0.00    +0.000 C 
ATOM     29  C   UNL     1      39.987   8.706  19.657  0.00  0.00    +0.000 C 
ENDBRANCH  27  29
BRANCH  27  30
ATOM     30  C   UNL     1      42.126   7.402  19.673  0.00  0.00    +0.000 C 
ATOM     31  C   UNL     1      42.264   6.284  20.651  0.00  0.00    +0.000 C 
ENDBRANCH  27  30
ENDBRANCH  20  27
ENDBRANCH  17  23
ENDBRANCH   1  18
TORSDOF 8
ENDMDL
MODEL 2
REMARK VINA RESULT:      -8.0      1.603      1.933
REMARK  Name = 
REMARK  8 active torsions:
REMARK  status: ('A' for Active; 'I' for Inactive)
REMARK    1  A    between atoms: C_2  and  N_3
REMARK    2  A    between atoms: N_3  and  C_4
REMARK    3  A    between atoms: N_3  and  C_6
REMARK    4  A    between atoms: C_9  and  N_10
REMARK    5  A    between atoms: C_11  and  C_13
REMARK    6  A    between atoms: C_13  and  C_15
REMARK    7  A    between atoms: C_19  and  C_20
REMARK    8  A    between atoms: C_20  and  C_22
REMARK                            x       y       z     vdW  Elec       q    Type
REMARK                         _______ _______ _______ _____ _____    ______ ____
ROOT
ATOM      1  C   UNL     1      36.161   3.049  13.883  0.00  0.00    +0.000 C 
ATOM      2  C   UNL     1      37.549   2.292  13.374  0.00  0.00    +0.000 C 
ENDROOT
BRANCH   1   3
ATOM      3  C   UNL     1      35.825   1.893  14.961  0.00  0.00    +0.000 A 
ATOM      4  C   UNL     1      35.184   2.140  16.077  0.00  0.00    +0.000 A 
ATOM      5  C   UNL     1      34.919   1.129  16.974  0.00  0.00    +0.000 A 
ATOM      6  C   UNL     1      35.341  -0.148  16.673  0.00  0.00    +0.000 A 
ATOM      7  C   UNL     1      36.017  -0.390  15.486  0.00  0.00    +0.000 A 
ATOM      8  C   UNL     1      36.270   0.643  14.607  0.00  0.00    +0.000 A 
BRANCH   7   9
ATOM      9  C   UNL     1      36.466  -1.760  15.175  0.00  0.00    +0.000 C 
ATOM     10  O   UNL     1      35.607  -2.672  15.157  0.00  0.00    +0.000 OA
BRANCH   9  11
ATOM     11  C   UNL     1      37.844  -2.111  14.888  0.00  0.00    +0.000 A 
ATOM     12  C   UNL     1      38.216  -2.301  13.577  0.00  0.00    +0.000 A 
ATOM     13  C   UNL     1      39.484  -2.629  13.256  0.00  0.00    +0.000 A 
ATOM     14  C   UNL     1      40.456  -2.788  14.216  0.00  0.00    +0.000 A 
ATOM     15  C   UNL     1      40.084  -2.598  15.543  0.00  0.00    +0.000 A 
ATOM     16  C   UNL     1      38.794  -2.264  15.863  0.00  0.00    +0.000 A 
ENDBRANCH   9  11
ENDBRANCH   7   9
ENDBRANCH   1   3
BRANCH   1  18
ATOM     17  N   UNL     1      38.046   3.647  15.462  0.00  0.00    +0.000 NA
ATOM     18  C   UNL     1      36.869   4.097  14.848  0.00  0.00    +0.000 C 
ATOM     19  O   UNL     1      36.447   5.202  15.054  0.00  0.00    +0.000 OA
BRANCH  17  23
ATOM     20  C   UNL     1      40.089   6.217  18.091  0.00  0.00    +0.000 A 
ATOM     21  C   UNL     1      39.068   5.418  18.540  0.00  0.00    +0.000 A 
ATOM     22  C   UNL     1      38.401   4.579  17.681  0.00  0.00    +0.000 A 
ATOM     23  C   UNL     1      38.741   4.514  16.336  0.00  0.00    +0.000 A 
ATOM     24  C   UNL     1      39.767   5.325  15.915  0.00  0.00    +0.000 A 
ATOM     25  C   UNL     1      40.173   5.300  14.491  0.00  0.00    +0.000 C 
ATOM     26  C   UNL     1      40.422   6.152  16.765  0.00  0.00    +0.000 A 
BRANCH  20  27
ATOM     27  N   UNL     1      40.803   7.096  18.937  0.00  0.00    +0.000 N 
BRANCH  27  29
ATOM     28  C   UNL     1      39.180   8.055  20.542  0.00  0.00    +0.000 C 
ATOM     29  C   UNL     1      40.186   8.300  19.450  0.00  0.00    +0.000 C 
ENDBRANCH  27  29
BRANCH  27  30
ATOM     30  C   UNL     1      42.189   6.800  19.310  0.00  0.00    +0.000 C 
ATOM     31  C   UNL     1      42.259   6.143  20.647  0.00  0.00    +0.000 C 
ENDBRANCH  27  30
ENDBRANCH  20  27
ENDBRANCH  17  23
ENDBRANCH   1  18
TORSDOF 8
ENDMDL
MODEL 3
REMARK VINA RESULT:      -7.9      4.688      6.184
REMARK  Name = 
REMARK  8 active torsions:
REMARK  status: ('A' for Active; 'I' for Inactive)
REMARK    1  A    between atoms: C_2  and  N_3
REMARK    2  A    between atoms: N_3  and  C_4
REMARK    3  A    between atoms: N_3  and  C_6
REMARK    4  A    between atoms: C_9  and  N_10
REMARK    5  A    between atoms: C_11  and  C_13
REMARK    6  A    between atoms: C_13  and  C_15
REMARK    7  A    between atoms: C_19  and  C_20
REMARK    8  A    between atoms: C_20  and  C_22
REMARK                            x       y       z     vdW  Elec       q    Type
REMARK                         _______ _______ _______ _____ _____    ______ ____
ROOT
ATOM      1  C   UNL     1      36.956   1.826  13.691  0.00  0.00    +0.000 C 
ATOM      2  C   UNL     1      36.702   0.495  12.731  0.00  0.00    +0.000 C 
ENDROOT
BRANCH   1   3
ATOM      3  C   UNL     1      36.149   1.188  14.936  0.00  0.00    +0.000 A 
ATOM      4  C   UNL     1      35.481   1.925  15.790  0.00  0.00    +0.000 A 
ATOM      5  C   UNL     1      34.808   1.346  16.842  0.00  0.00    +0.000 A 
ATOM      6  C   UNL     1      34.851  -0.025  16.978  0.00  0.00    +0.000 A 
ATOM      7  C   UNL     1      35.561  -0.788  16.065  0.00  0.00    +0.000 A 
ATOM      8  C   UNL     1      36.227  -0.180  15.020  0.00  0.00    +0.000 A 
BRANCH   7   9
ATOM      9  C   UNL     1      35.602  -2.254  16.221  0.00  0.00    +0.000 C 
ATOM     10  O   UNL     1      34.637  -2.921  15.779  0.00  0.00    +0.000 OA
BRANCH   9  11
ATOM     11  C   UNL     1      36.694  -2.967  16.855  0.00  0.00    +0.000 A 
ATOM     12  C   UNL     1      37.425  -2.325  17.827  0.00  0.00    +0.000 A 
ATOM     13  C   UNL     1      38.450  -2.944  18.447  0.00  0.00    +0.000 A 
ATOM     14  C   UNL     1      38.809  -4.236  18.139  0.00  0.00    +0.000 A 
ATOM     15  C   UNL     1      38.073  -4.889  17.157  0.00  0.00    +0.000 A 
ATOM     16  C   UNL     1      37.032  -4.255  16.531  0.00  0.00    +0.000 A 
ENDBRANCH   9  11
ENDBRANCH   7   9
ENDBRANCH   1   3
BRANCH   1  18
ATOM     17  N   UNL     1      39.115   0.573  13.273  0.00  0.00    +0.000 NA
ATOM     18  C   UNL     1      38.439   1.452  14.131  0.00  0.00    +0.000 C 
ATOM     19  O   UNL     1      38.966   1.878  15.123  0.00  0.00    +0.000 OA
BRANCH  17  23
ATOM     20  C   UNL     1      43.065  -0.544  14.190  0.00  0.00    +0.000 A 
ATOM     21  C   UNL     1      42.805   0.595  13.472  0.00  0.00    +0.000 A 
ATOM     22  C   UNL     1      41.515   0.960  13.172  0.00  0.00    +0.000 A 
ATOM     23  C   UNL     1      40.438   0.187  13.589  0.00  0.00    +0.000 A 
ATOM     24  C   UNL     1      40.729  -0.947  14.307  0.00  0.00    +0.000 A 
ATOM     25  C   UNL     1      39.621  -1.811  14.776  0.00  0.00    +0.000 C 
ATOM     26  C   UNL     1      42.002  -1.305  14.599  0.00  0.00    +0.000 A 
BRANCH  20  27
ATOM     27  N   UNL     1      44.375  -0.959  14.521  0.00  0.00    +0.000 N 
BRANCH  27  29
ATOM     28  C   UNL     1      45.949  -2.401  13.267  0.00  0.00    +0.000 C 
ATOM     29  C   UNL     1      44.816  -2.311  14.254  0.00  0.00    +0.000 C 
ENDBRANCH  27  29
BRANCH  27  30
ATOM     30  C   UNL     1      45.313  -0.023  15.145  0.00  0.00    +0.000 C 
ATOM     31  C   UNL     1      45.513  -0.339  16.588  0.00  0.00    +0.000 C 
ENDBRANCH  27  30
ENDBRANCH  20  27
ENDBRANCH  17  23
ENDBRANCH   1  18
TORSDOF 8
ENDMDL
MODEL 4
REMARK VINA RESULT:      -7.7      3.643      7.552
REMARK  Name = 
REMARK  8 active torsions:
REMARK  status: ('A' for Active; 'I' for Inactive)
REMARK    1  A    between atoms: C_2  and  N_3
REMARK    2  A    between atoms: N_3  and  C_4
REMARK    3  A    between atoms: N_3  and  C_6
REMARK    4  A    between atoms: C_9  and  N_10
REMARK    5  A    between atoms: C_11  and  C_13
REMARK    6  A    between atoms: C_13  and  C_15
REMARK    7  A    between atoms: C_19  and  C_20
REMARK    8  A    between atoms: C_20  and  C_22
REMARK                            x       y       z     vdW  Elec       q    Type
REMARK                         _______ _______ _______ _____ _____    ______ ____
ROOT
ATOM      1  C   UNL     1      35.639  -2.600  15.401  0.00  0.00    +0.000 C 
ATOM      2  C   UNL     1      36.165  -3.683  16.546  0.00  0.00    +0.000 C 
ENDROOT
BRANCH   1   3
ATOM      3  C   UNL     1      35.584  -1.380  16.458  0.00  0.00    +0.000 A 
ATOM      4  C   UNL     1      35.663  -1.570  17.753  0.00  0.00    +0.000 A 
ATOM      5  C   UNL     1      35.608  -0.505  18.624  0.00  0.00    +0.000 A 
ATOM      6  C   UNL     1      35.469   0.765  18.106  0.00  0.00    +0.000 A 
ATOM      7  C   UNL     1      35.389   0.946  16.734  0.00  0.00    +0.000 A 
ATOM      8  C   UNL     1      35.445  -0.140  15.885  0.00  0.00    +0.000 A 
BRANCH   7   9
ATOM      9  C   UNL     1      35.238   2.309  16.191  0.00  0.00    +0.000 C 
ATOM     10  O   UNL     1      34.082   2.785  16.107  0.00  0.00    +0.000 OA
BRANCH   9  11
ATOM     11  C   UNL     1      36.349   3.130  15.751  0.00  0.00    +0.000 A 
ATOM     12  C   UNL     1      37.253   3.574  16.689  0.00  0.00    +0.000 A 
ATOM     13  C   UNL     1      38.304   4.340  16.331  0.00  0.00    +0.000 A 
ATOM     14  C   UNL     1      38.520   4.709  15.024  0.00  0.00    +0.000 A 
ATOM     15  C   UNL     1      37.609   4.263  14.073  0.00  0.00    +0.000 A 
ATOM     16  C   UNL     1      36.543   3.485  14.442  0.00  0.00    +0.000 A 
ENDBRANCH   9  11
ENDBRANCH   7   9
ENDBRANCH   1   3
BRANCH   1  18
ATOM     17  N   UNL     1      38.076  -1.969  15.663  0.00  0.00    +0.000 NA
ATOM     18  C   UNL     1      37.064  -2.313  14.755  0.00  0.00    +0.000 C 
ATOM     19  O   UNL     1      37.285  -2.377  13.576  0.00  0.00    +0.000 OA
BRANCH  17  23
ATOM     20  C   UNL     1      41.949  -1.196  14.217  0.00  0.00    +0.000 A 
ATOM     21  C   UNL     1      41.585  -2.457  14.614  0.00  0.00    +0.000 A 
ATOM     22  C   UNL     1      40.321  -2.710  15.086  0.00  0.00    +0.000 A 
ATOM     23  C   UNL     1      39.375  -1.697  15.174  0.00  0.00    +0.000 A 
ATOM     24  C   UNL     1      39.767  -0.444  14.768  0.00  0.00    +0.000 A 
ATOM     25  C   UNL     1      38.801   0.676  14.840  0.00  0.00    +0.000 C 
ATOM     26  C   UNL     1      41.015  -0.198  14.304  0.00  0.00    +0.000 A 
BRANCH  20  27
ATOM     27  N   UNL     1      43.238  -0.889  13.724  0.00  0.00    +0.000 N 
BRANCH  27  29
ATOM     28  C   UNL     1      44.300  -0.850  11.488  0.00  0.00    +0.000 C 
ATOM     29  C   UNL     1      43.407  -0.162  12.484  0.00  0.00    +0.000 C 
ENDBRANCH  27  29
BRANCH  27  30
ATOM     30  C   UNL     1      44.432  -1.302  14.466  0.00  0.00    +0.000 C 
ATOM     31  C   UNL     1      44.883  -0.233  15.402  0.00  0.00    +0.000 C 
ENDBRANCH  27  30
ENDBRANCH  20  27
ENDBRANCH  17  23
ENDBRANCH   1  18
TORSDOF 8
ENDMDL
MODEL 5
REMARK VINA RESULT:      -7.6      2.196      9.549
REMARK  Name = 
REMARK  8 active torsions:
REMARK  status: ('A' for Active; 'I' for Inactive)
REMARK    1  A    between atoms: C_2  and  N_3
REMARK    2  A    between atoms: N_3  and  C_4
REMARK    3  A    between atoms: N_3  and  C_6
REMARK    4  A    between atoms: C_9  and  N_10
REMARK    5  A    between atoms: C_11  and  C_13
REMARK    6  A    between atoms: C_13  and  C_15
REMARK    7  A    between atoms: C_19  and  C_20
REMARK    8  A    between atoms: C_20  and  C_22
REMARK                            x       y       z     vdW  Elec       q    Type
REMARK                         _______ _______ _______ _____ _____    ______ ____
ROOT
ATOM      1  C   UNL     1      38.311   4.142  14.570  0.00  0.00    +0.000 C 
ATOM      2  C   UNL     1      36.701   4.508  14.750  0.00  0.00    +0.000 C 
ENDROOT
BRANCH   1   3
ATOM      3  C   UNL     1      38.676   4.629  16.066  0.00  0.00    +0.000 A 
ATOM      4  C   UNL     1      37.989   4.246  17.115  0.00  0.00    +0.000 A 
ATOM      5  C   UNL     1      38.327   4.685  18.375  0.00  0.00    +0.000 A 
ATOM      6  C   UNL     1      39.404   5.536  18.511  0.00  0.00    +0.000 A 
ATOM      7  C   UNL     1      40.119   5.929  17.390  0.00  0.00    +0.000 A 
ATOM      8  C   UNL     1      39.756   5.474  16.139  0.00  0.00    +0.000 A 
BRANCH   7   9
ATOM      9  C   UNL     1      41.266   6.841  17.547  0.00  0.00    +0.000 C 
ATOM     10  O   UNL     1      41.380   7.791  16.736  0.00  0.00    +0.000 OA
BRANCH   9  11
ATOM     11  C   UNL     1      42.271   6.704  18.584  0.00  0.00    +0.000 A 
ATOM     12  C   UNL     1      41.859   6.421  19.866  0.00  0.00    +0.000 A 
ATOM     13  C   UNL     1      42.753   6.283  20.867  0.00  0.00    +0.000 A 
ATOM     14  C   UNL     1      44.105   6.419  20.654  0.00  0.00    +0.000 A 
ATOM     15  C   UNL     1      44.525   6.707  19.360  0.00  0.00    +0.000 A 
ATOM     16  C   UNL     1      43.612   6.845  18.347  0.00  0.00    +0.000 A 
ENDBRANCH   9  11
ENDBRANCH   7   9
ENDBRANCH   1   3
BRANCH   1  18
ATOM     17  N   UNL     1      36.880   2.059  14.696  0.00  0.00    +0.000 NA
ATOM     18  C   UNL     1      38.174   2.580  14.837  0.00  0.00    +0.000 C 
ATOM     19  O   UNL     1      39.096   1.873  15.140  0.00  0.00    +0.000 OA
BRANCH  17  23
ATOM     20  C   UNL     1      36.259  -2.055  15.311  0.00  0.00    +0.000 A 
ATOM     21  C   UNL     1      36.813  -1.594  14.145  0.00  0.00    +0.000 A 
ATOM     22  C   UNL     1      37.016  -0.251  13.943  0.00  0.00    +0.000 A 
ATOM     23  C   UNL     1      36.667   0.678  14.915  0.00  0.00    +0.000 A 
ATOM     24  C   UNL     1      36.114   0.188  16.073  0.00  0.00    +0.000 A 
ATOM     25  C   UNL     1      35.720   1.132  17.144  0.00  0.00    +0.000 C 
ATOM     26  C   UNL     1      35.915  -1.138  16.268  0.00  0.00    +0.000 A 
BRANCH  20  27
ATOM     27  N   UNL     1      36.031  -3.428  15.562  0.00  0.00    +0.000 N 
BRANCH  27  29
ATOM     28  C   UNL     1      33.786  -4.170  14.831  0.00  0.00    +0.000 C 
ATOM     29  C   UNL     1      35.276  -4.239  14.632  0.00  0.00    +0.000 C 
ENDBRANCH  27  29
BRANCH  27  30
ATOM     30  C   UNL     1      36.561  -4.055  16.776  0.00  0.00    +0.000 C 
ATOM     31  C   UNL     1      38.021  -4.331  16.648  0.00  0.00    +0.000 C 
ENDBRANCH  27  30
ENDBRANCH  20  27
ENDBRANCH  17  23
ENDBRANCH   1  18
TORSDOF 8
ENDMDL
MODEL 6
REMARK VINA RESULT:      -7.3      1.189      2.173
REMARK  Name = 
REMARK  8 active torsions:
REMARK  status: ('A' for Active; 'I' for Inactive)
REMARK    1  A    between atoms: C_2  and  N_3
REMARK    2  A    between atoms: N_3  and  C_4
REMARK    3  A    between atoms: N_3  and  C_6
REMARK    4  A    between atoms: C_9  and  N_10
REMARK    5  A    between atoms: C_11  and  C_13
REMARK    6  A    between atoms: C_13  and  C_15
REMARK    7  A    between atoms: C_19  and  C_20
REMARK    8  A    between atoms: C_20  and  C_22
REMARK                            x       y       z     vdW  Elec       q    Type
REMARK                         _______ _______ _______ _____ _____    ______ ____
ROOT
ATOM      1  C   UNL     1      37.674   4.082  13.479  0.00  0.00    +0.000 C 
ATOM      2  C   UNL     1      38.954   3.023  13.516  0.00  0.00    +0.000 C 
ENDROOT
BRANCH   1   3
ATOM      3  C   UNL     1      36.719   3.088  14.321  0.00  0.00    +0.000 A 
ATOM      4  C   UNL     1      35.508   3.427  14.693  0.00  0.00    +0.000 A 
ATOM      5  C   UNL     1      34.725   2.555  15.414  0.00  0.00    +0.000 A 
ATOM      6  C   UNL     1      35.239   1.317  15.736  0.00  0.00    +0.000 A 
ATOM      7  C   UNL     1      36.520   0.975  15.332  0.00  0.00    +0.000 A 
ATOM      8  C   UNL     1      37.284   1.870  14.612  0.00  0.00    +0.000 A 
BRANCH   7   9
ATOM      9  C   UNL     1      37.061  -0.351  15.684  0.00  0.00    +0.000 C 
ATOM     10  O   UNL     1      38.214  -0.406  16.173  0.00  0.00    +0.000 OA
BRANCH   9  11
ATOM     11  C   UNL     1      36.337  -1.593  15.498  0.00  0.00    +0.000 A 
ATOM     12  C   UNL     1      36.760  -2.463  14.520  0.00  0.00    +0.000 A 
ATOM     13  C   UNL     1      36.121  -3.632  14.307  0.00  0.00    +0.000 A 
ATOM     14  C   UNL     1      35.027  -4.005  15.051  0.00  0.00    +0.000 A 
ATOM     15  C   UNL     1      34.595  -3.129  16.040  0.00  0.00    +0.000 A 
ATOM     16  C   UNL     1      35.248  -1.942  16.253  0.00  0.00    +0.000 A 
ENDBRANCH   9  11
ENDBRANCH   7   9
ENDBRANCH   1   3
BRANCH   1  18
ATOM     17  N   UNL     1      39.211   4.486  15.448  0.00  0.00    +0.000 NA
ATOM     18  C   UNL     1      38.177   5.016  14.664  0.00  0.00    +0.000 C 
ATOM     19  O   UNL     1      37.719   6.103  14.894  0.00  0.00    +0.000 OA
BRANCH  17  23
ATOM     20  C   UNL     1      40.749   6.774  18.625  0.00  0.00    +0.000 A 
ATOM     21  C   UNL     1      41.284   6.869  17.366  0.00  0.00    +0.000 A 
ATOM     22  C   UNL     1      40.782   6.122  16.329  0.00  0.00    +0.000 A 
ATOM     23  C   UNL     1      39.718   5.251  16.524  0.00  0.00    +0.000 A 
ATOM     24  C   UNL     1      39.202   5.177  17.795  0.00  0.00    +0.000 A 
ATOM     25  C   UNL     1      38.067   4.263  18.064  0.00  0.00    +0.000 C 
ATOM     26  C   UNL     1      39.700   5.914  18.816  0.00  0.00    +0.000 A 
BRANCH  20  27
ATOM     27  N   UNL     1      41.232   7.522  19.723  0.00  0.00    +0.000 N 
BRANCH  27  29
ATOM     28  C   UNL     1      42.793   6.132  21.049  0.00  0.00    +0.000 C 
ATOM     29  C   UNL     1      42.589   7.355  20.197  0.00  0.00    +0.000 C 
ENDBRANCH  27  29
BRANCH  27  30
ATOM     30  C   UNL     1      40.362   8.485  20.403  0.00  0.00    +0.000 C 
ATOM     31  C   UNL     1      40.046   9.644  19.519  0.00  0.00    +0.000 C 
ENDBRANCH  27  30
ENDBRANCH  20  27
ENDBRANCH  17  23
ENDBRANCH   1  18
TORSDOF 8
ENDMDL
MODEL 7
REMARK VINA RESULT:      -7.3      2.590      3.434
REMARK  Name = 
REMARK  8 active torsions:
REMARK  status: ('A' for Active; 'I' for Inactive)
REMARK    1  A    between atoms: C_2  and  N_3
REMARK    2  A    between atoms: N_3  and  C_4
REMARK    3  A    between atoms: N_3  and  C_6
REMARK    4  A    between atoms: C_9  and  N_10
REMARK    5  A    between atoms: C_11  and  C_13
REMARK    6  A    between atoms: C_13  and  C_15
REMARK    7  A    between atoms: C_19  and  C_20
REMARK    8  A    between atoms: C_20  and  C_22
REMARK                            x       y       z     vdW  Elec       q    Type
REMARK                         _______ _______ _______ _____ _____    ______ ____
ROOT
ATOM      1  C   UNL     1      36.799   1.563  14.717  0.00  0.00    +0.000 C 
ATOM      2  C   UNL     1      37.890   1.028  13.585  0.00  0.00    +0.000 C 
ENDROOT
BRANCH   1   3
ATOM      3  C   UNL     1      37.069   0.306  15.694  0.00  0.00    +0.000 A 
ATOM      4  C   UNL     1      36.362   0.096  16.779  0.00  0.00    +0.000 A 
ATOM      5  C   UNL     1      36.624  -0.984  17.590  0.00  0.00    +0.000 A 
ATOM      6  C   UNL     1      37.644  -1.842  17.239  0.00  0.00    +0.000 A 
ATOM      7  C   UNL     1      38.380  -1.605  16.089  0.00  0.00    +0.000 A 
ATOM      8  C   UNL     1      38.096  -0.513  15.294  0.00  0.00    +0.000 A 
BRANCH   7   9
ATOM      9  C   UNL     1      39.471  -2.527  15.724  0.00  0.00    +0.000 C 
ATOM     10  O   UNL     1      39.741  -3.462  16.513  0.00  0.00    +0.000 OA
BRANCH   9  11
ATOM     11  C   UNL     1      40.248  -2.416  14.504  0.00  0.00    +0.000 A 
ATOM     12  C   UNL     1      41.530  -1.923  14.583  0.00  0.00    +0.000 A 
ATOM     13  C   UNL     1      42.295  -1.800  13.478  0.00  0.00    +0.000 A 
ATOM     14  C   UNL     1      41.833  -2.157  12.234  0.00  0.00    +0.000 A 
ATOM     15  C   UNL     1      40.537  -2.655  12.150  0.00  0.00    +0.000 A 
ATOM     16  C   UNL     1      39.765  -2.778  13.275  0.00  0.00    +0.000 A 
ENDBRANCH   9  11
ENDBRANCH   7   9
ENDBRANCH   1   3
BRANCH   1  18
ATOM     17  N   UNL     1      37.116   3.598  16.187  0.00  0.00    +0.000 NA
ATOM     18  C   UNL     1      37.759   2.630  15.404  0.00  0.00    +0.000 C 
ATOM     19  O   UNL     1      38.954   2.629  15.277  0.00  0.00    +0.000 OA
BRANCH  17  23
ATOM     20  C   UNL     1      39.433   6.511  18.146  0.00  0.00    +0.000 A 
ATOM     21  C   UNL     1      39.213   5.286  18.719  0.00  0.00    +0.000 A 
ATOM     22  C   UNL     1      38.456   4.334  18.080  0.00  0.00    +0.000 A 
ATOM     23  C   UNL     1      37.894   4.586  16.835  0.00  0.00    +0.000 A 
ATOM     24  C   UNL     1      38.131   5.822  16.285  0.00  0.00    +0.000 A 
ATOM     25  C   UNL     1      37.556   6.148  14.960  0.00  0.00    +0.000 C 
ATOM     26  C   UNL     1      38.877   6.758  16.919  0.00  0.00    +0.000 A 
BRANCH  20  27
ATOM     27  N   UNL     1      40.204   7.521  18.766  0.00  0.00    +0.000 N 
BRANCH  27  29
ATOM     28  C   UNL     1      42.467   7.079  17.864  0.00  0.00    +0.000 C 
ATOM     29  C   UNL     1      41.367   8.077  18.109  0.00  0.00    +0.000 C 
ENDBRANCH  27  29
BRANCH  27  30
ATOM     30  C   UNL     1      39.835   8.026  20.091  0.00  0.00    +0.000 C 
ATOM     31  C   UNL     1      38.395   8.410  20.141  0.00  0.00    +0.000 C 
ENDBRANCH  27  30
ENDBRANCH  20  27
ENDBRANCH  17  23
ENDBRANCH   1  18
TORSDOF 8
ENDMDL
MODEL 8
REMARK VINA RESULT:      -7.3      2.122      3.190
REMARK  Name = 
REMARK  8 active torsions:
REMARK  status: ('A' for Active; 'I' for Inactive)
REMARK    1  A    between atoms: C_2  and  N_3
REMARK    2  A    between atoms: N_3  and  C_4
REMARK    3  A    between atoms: N_3  and  C_6
REMARK    4  A    between atoms: C_9  and  N_10
REMARK    5  A    between atoms: C_11  and  C_13
REMARK    6  A    between atoms: C_13  and  C_15
REMARK    7  A    between atoms: C_19  and  C_20
REMARK    8  A    between atoms: C_20  and  C_22
REMARK                            x       y       z     vdW  Elec       q    Type
REMARK                         _______ _______ _______ _____ _____    ______ ____
ROOT
ATOM      1  C   UNL     1      37.083   4.157  16.216  0.00  0.00    +0.000 C 
ATOM      2  C   UNL     1      37.523   5.229  15.027  0.00  0.00    +0.000 C 
ENDROOT
BRANCH   1   3
ATOM      3  C   UNL     1      37.844   2.923  15.502  0.00  0.00    +0.000 A 
ATOM      4  C   UNL     1      38.912   3.092  14.760  0.00  0.00    +0.000 A 
ATOM      5  C   UNL     1      39.530   2.017  14.164  0.00  0.00    +0.000 A 
ATOM      6  C   UNL     1      39.005   0.758  14.364  0.00  0.00    +0.000 A 
ATOM      7  C   UNL     1      37.876   0.599  15.153  0.00  0.00    +0.000 A 
ATOM      8  C   UNL     1      37.275   1.695  15.737  0.00  0.00    +0.000 A 
BRANCH   7   9
ATOM      9  C   UNL     1      37.320  -0.751  15.358  0.00  0.00    +0.000 C 
ATOM     10  O   UNL     1      36.394  -1.129  14.603  0.00  0.00    +0.000 OA
BRANCH   9  11
ATOM     11  C   UNL     1      37.785  -1.668  16.381  0.00  0.00    +0.000 A 
ATOM     12  C   UNL     1      37.434  -1.428  17.690  0.00  0.00    +0.000 A 
ATOM     13  C   UNL     1      37.840  -2.250  18.679  0.00  0.00    +0.000 A 
ATOM     14  C   UNL     1      38.616  -3.357  18.428  0.00  0.00    +0.000 A 
ATOM     15  C   UNL     1      38.973  -3.604  17.107  0.00  0.00    +0.000 A 
ATOM     16  C   UNL     1      38.558  -2.765  16.106  0.00  0.00    +0.000 A 
ENDBRANCH   9  11
ENDBRANCH   7   9
ENDBRANCH   1   3
BRANCH   1  18
ATOM     17  N   UNL     1      38.858   5.787  16.990  0.00  0.00    +0.000 NA
ATOM     18  C   UNL     1      38.206   4.576  17.263  0.00  0.00    +0.000 C 
ATOM     19  O   UNL     1      38.495   3.920  18.226  0.00  0.00    +0.000 OA
BRANCH  17  23
ATOM     20  C   UNL     1      41.842   7.126  19.634  0.00  0.00    +0.000 A 
ATOM     21  C   UNL     1      40.555   6.933  20.066  0.00  0.00    +0.000 A 
ATOM     22  C   UNL     1      39.580   6.496  19.202  0.00  0.00    +0.000 A 
ATOM     23  C   UNL     1      39.870   6.236  17.869  0.00  0.00    +0.000 A 
ATOM     24  C   UNL     1      41.168   6.437  17.466  0.00  0.00    +0.000 A 
ATOM     25  C   UNL     1      41.536   6.177  16.055  0.00  0.00    +0.000 C 
ATOM     26  C   UNL     1      42.126   6.869  18.320  0.00  0.00    +0.000 A 
BRANCH  20  27
ATOM     27  N   UNL     1      42.877   7.574  20.486  0.00  0.00    +0.000 N 
BRANCH  27  29
ATOM     28  C   UNL     1      43.687   5.603  21.746  0.00  0.00    +0.000 C 
ATOM     29  C   UNL     1      44.007   6.724  20.795  0.00  0.00    +0.000 C 
ENDBRANCH  27  29
BRANCH  27  30
ATOM     30  C   UNL     1      42.825   8.916  21.072  0.00  0.00    +0.000 C 
ATOM     31  C   UNL     1      44.170   9.348  21.552  0.00  0.00    +0.000 C 
ENDBRANCH  27  30
ENDBRANCH  20  27
ENDBRANCH  17  23
ENDBRANCH   1  18
TORSDOF 8
ENDMDL
MODEL 9
REMARK VINA RESULT:      -7.0      2.111      3.555
REMARK  Name = 
REMARK  8 active torsions:
REMARK  status: ('A' for Active; 'I' for Inactive)
REMARK    1  A    between atoms: C_2  and  N_3
REMARK    2  A    between atoms: N_3  and  C_4
REMARK    3  A    between atoms: N_3  and  C_6
REMARK    4  A    between atoms: C_9  and  N_10
REMARK    5  A    between atoms: C_11  and  C_13
REMARK    6  A    between atoms: C_13  and  C_15
REMARK    7  A    between atoms: C_19  and  C_20
REMARK    8  A    between atoms: C_20  and  C_22
REMARK                            x       y       z     vdW  Elec       q    Type
REMARK                         _______ _______ _______ _____ _____    ______ ____
ROOT
ATOM      1  C   UNL     1      37.846   5.501  16.283  0.00  0.00    +0.000 C 
ATOM      2  C   UNL     1      38.846   5.948  15.035  0.00  0.00    +0.000 C 
ENDROOT
BRANCH   1   3
ATOM      3  C   UNL     1      37.843   3.949  15.835  0.00  0.00    +0.000 A 
ATOM      4  C   UNL     1      38.750   3.448  15.031  0.00  0.00    +0.000 A 
ATOM      5  C   UNL     1      38.712   2.121  14.669  0.00  0.00    +0.000 A 
ATOM      6  C   UNL     1      37.702   1.328  15.169  0.00  0.00    +0.000 A 
ATOM      7  C   UNL     1      36.752   1.874  16.019  0.00  0.00    +0.000 A 
ATOM      8  C   UNL     1      36.814   3.209  16.364  0.00  0.00    +0.000 A 
BRANCH   7   9
ATOM      9  C   UNL     1      35.674   1.018  16.546  0.00  0.00    +0.000 C 
ATOM     10  O   UNL     1      34.559   1.545  16.771  0.00  0.00    +0.000 OA
BRANCH   9  11
ATOM     11  C   UNL     1      35.828  -0.398  16.818  0.00  0.00    +0.000 A 
ATOM     12  C   UNL     1      36.492  -0.781  17.961  0.00  0.00    +0.000 A 
ATOM     13  C   UNL     1      36.662  -2.086  18.260  0.00  0.00    +0.000 A 
ATOM     14  C   UNL     1      36.184  -3.084  17.444  0.00  0.00    +0.000 A 
ATOM     15  C   UNL     1      35.512  -2.701  16.288  0.00  0.00    +0.000 A 
ATOM     16  C   UNL     1      35.342  -1.375  15.989  0.00  0.00    +0.000 A 
ENDBRANCH   9  11
ENDBRANCH   7   9
ENDBRANCH   1   3
BRANCH   1  18
ATOM     17  N   UNL     1      39.904   6.486  17.377  0.00  0.00    +0.000 NA
ATOM     18  C   UNL     1      38.971   5.440  17.405  0.00  0.00    +0.000 C 
ATOM     19  O   UNL     1      39.042   4.570  18.230  0.00  0.00    +0.000 OA
BRANCH  17  23
ATOM     20  C   UNL     1      42.957   6.559  20.268  0.00  0.00    +0.000 A 
ATOM     21  C   UNL     1      41.640   6.474  20.639  0.00  0.00    +0.000 A 
ATOM     22  C   UNL     1      40.643   6.451  19.695  0.00  0.00    +0.000 A 
ATOM     23  C   UNL     1      40.940   6.511  18.339  0.00  0.00    +0.000 A 
ATOM     24  C   UNL     1      42.268   6.594  17.998  0.00  0.00    +0.000 A 
ATOM     25  C   UNL     1      42.645   6.663  16.567  0.00  0.00    +0.000 C 
ATOM     26  C   UNL     1      43.249   6.618  18.931  0.00  0.00    +0.000 A 
BRANCH  20  27
ATOM     27  N   UNL     1      44.017   6.587  21.203  0.00  0.00    +0.000 N 
BRANCH  27  29
ATOM     28  C   UNL     1      43.942   8.989  21.795  0.00  0.00    +0.000 C 
ATOM     29  C   UNL     1      44.043   7.565  22.269  0.00  0.00    +0.000 C 
ENDBRANCH  27  29
BRANCH  27  30
ATOM     30  C   UNL     1      45.113   5.619  21.109  0.00  0.00    +0.000 C 
ATOM     31  C   UNL     1      44.916   4.486  22.058  0.00  0.00    +0.000 C 
ENDBRANCH  27  30
ENDBRANCH  20  27
ENDBRANCH  17  23
ENDBRANCH   1  18
TORSDOF 8
ENDMDL
MODEL 10
REMARK VINA RESULT:      -7.0      4.138      7.846
REMARK  Name = 
REMARK  8 active torsions:
REMARK  status: ('A' for Active; 'I' for Inactive)
REMARK    1  A    between atoms: C_2  and  N_3
REMARK    2  A    between atoms: N_3  and  C_4
REMARK    3  A    between atoms: N_3  and  C_6
REMARK    4  A    between atoms: C_9  and  N_10
REMARK    5  A    between atoms: C_11  and  C_13
REMARK    6  A    between atoms: C_13  and  C_15
REMARK    7  A    between atoms: C_19  and  C_20
REMARK    8  A    between atoms: C_20  and  C_22
REMARK                            x       y       z     vdW  Elec       q    Type
REMARK                         _______ _______ _______ _____ _____    ______ ____
ROOT
ATOM      1  C   UNL     1      36.780  -0.807  14.280  0.00  0.00    +0.000 C 
ATOM      2  C   UNL     1      36.271  -1.926  15.397  0.00  0.00    +0.000 C 
ENDROOT
BRANCH   1   3
ATOM      3  C   UNL     1      36.323   0.442  15.196  0.00  0.00    +0.000 A 
ATOM      4  C   UNL     1      35.436   0.321  16.154  0.00  0.00    +0.000 A 
ATOM      5  C   UNL     1      35.067   1.409  16.912  0.00  0.00    +0.000 A 
ATOM      6  C   UNL     1      35.650   2.629  16.643  0.00  0.00    +0.000 A 
ATOM      7  C   UNL     1      36.587   2.737  15.627  0.00  0.00    +0.000 A 
ATOM      8  C   UNL     1      36.936   1.629  14.883  0.00  0.00    +0.000 A 
BRANCH   7   9
ATOM      9  C   UNL     1      37.202   4.047  15.346  0.00  0.00    +0.000 C 
ATOM     10  O   UNL     1      36.811   4.679  14.337  0.00  0.00    +0.000 OA
BRANCH   9  11
ATOM     11  C   UNL     1      38.233   4.648  16.171  0.00  0.00    +0.000 A 
ATOM     12  C   UNL     1      38.109   4.573  17.539  0.00  0.00    +0.000 A 
ATOM     13  C   UNL     1      39.041   5.116  18.350  0.00  0.00    +0.000 A 
ATOM     14  C   UNL     1      40.147   5.763  17.852  0.00  0.00    +0.000 A 
ATOM     15  C   UNL     1      40.276   5.841  16.470  0.00  0.00    +0.000 A 
ATOM     16  C   UNL     1      39.327   5.288  15.650  0.00  0.00    +0.000 A 
ENDBRANCH   9  11
ENDBRANCH   7   9
ENDBRANCH   1   3
BRANCH   1  18
ATOM     17  N   UNL     1      39.211  -0.911  13.583  0.00  0.00    +0.000 NA
ATOM     18  C   UNL     1      38.323  -0.854  14.666  0.00  0.00    +0.000 C 
ATOM     19  O   UNL     1      38.726  -0.843  15.798  0.00  0.00    +0.000 OA
BRANCH  17  23
ATOM     20  C   UNL     1      43.344  -1.081  14.343  0.00  0.00    +0.000 A 
ATOM     21  C   UNL     1      42.567  -2.208  14.423  0.00  0.00    +0.000 A 
ATOM     22  C   UNL     1      41.218  -2.153  14.175  0.00  0.00    +0.000 A 
ATOM     23  C   UNL     1      40.602  -0.955  13.835  0.00  0.00    +0.000 A 
ATOM     24  C   UNL     1      41.405   0.157  13.762  0.00  0.00    +0.000 A 
ATOM     25  C   UNL     1      40.803   1.463  13.405  0.00  0.00    +0.000 C 
ATOM     26  C   UNL     1      42.735   0.099  14.008  0.00  0.00    +0.000 A 
BRANCH  20  27
ATOM     27  N   UNL     1      44.736  -1.089  14.590  0.00  0.00    +0.000 N 
BRANCH  27  29
ATOM     28  C   UNL     1      45.841  -2.197  16.508  0.00  0.00    +0.000 C 
ATOM     29  C   UNL     1      45.398  -2.282  15.073  0.00  0.00    +0.000 C 
ENDBRANCH  27  29
BRANCH  27  30
ATOM     30  C   UNL     1      45.536   0.116  14.358  0.00  0.00    +0.000 C 
ATOM     31  C   UNL     1      46.531  -0.098  13.268  0.00  0.00    +0.000 C 
ENDBRANCH  27  30
ENDBRANCH  20  27
ENDBRANCH  17  23
ENDBRANCH   1  18
TORSDOF 8
ENDMDL
