MODEL 1
REMARK VINA RESULT:      -6.9      0.000      0.000
REMARK  Name = 
REMARK  4 active torsions:
REMARK  status: ('A' for Active; 'I' for Inactive)
REMARK    1  A    between atoms: O_2  and  C_3
REMARK    2  A    between atoms: C_3  and  C_5
REMARK    3  A    between atoms: N_8  and  C_9
REMARK    4  A    between atoms: C_9  and  C_10
REMARK                            x       y       z     vdW  Elec       q    Type
REMARK                         _______ _______ _______ _____ _____    ______ ____
ROOT
ATOM      1  C   UNL     1      14.242  11.967  36.170  0.00  0.00    +0.000 A 
ATOM      2  C   UNL     1      15.049  11.319  37.089  0.00  0.00    +0.000 A 
ATOM      3  C   UNL     1      14.795  11.125  38.545  0.00  0.00    +0.000 C 
ATOM      4  N   UNL     1      16.155  10.861  36.463  0.00  0.00    +0.000 N 
ATOM      5  C   UNL     1      16.039  11.221  35.163  0.00  0.00    +0.000 A 
ATOM      6  C   UNL     1      16.868  11.021  34.075  0.00  0.00    +0.000 A 
ATOM      7  C   UNL     1      16.556  11.478  32.815  0.00  0.00    +0.000 A 
ATOM      8  C   UNL     1      15.384  12.167  32.584  0.00  0.00    +0.000 A 
ATOM      9  O   UNL     1      15.047  12.641  31.312  0.00  0.00    +0.000 OA
ATOM     10  C   UNL     1      14.559  12.368  33.670  0.00  0.00    +0.000 A 
ATOM     11  C   UNL     1      14.863  11.912  34.941  0.00  0.00    +0.000 A 
ENDROOT
BRANCH   1  12
ATOM     12  C   UNL     1      12.959  12.611  36.403  0.00  0.00    +0.000 C 
ATOM     13  O   UNL     1      12.743  13.730  35.880  0.00  0.00    +0.000 OA
BRANCH  12  15
ATOM     14  C   UNL     1      11.446  10.750  36.970  0.00  0.00    +0.000 C 
ATOM     15  O   UNL     1      11.952  12.059  37.176  0.00  0.00    +0.000 OA
ENDBRANCH  12  15
ENDBRANCH   1  12
BRANCH   4  16
ATOM     16  C   UNL     1      17.275  10.121  37.040  0.00  0.00    +0.000 C 
BRANCH  16  17
ATOM     17  C   UNL     1      18.286  11.033  37.624  0.00  0.00    +0.000 A 
ATOM     18  C   UNL     1      18.321  12.383  37.369  0.00  0.00    +0.000 A 
ATOM     19  C   UNL     1      19.393  12.856  38.093  0.00  0.00    +0.000 A 
ATOM     20  C   UNL     1      19.933  11.785  38.734  0.00  0.00    +0.000 A 
ATOM     21  O   UNL     1      19.252  10.716  38.435  0.00  0.00    +0.000 OA
ENDBRANCH  16  17
ENDBRANCH   4  16
TORSDOF 4
ENDMDL
MODEL 2
REMARK VINA RESULT:      -6.6     21.175     22.831
REMARK  Name = 
REMARK  4 active torsions:
REMARK  status: ('A' for Active; 'I' for Inactive)
REMARK    1  A    between atoms: O_2  and  C_3
REMARK    2  A    between atoms: C_3  and  C_5
REMARK    3  A    between atoms: N_8  and  C_9
REMARK    4  A    between atoms: C_9  and  C_10
REMARK                            x       y       z     vdW  Elec       q    Type
REMARK                         _______ _______ _______ _____ _____    ______ ____
ROOT
ATOM      1  C   UNL     1      21.134  -8.012  25.578  0.00  0.00    +0.000 A 
ATOM      2  C   UNL     1      20.926  -9.294  26.054  0.00  0.00    +0.000 A 
ATOM      3  C   UNL     1      21.770 -10.500  25.819  0.00  0.00    +0.000 C 
ATOM      4  N   UNL     1      19.801  -9.312  26.801  0.00  0.00    +0.000 N 
ATOM      5  C   UNL     1      19.309  -8.051  26.789  0.00  0.00    +0.000 A 
ATOM      6  C   UNL     1      18.190  -7.493  27.378  0.00  0.00    +0.000 A 
ATOM      7  C   UNL     1      17.866  -6.163  27.237  0.00  0.00    +0.000 A 
ATOM      8  C   UNL     1      18.660  -5.318  26.490  0.00  0.00    +0.000 A 
ATOM      9  O   UNL     1      18.351  -3.963  26.334  0.00  0.00    +0.000 OA
ATOM     10  C   UNL     1      19.776  -5.876  25.903  0.00  0.00    +0.000 A 
ATOM     11  C   UNL     1      20.111  -7.212  26.038  0.00  0.00    +0.000 A 
ENDROOT
BRANCH   1  12
ATOM     12  C   UNL     1      22.220  -7.535  24.736  0.00  0.00    +0.000 C 
ATOM     13  O   UNL     1      23.080  -6.774  25.238  0.00  0.00    +0.000 OA
BRANCH  12  15
ATOM     14  C   UNL     1      23.581  -7.725  22.691  0.00  0.00    +0.000 C 
ATOM     15  O   UNL     1      22.363  -7.874  23.401  0.00  0.00    +0.000 OA
ENDBRANCH  12  15
ENDBRANCH   1  12
BRANCH   4  16
ATOM     16  C   UNL     1      19.200 -10.448  27.498  0.00  0.00    +0.000 C 
BRANCH  16  17
ATOM     17  C   UNL     1      19.080 -10.191  28.952  0.00  0.00    +0.000 A 
ATOM     18  C   UNL     1      20.161  -9.957  29.768  0.00  0.00    +0.000 A 
ATOM     19  C   UNL     1      19.627  -9.768  31.024  0.00  0.00    +0.000 A 
ATOM     20  C   UNL     1      18.279  -9.896  30.896  0.00  0.00    +0.000 A 
ATOM     21  O   UNL     1      17.986 -10.146  29.653  0.00  0.00    +0.000 OA
ENDBRANCH  16  17
ENDBRANCH   4  16
TORSDOF 4
ENDMDL
MODEL 3
REMARK VINA RESULT:      -6.5     19.513     21.723
REMARK  Name = 
REMARK  4 active torsions:
REMARK  status: ('A' for Active; 'I' for Inactive)
REMARK    1  A    between atoms: O_2  and  C_3
REMARK    2  A    between atoms: C_3  and  C_5
REMARK    3  A    between atoms: N_8  and  C_9
REMARK    4  A    between atoms: C_9  and  C_10
REMARK                            x       y       z     vdW  Elec       q    Type
REMARK                         _______ _______ _______ _____ _____    ______ ____
ROOT
ATOM      1  C   UNL     1      28.769  24.135  23.035  0.00  0.00    +0.000 A 
ATOM      2  C   UNL     1      27.568  23.654  23.527  0.00  0.00    +0.000 A 
ATOM      3  C   UNL     1      26.238  23.669  22.854  0.00  0.00    +0.000 C 
ATOM      4  N   UNL     1      27.768  23.142  24.761  0.00  0.00    +0.000 N 
ATOM      5  C   UNL     1      29.084  23.303  25.037  0.00  0.00    +0.000 A 
ATOM      6  C   UNL     1      29.839  22.969  26.145  0.00  0.00    +0.000 A 
ATOM      7  C   UNL     1      31.189  23.225  26.223  0.00  0.00    +0.000 A 
ATOM      8  C   UNL     1      31.853  23.837  25.181  0.00  0.00    +0.000 A 
ATOM      9  O   UNL     1      33.224  24.108  25.239  0.00  0.00    +0.000 OA
ATOM     10  C   UNL     1      31.098  24.171  24.076  0.00  0.00    +0.000 A 
ATOM     11  C   UNL     1      29.741  23.917  23.988  0.00  0.00    +0.000 A 
ENDROOT
BRANCH   1  12
ATOM     12  C   UNL     1      29.020  24.766  21.749  0.00  0.00    +0.000 C 
ATOM     13  O   UNL     1      29.707  24.151  20.901  0.00  0.00    +0.000 OA
BRANCH  12  15
ATOM     14  C   UNL     1      29.339  27.002  20.763  0.00  0.00    +0.000 C 
ATOM     15  O   UNL     1      28.542  26.019  21.402  0.00  0.00    +0.000 OA
ENDBRANCH  12  15
ENDBRANCH   1  12
BRANCH   4  16
ATOM     16  C   UNL     1      26.785  22.529  25.652  0.00  0.00    +0.000 C 
BRANCH  16  17
ATOM     17  C   UNL     1      26.149  23.535  26.534  0.00  0.00    +0.000 A 
ATOM     18  C   UNL     1      26.393  23.617  27.884  0.00  0.00    +0.000 A 
ATOM     19  C   UNL     1      25.619  24.668  28.325  0.00  0.00    +0.000 A 
ATOM     20  C   UNL     1      24.963  25.151  27.235  0.00  0.00    +0.000 A 
ATOM     21  O   UNL     1      25.300  24.458  26.186  0.00  0.00    +0.000 OA
ENDBRANCH  16  17
ENDBRANCH   4  16
TORSDOF 4
ENDMDL
MODEL 4
REMARK VINA RESULT:      -6.2     18.450     20.331
REMARK  Name = 
REMARK  4 active torsions:
REMARK  status: ('A' for Active; 'I' for Inactive)
REMARK    1  A    between atoms: O_2  and  C_3
REMARK    2  A    between atoms: C_3  and  C_5
REMARK    3  A    between atoms: N_8  and  C_9
REMARK    4  A    between atoms: C_9  and  C_10
REMARK                            x       y       z     vdW  Elec       q    Type
REMARK                         _______ _______ _______ _____ _____    ______ ____
ROOT
ATOM      1  C   UNL     1      27.026  23.589  25.256  0.00  0.00    +0.000 A 
ATOM      2  C   UNL     1      28.211  23.163  24.682  0.00  0.00    +0.000 A 
ATOM      3  C   UNL     1      28.582  23.183  23.238  0.00  0.00    +0.000 C 
ATOM      4  N   UNL     1      29.031  22.703  25.651  0.00  0.00    +0.000 N 
ATOM      5  C   UNL     1      28.363  22.840  26.821  0.00  0.00    +0.000 A 
ATOM      6  C   UNL     1      28.713  22.535  28.122  0.00  0.00    +0.000 A 
ATOM      7  C   UNL     1      27.869  22.759  29.186  0.00  0.00    +0.000 A 
ATOM      8  C   UNL     1      26.618  23.305  28.992  0.00  0.00    +0.000 A 
ATOM      9  O   UNL     1      25.744  23.541  30.058  0.00  0.00    +0.000 OA
ATOM     10  C   UNL     1      26.269  23.608  27.692  0.00  0.00    +0.000 A 
ATOM     11  C   UNL     1      27.111  23.388  26.616  0.00  0.00    +0.000 A 
ENDROOT
BRANCH   1  12
ATOM     12  C   UNL     1      25.863  24.156  24.590  0.00  0.00    +0.000 C 
ATOM     13  O   UNL     1      25.119  23.395  23.927  0.00  0.00    +0.000 OA
BRANCH  12  15
ATOM     14  C   UNL     1      24.446  25.993  25.420  0.00  0.00    +0.000 C 
ATOM     15  O   UNL     1      25.525  25.497  24.645  0.00  0.00    +0.000 OA
ENDBRANCH  12  15
ENDBRANCH   1  12
BRANCH   4  16
ATOM     16  C   UNL     1      30.379  22.157  25.506  0.00  0.00    +0.000 C 
BRANCH  16  17
ATOM     17  C   UNL     1      31.410  23.214  25.631  0.00  0.00    +0.000 A 
ATOM     18  C   UNL     1      32.069  23.755  24.554  0.00  0.00    +0.000 A 
ATOM     19  C   UNL     1      32.928  24.688  25.092  0.00  0.00    +0.000 A 
ATOM     20  C   UNL     1      32.741  24.657  26.439  0.00  0.00    +0.000 A 
ATOM     21  O   UNL     1      31.833  23.771  26.728  0.00  0.00    +0.000 OA
ENDBRANCH  16  17
ENDBRANCH   4  16
TORSDOF 4
ENDMDL
MODEL 5
REMARK VINA RESULT:      -6.0     17.538     19.617
REMARK  Name = 
REMARK  4 active torsions:
REMARK  status: ('A' for Active; 'I' for Inactive)
REMARK    1  A    between atoms: O_2  and  C_3
REMARK    2  A    between atoms: C_3  and  C_5
REMARK    3  A    between atoms: N_8  and  C_9
REMARK    4  A    between atoms: C_9  and  C_10
REMARK                            x       y       z     vdW  Elec       q    Type
REMARK                         _______ _______ _______ _____ _____    ______ ____
ROOT
ATOM      1  C   UNL     1      30.346  22.772  28.812  0.00  0.00    +0.000 A 
ATOM      2  C   UNL     1      29.284  22.626  29.687  0.00  0.00    +0.000 A 
ATOM      3  C   UNL     1      29.334  22.571  31.176  0.00  0.00    +0.000 C 
ATOM      4  N   UNL     1      28.137  22.537  28.981  0.00  0.00    +0.000 N 
ATOM      5  C   UNL     1      28.480  22.625  27.674  0.00  0.00    +0.000 A 
ATOM      6  C   UNL     1      27.722  22.593  26.519  0.00  0.00    +0.000 A 
ATOM      7  C   UNL     1      28.280  22.703  25.266  0.00  0.00    +0.000 A 
ATOM      8  C   UNL     1      29.643  22.850  25.110  0.00  0.00    +0.000 A 
ATOM      9  O   UNL     1      30.232  22.962  23.846  0.00  0.00    +0.000 OA
ATOM     10  C   UNL     1      30.398  22.881  26.263  0.00  0.00    +0.000 A 
ATOM     11  C   UNL     1      29.847  22.772  27.528  0.00  0.00    +0.000 A 
ENDROOT
BRANCH   1  12
ATOM     12  C   UNL     1      31.758  22.906  29.133  0.00  0.00    +0.000 C 
ATOM     13  O   UNL     1      32.227  24.053  29.321  0.00  0.00    +0.000 OA
BRANCH  12  15
ATOM     14  C   UNL     1      33.879  21.915  29.902  0.00  0.00    +0.000 C 
ATOM     15  O   UNL     1      32.626  21.832  29.245  0.00  0.00    +0.000 OA
ENDBRANCH  12  15
ENDBRANCH   1  12
BRANCH   4  16
ATOM     16  C   UNL     1      26.776  22.375  29.489  0.00  0.00    +0.000 C 
BRANCH  16  17
ATOM     17  C   UNL     1      26.172  23.679  29.849  0.00  0.00    +0.000 A 
ATOM     18  C   UNL     1      25.700  24.574  28.919  0.00  0.00    +0.000 A 
ATOM     19  C   UNL     1      25.228  25.639  29.655  0.00  0.00    +0.000 A 
ATOM     20  C   UNL     1      25.439  25.331  30.963  0.00  0.00    +0.000 A 
ATOM     21  O   UNL     1      26.001  24.160  31.045  0.00  0.00    +0.000 OA
ENDBRANCH  16  17
ENDBRANCH   4  16
TORSDOF 4
ENDMDL
MODEL 6
REMARK VINA RESULT:      -5.9     18.339     20.375
REMARK  Name = 
REMARK  4 active torsions:
REMARK  status: ('A' for Active; 'I' for Inactive)
REMARK    1  A    between atoms: O_2  and  C_3
REMARK    2  A    between atoms: C_3  and  C_5
REMARK    3  A    between atoms: N_8  and  C_9
REMARK    4  A    between atoms: C_9  and  C_10
REMARK                            x       y       z     vdW  Elec       q    Type
REMARK                         _______ _______ _______ _____ _____    ______ ____
ROOT
ATOM      1  C   UNL     1      29.152  24.302  25.065  0.00  0.00    +0.000 A 
ATOM      2  C   UNL     1      29.123  24.724  26.382  0.00  0.00    +0.000 A 
ATOM      3  C   UNL     1      30.269  25.190  27.214  0.00  0.00    +0.000 C 
ATOM      4  N   UNL     1      27.854  24.658  26.841  0.00  0.00    +0.000 N 
ATOM      5  C   UNL     1      27.097  24.196  25.818  0.00  0.00    +0.000 A 
ATOM      6  C   UNL     1      25.744  23.933  25.720  0.00  0.00    +0.000 A 
ATOM      7  C   UNL     1      25.166  23.459  24.564  0.00  0.00    +0.000 A 
ATOM      8  C   UNL     1      25.927  23.223  23.438  0.00  0.00    +0.000 A 
ATOM      9  O   UNL     1      25.361  22.742  22.254  0.00  0.00    +0.000 OA
ATOM     10  C   UNL     1      27.278  23.486  23.538  0.00  0.00    +0.000 A 
ATOM     11  C   UNL     1      27.869  23.963  24.695  0.00  0.00    +0.000 A 
ENDROOT
BRANCH   1  12
ATOM     12  C   UNL     1      30.302  24.211  24.180  0.00  0.00    +0.000 C 
ATOM     13  O   UNL     1      30.333  24.936  23.157  0.00  0.00    +0.000 OA
BRANCH  12  15
ATOM     14  C   UNL     1      32.686  23.831  24.673  0.00  0.00    +0.000 C 
ATOM     15  O   UNL     1      31.375  23.364  24.399  0.00  0.00    +0.000 OA
ENDBRANCH  12  15
ENDBRANCH   1  12
BRANCH   4  16
ATOM     16  C   UNL     1      27.358  25.005  28.171  0.00  0.00    +0.000 C 
BRANCH  16  17
ATOM     17  C   UNL     1      27.352  23.830  29.073  0.00  0.00    +0.000 A 
ATOM     18  C   UNL     1      26.213  23.133  29.396  0.00  0.00    +0.000 A 
ATOM     19  C   UNL     1      26.634  22.131  30.243  0.00  0.00    +0.000 A 
ATOM     20  C   UNL     1      27.979  22.278  30.380  0.00  0.00    +0.000 A 
ATOM     21  O   UNL     1      28.376  23.296  29.672  0.00  0.00    +0.000 OA
ENDBRANCH  16  17
ENDBRANCH   4  16
TORSDOF 4
ENDMDL
MODEL 7
REMARK VINA RESULT:      -5.8     21.791     23.564
REMARK  Name = 
REMARK  4 active torsions:
REMARK  status: ('A' for Active; 'I' for Inactive)
REMARK    1  A    between atoms: O_2  and  C_3
REMARK    2  A    between atoms: C_3  and  C_5
REMARK    3  A    between atoms: N_8  and  C_9
REMARK    4  A    between atoms: C_9  and  C_10
REMARK                            x       y       z     vdW  Elec       q    Type
REMARK                         _______ _______ _______ _____ _____    ______ ____
ROOT
ATOM      1  C   UNL     1      20.960  -8.372  25.676  0.00  0.00    +0.000 A 
ATOM      2  C   UNL     1      20.701  -9.622  26.212  0.00  0.00    +0.000 A 
ATOM      3  C   UNL     1      21.478 -10.877  26.009  0.00  0.00    +0.000 C 
ATOM      4  N   UNL     1      19.596  -9.552  26.985  0.00  0.00    +0.000 N 
ATOM      5  C   UNL     1      19.167  -8.269  26.931  0.00  0.00    +0.000 A 
ATOM      6  C   UNL     1      18.092  -7.631  27.520  0.00  0.00    +0.000 A 
ATOM      7  C   UNL     1      17.832  -6.293  27.331  0.00  0.00    +0.000 A 
ATOM      8  C   UNL     1      18.647  -5.521  26.530  0.00  0.00    +0.000 A 
ATOM      9  O   UNL     1      18.401  -4.160  26.323  0.00  0.00    +0.000 OA
ATOM     10  C   UNL     1      19.719  -6.159  25.941  0.00  0.00    +0.000 A 
ATOM     11  C   UNL     1      19.990  -7.503  26.125  0.00  0.00    +0.000 A 
ENDROOT
BRANCH   1  12
ATOM     12  C   UNL     1      22.046  -7.987  24.789  0.00  0.00    +0.000 C 
ATOM     13  O   UNL     1      22.057  -8.439  23.619  0.00  0.00    +0.000 OA
BRANCH  12  15
ATOM     14  C   UNL     1      23.822  -6.373  24.232  0.00  0.00    +0.000 C 
ATOM     15  O   UNL     1      23.080  -7.145  25.161  0.00  0.00    +0.000 OA
ENDBRANCH  12  15
ENDBRANCH   1  12
BRANCH   4  16
ATOM     16  C   UNL     1      18.958 -10.625  27.744  0.00  0.00    +0.000 C 
BRANCH  16  17
ATOM     17  C   UNL     1      17.700 -11.072  27.102  0.00  0.00    +0.000 A 
ATOM     18  C   UNL     1      16.468 -10.963  27.701  0.00  0.00    +0.000 A 
ATOM     19  C   UNL     1      15.578 -11.482  26.786  0.00  0.00    +0.000 A 
ATOM     20  C   UNL     1      16.311 -11.867  25.706  0.00  0.00    +0.000 A 
ATOM     21  O   UNL     1      17.568 -11.610  25.925  0.00  0.00    +0.000 OA
ENDBRANCH  16  17
ENDBRANCH   4  16
TORSDOF 4
ENDMDL
MODEL 8
REMARK VINA RESULT:      -5.8     19.292     21.560
REMARK  Name = 
REMARK  4 active torsions:
REMARK  status: ('A' for Active; 'I' for Inactive)
REMARK    1  A    between atoms: O_2  and  C_3
REMARK    2  A    between atoms: C_3  and  C_5
REMARK    3  A    between atoms: N_8  and  C_9
REMARK    4  A    between atoms: C_9  and  C_10
REMARK                            x       y       z     vdW  Elec       q    Type
REMARK                         _______ _______ _______ _____ _____    ______ ____
ROOT
ATOM      1  C   UNL     1      29.793  23.252  26.539  0.00  0.00    +0.000 A 
ATOM      2  C   UNL     1      29.937  23.028  25.181  0.00  0.00    +0.000 A 
ATOM      3  C   UNL     1      31.197  22.753  24.433  0.00  0.00    +0.000 C 
ATOM      4  N   UNL     1      28.725  23.095  24.590  0.00  0.00    +0.000 N 
ATOM      5  C   UNL     1      27.830  23.359  25.572  0.00  0.00    +0.000 A 
ATOM      6  C   UNL     1      26.460  23.533  25.546  0.00  0.00    +0.000 A 
ATOM      7  C   UNL     1      25.728  23.799  26.680  0.00  0.00    +0.000 A 
ATOM      8  C   UNL     1      26.343  23.905  27.910  0.00  0.00    +0.000 A 
ATOM      9  O   UNL     1      25.619  24.175  29.076  0.00  0.00    +0.000 OA
ATOM     10  C   UNL     1      27.711  23.732  27.934  0.00  0.00    +0.000 A 
ATOM     11  C   UNL     1      28.457  23.464  26.799  0.00  0.00    +0.000 A 
ENDROOT
BRANCH   1  12
ATOM     12  C   UNL     1      30.831  23.271  27.557  0.00  0.00    +0.000 C 
ATOM     13  O   UNL     1      31.021  22.239  28.243  0.00  0.00    +0.000 OA
BRANCH  12  15
ATOM     14  C   UNL     1      32.979  24.467  27.394  0.00  0.00    +0.000 C 
ATOM     15  O   UNL     1      31.630  24.371  27.819  0.00  0.00    +0.000 OA
ENDBRANCH  12  15
ENDBRANCH   1  12
BRANCH   4  16
ATOM     16  C   UNL     1      28.401  22.923  23.175  0.00  0.00    +0.000 C 
BRANCH  16  17
ATOM     17  C   UNL     1      28.686  24.153  22.399  0.00  0.00    +0.000 A 
ATOM     18  C   UNL     1      28.203  25.392  22.745  0.00  0.00    +0.000 A 
ATOM     19  C   UNL     1      28.691  26.248  21.783  0.00  0.00    +0.000 A 
ATOM     20  C   UNL     1      29.428  25.490  20.926  0.00  0.00    +0.000 A 
ATOM     21  O   UNL     1      29.406  24.250  21.320  0.00  0.00    +0.000 OA
ENDBRANCH  16  17
ENDBRANCH   4  16
TORSDOF 4
ENDMDL
MODEL 9
REMARK VINA RESULT:      -5.8     29.614     32.663
REMARK  Name = 
REMARK  4 active torsions:
REMARK  status: ('A' for Active; 'I' for Inactive)
REMARK    1  A    between atoms: O_2  and  C_3
REMARK    2  A    between atoms: C_3  and  C_5
REMARK    3  A    between atoms: N_8  and  C_9
REMARK    4  A    between atoms: C_9  and  C_10
REMARK                            x       y       z     vdW  Elec       q    Type
REMARK                         _______ _______ _______ _____ _____    ______ ____
ROOT
ATOM      1  C   UNL     1      33.412  22.445   9.310  0.00  0.00    +0.000 A 
ATOM      2  C   UNL     1      32.050  22.241   9.440  0.00  0.00    +0.000 A 
ATOM      3  C   UNL     1      30.959  22.824   8.607  0.00  0.00    +0.000 C 
ATOM      4  N   UNL     1      31.824  21.401  10.473  0.00  0.00    +0.000 N 
ATOM      5  C   UNL     1      33.037  21.084  10.985  0.00  0.00    +0.000 A 
ATOM      6  C   UNL     1      33.407  20.272  12.040  0.00  0.00    +0.000 A 
ATOM      7  C   UNL     1      34.722  20.082  12.400  0.00  0.00    +0.000 A 
ATOM      8  C   UNL     1      35.740  20.706  11.710  0.00  0.00    +0.000 A 
ATOM      9  O   UNL     1      37.083  20.528  12.059  0.00  0.00    +0.000 OA
ATOM     10  C   UNL     1      35.370  21.517  10.658  0.00  0.00    +0.000 A 
ATOM     11  C   UNL     1      34.051  21.714  10.288  0.00  0.00    +0.000 A 
ENDROOT
BRANCH   1  12
ATOM     12  C   UNL     1      34.104  23.273   8.334  0.00  0.00    +0.000 C 
ATOM     13  O   UNL     1      34.499  22.743   7.269  0.00  0.00    +0.000 OA
BRANCH  12  15
ATOM     14  C   UNL     1      35.374  25.115   9.365  0.00  0.00    +0.000 C 
ATOM     15  O   UNL     1      34.355  24.623   8.512  0.00  0.00    +0.000 OA
ENDBRANCH  12  15
ENDBRANCH   1  12
BRANCH   4  16
ATOM     16  C   UNL     1      30.541  20.910  10.971  0.00  0.00    +0.000 C 
BRANCH  16  17
ATOM     17  C   UNL     1      29.889  21.898  11.862  0.00  0.00    +0.000 A 
ATOM     18  C   UNL     1      28.758  22.596  11.513  0.00  0.00    +0.000 A 
ATOM     19  C   UNL     1      28.481  23.396  12.600  0.00  0.00    +0.000 A 
ATOM     20  C   UNL     1      29.444  23.139  13.526  0.00  0.00    +0.000 A 
ATOM     21  O   UNL     1      30.265  22.244  13.058  0.00  0.00    +0.000 OA
ENDBRANCH  16  17
ENDBRANCH   4  16
TORSDOF 4
ENDMDL
MODEL 10
REMARK VINA RESULT:      -5.7     22.075     23.721
REMARK  Name = 
REMARK  4 active torsions:
REMARK  status: ('A' for Active; 'I' for Inactive)
REMARK    1  A    between atoms: O_2  and  C_3
REMARK    2  A    between atoms: C_3  and  C_5
REMARK    3  A    between atoms: N_8  and  C_9
REMARK    4  A    between atoms: C_9  and  C_10
REMARK                            x       y       z     vdW  Elec       q    Type
REMARK                         _______ _______ _______ _____ _____    ______ ____
ROOT
ATOM      1  C   UNL     1      20.313  -9.523  26.878  0.00  0.00    +0.000 A 
ATOM      2  C   UNL     1      21.502  -9.582  26.172  0.00  0.00    +0.000 A 
ATOM      3  C   UNL     1      22.433 -10.740  26.053  0.00  0.00    +0.000 C 
ATOM      4  N   UNL     1      21.721  -8.391  25.574  0.00  0.00    +0.000 N 
ATOM      5  C   UNL     1      20.676  -7.595  25.904  0.00  0.00    +0.000 A 
ATOM      6  C   UNL     1      20.377  -6.286  25.579  0.00  0.00    +0.000 A 
ATOM      7  C   UNL     1      19.241  -5.654  26.029  0.00  0.00    +0.000 A 
ATOM      8  C   UNL     1      18.339  -6.313  26.838  0.00  0.00    +0.000 A 
ATOM      9  O   UNL     1      17.178  -5.690  27.307  0.00  0.00    +0.000 OA
ATOM     10  C   UNL     1      18.639  -7.619  27.163  0.00  0.00    +0.000 A 
ATOM     11  C   UNL     1      19.779  -8.264  26.715  0.00  0.00    +0.000 A 
ENDROOT
BRANCH   1  12
ATOM     12  C   UNL     1      19.690 -10.573  27.669  0.00  0.00    +0.000 C 
ATOM     13  O   UNL     1      20.033 -10.708  28.867  0.00  0.00    +0.000 OA
BRANCH  12  15
ATOM     14  C   UNL     1      17.342 -11.176  27.230  0.00  0.00    +0.000 C 
ATOM     15  O   UNL     1      18.733 -11.442  27.174  0.00  0.00    +0.000 OA
ENDBRANCH  12  15
ENDBRANCH   1  12
BRANCH   4  16
ATOM     16  C   UNL     1      22.848  -8.000  24.730  0.00  0.00    +0.000 C 
BRANCH  16  17
ATOM     17  C   UNL     1      22.557  -8.223  23.295  0.00  0.00    +0.000 A 
ATOM     18  C   UNL     1      23.321  -7.701  22.280  0.00  0.00    +0.000 A 
ATOM     19  C   UNL     1      22.722  -8.137  21.119  0.00  0.00    +0.000 A 
ATOM     20  C   UNL     1      21.649  -8.886  21.494  0.00  0.00    +0.000 A 
ATOM     21  O   UNL     1      21.578  -8.918  22.793  0.00  0.00    +0.000 OA
ENDBRANCH  16  17
ENDBRANCH   4  16
TORSDOF 4
ENDMDL
