MODEL 1
REMARK VINA RESULT:      -8.0      0.000      0.000
REMARK  Name = 
REMARK  7 active torsions:
REMARK  status: ('A' for Active; 'I' for Inactive)
REMARK    1  A    between atoms: C_3  and  C_4
REMARK    2  A    between atoms: C_10  and  C_11
REMARK    3  A    between atoms: C_15  and  O_16
REMARK    4  A    between atoms: O_16  and  C_17
REMARK    5  A    between atoms: C_17  and  C_18
REMARK    6  A    between atoms: N_27  and  C_28
REMARK    7  A    between atoms: C_28  and  C_29
REMARK                            x       y       z     vdW  Elec       q    Type
REMARK                         _______ _______ _______ _____ _____    ______ ____
ROOT
ATOM      1  C   UNL     1      39.033   3.585  12.875  0.00  0.00    +0.000 C 
ATOM      2  C   UNL     1      38.083   2.902  13.813  0.00  0.00    +0.000 A 
ATOM      3  C   UNL     1      37.831   1.548  13.772  0.00  0.00    +0.000 A 
ATOM      4  C   UNL     1      36.904   1.291  14.789  0.00  0.00    +0.000 A 
ATOM      5  C   UNL     1      36.294   0.123  15.211  0.00  0.00    +0.000 A 
ATOM      6  C   UNL     1      35.402   0.135  16.253  0.00  0.00    +0.000 A 
ATOM      7  C   UNL     1      35.151   1.351  16.845  0.00  0.00    +0.000 A 
ATOM      8  C   UNL     1      35.738   2.531  16.452  0.00  0.00    +0.000 A 
ATOM      9  C   UNL     1      36.642   2.483  15.388  0.00  0.00    +0.000 A 
ATOM     10  N   UNL     1      37.362   3.468  14.791  0.00  0.00    +0.000 N 
ENDROOT
BRANCH   3  11
ATOM     11  C   UNL     1      38.363   0.530  12.902  0.00  0.00    +0.000 C 
ATOM     12  O   UNL     1      37.823   0.367  11.796  0.00  0.00    +0.000 OA
ATOM     13  N   UNL     1      39.451  -0.300  13.202  0.00  0.00    +0.000 N 
ATOM     14  C   UNL     1      40.054  -1.341  12.406  0.00  0.00    +0.000 C 
ATOM     15  C   UNL     1      39.866  -2.448  13.445  0.00  0.00    +0.000 C 
ATOM     16  C   UNL     1      40.545  -1.870  14.629  0.00  0.00    +0.000 C 
ATOM     17  C   UNL     1      40.273  -0.279  14.509  0.00  0.00    +0.000 C 
BRANCH  17  18
ATOM     18  C   UNL     1      41.707   0.080  13.871  0.00  0.00    +0.000 C 
ATOM     19  O   UNL     1      42.708  -0.533  14.547  0.00  0.00    +0.000 OA
ENDBRANCH  17  18
ENDBRANCH   3  11
BRANCH   6  20
ATOM     20  O   UNL     1      34.797  -1.040  16.669  0.00  0.00    +0.000 OA
BRANCH  20  21
ATOM     21  C   UNL     1      35.138  -1.674  17.889  0.00  0.00    +0.000 C 
BRANCH  21  22
ATOM     22  C   UNL     1      36.385  -2.443  17.635  0.00  0.00    +0.000 A 
ATOM     23  C   UNL     1      36.333  -3.441  16.690  0.00  0.00    +0.000 A 
ATOM     24  C   UNL     1      37.457  -4.215  16.387  0.00  0.00    +0.000 A 
ATOM     25  C   UNL     1      38.646  -3.992  17.033  0.00  0.00    +0.000 A 
ATOM     26  C   UNL     1      38.679  -2.988  17.977  0.00  0.00    +0.000 A 
ATOM     27  C   UNL     1      37.572  -2.221  18.280  0.00  0.00    +0.000 A 
ENDBRANCH  21  22
ENDBRANCH  20  21
ENDBRANCH   6  20
BRANCH  10  28
ATOM     28  C   UNL     1      37.385   4.860  15.106  0.00  0.00    +0.000 C 
BRANCH  28  29
ATOM     29  C   UNL     1      38.352   5.160  16.187  0.00  0.00    +0.000 A 
ATOM     30  C   UNL     1      39.522   5.813  15.807  0.00  0.00    +0.000 A 
ATOM     31  C   UNL     1      40.492   6.139  16.738  0.00  0.00    +0.000 A 
ATOM     32  C   UNL     1      40.313   5.823  18.057  0.00  0.00    +0.000 A 
ATOM     33  C   UNL     1      39.146   5.177  18.406  0.00  0.00    +0.000 A 
ATOM     34  C   UNL     1      38.163   4.839  17.499  0.00  0.00    +0.000 A 
ENDBRANCH  28  29
ENDBRANCH  10  28
TORSDOF 7
ENDMDL
MODEL 2
REMARK VINA RESULT:      -7.7      2.553      6.698
REMARK  Name = 
REMARK  7 active torsions:
REMARK  status: ('A' for Active; 'I' for Inactive)
REMARK    1  A    between atoms: C_3  and  C_4
REMARK    2  A    between atoms: C_10  and  C_11
REMARK    3  A    between atoms: C_15  and  O_16
REMARK    4  A    between atoms: O_16  and  C_17
REMARK    5  A    between atoms: C_17  and  C_18
REMARK    6  A    between atoms: N_27  and  C_28
REMARK    7  A    between atoms: C_28  and  C_29
REMARK                            x       y       z     vdW  Elec       q    Type
REMARK                         _______ _______ _______ _____ _____    ______ ____
ROOT
ATOM      1  C   UNL     1      37.458  -2.949  13.826  0.00  0.00    +0.000 C 
ATOM      2  C   UNL     1      36.861  -1.687  14.375  0.00  0.00    +0.000 A 
ATOM      3  C   UNL     1      37.013  -0.460  13.769  0.00  0.00    +0.000 A 
ATOM      4  C   UNL     1      36.323   0.459  14.568  0.00  0.00    +0.000 A 
ATOM      5  C   UNL     1      36.133   1.825  14.454  0.00  0.00    +0.000 A 
ATOM      6  C   UNL     1      35.400   2.511  15.388  0.00  0.00    +0.000 A 
ATOM      7  C   UNL     1      34.874   1.781  16.428  0.00  0.00    +0.000 A 
ATOM      8  C   UNL     1      35.043   0.424  16.574  0.00  0.00    +0.000 A 
ATOM      9  C   UNL     1      35.794  -0.244  15.604  0.00  0.00    +0.000 A 
ATOM     10  N   UNL     1      36.124  -1.557  15.487  0.00  0.00    +0.000 N 
ENDROOT
BRANCH   3  11
ATOM     11  C   UNL     1      37.717  -0.099  12.564  0.00  0.00    +0.000 C 
ATOM     12  O   UNL     1      37.045   0.178  11.557  0.00  0.00    +0.000 OA
ATOM     13  N   UNL     1      39.109  -0.032  12.433  0.00  0.00    +0.000 N 
ATOM     14  C   UNL     1      39.903   0.316  11.279  0.00  0.00    +0.000 C 
ATOM     15  C   UNL     1      40.701  -0.989  11.252  0.00  0.00    +0.000 C 
ATOM     16  C   UNL     1      41.272  -1.025  12.618  0.00  0.00    +0.000 C 
ATOM     17  C   UNL     1      40.140  -0.330  13.544  0.00  0.00    +0.000 C 
BRANCH  17  18
ATOM     18  C   UNL     1      40.844   1.117  13.597  0.00  0.00    +0.000 C 
ATOM     19  O   UNL     1      40.066   2.012  14.252  0.00  0.00    +0.000 OA
ENDBRANCH  17  18
ENDBRANCH   3  11
BRANCH   6  20
ATOM     20  O   UNL     1      35.215   3.879  15.264  0.00  0.00    +0.000 OA
BRANCH  20  21
ATOM     21  C   UNL     1      36.173   4.718  14.645  0.00  0.00    +0.000 C 
BRANCH  21  22
ATOM     22  C   UNL     1      35.434   5.557  13.664  0.00  0.00    +0.000 A 
ATOM     23  C   UNL     1      34.307   6.209  14.108  0.00  0.00    +0.000 A 
ATOM     24  C   UNL     1      33.551   7.019  13.256  0.00  0.00    +0.000 A 
ATOM     25  C   UNL     1      33.921   7.180  11.945  0.00  0.00    +0.000 A 
ATOM     26  C   UNL     1      35.053   6.519  11.518  0.00  0.00    +0.000 A 
ATOM     27  C   UNL     1      35.803   5.718  12.355  0.00  0.00    +0.000 A 
ENDBRANCH  21  22
ENDBRANCH  20  21
ENDBRANCH   6  20
BRANCH  10  28
ATOM     28  C   UNL     1      35.776  -2.636  16.354  0.00  0.00    +0.000 C 
BRANCH  28  29
ATOM     29  C   UNL     1      36.750  -2.785  17.459  0.00  0.00    +0.000 A 
ATOM     30  C   UNL     1      37.692  -3.802  17.321  0.00  0.00    +0.000 A 
ATOM     31  C   UNL     1      38.646  -4.029  18.296  0.00  0.00    +0.000 A 
ATOM     32  C   UNL     1      38.679  -3.248  19.420  0.00  0.00    +0.000 A 
ATOM     33  C   UNL     1      37.736  -2.249  19.531  0.00  0.00    +0.000 A 
ATOM     34  C   UNL     1      36.773  -2.002  18.575  0.00  0.00    +0.000 A 
ENDBRANCH  28  29
ENDBRANCH  10  28
TORSDOF 7
ENDMDL
MODEL 3
REMARK VINA RESULT:      -7.6      1.680      6.151
REMARK  Name = 
REMARK  7 active torsions:
REMARK  status: ('A' for Active; 'I' for Inactive)
REMARK    1  A    between atoms: C_3  and  C_4
REMARK    2  A    between atoms: C_10  and  C_11
REMARK    3  A    between atoms: C_15  and  O_16
REMARK    4  A    between atoms: O_16  and  C_17
REMARK    5  A    between atoms: C_17  and  C_18
REMARK    6  A    between atoms: N_27  and  C_28
REMARK    7  A    between atoms: C_28  and  C_29
REMARK                            x       y       z     vdW  Elec       q    Type
REMARK                         _______ _______ _______ _____ _____    ______ ____
ROOT
ATOM      1  C   UNL     1      36.786  -2.780  13.950  0.00  0.00    +0.000 C 
ATOM      2  C   UNL     1      36.717  -1.426  14.591  0.00  0.00    +0.000 A 
ATOM      3  C   UNL     1      37.147  -0.277  13.966  0.00  0.00    +0.000 A 
ATOM      4  C   UNL     1      36.923   0.769  14.869  0.00  0.00    +0.000 A 
ATOM      5  C   UNL     1      37.157   2.129  14.787  0.00  0.00    +0.000 A 
ATOM      6  C   UNL     1      36.841   2.960  15.831  0.00  0.00    +0.000 A 
ATOM      7  C   UNL     1      36.289   2.376  16.948  0.00  0.00    +0.000 A 
ATOM      8  C   UNL     1      36.042   1.029  17.065  0.00  0.00    +0.000 A 
ATOM      9  C   UNL     1      36.375   0.212  15.982  0.00  0.00    +0.000 A 
ATOM     10  N   UNL     1      36.249  -1.131  15.813  0.00  0.00    +0.000 N 
ENDROOT
BRANCH   3  11
ATOM     11  C   UNL     1      37.723  -0.090  12.658  0.00  0.00    +0.000 C 
ATOM     12  O   UNL     1      36.999   0.379  11.764  0.00  0.00    +0.000 OA
ATOM     13  N   UNL     1      39.043  -0.396  12.307  0.00  0.00    +0.000 N 
ATOM     14  C   UNL     1      39.709  -0.248  11.035  0.00  0.00    +0.000 C 
ATOM     15  C   UNL     1      40.112  -1.718  10.909  0.00  0.00    +0.000 C 
ATOM     16  C   UNL     1      40.862  -1.936  12.168  0.00  0.00    +0.000 C 
ATOM     17  C   UNL     1      40.118  -0.985  13.246  0.00  0.00    +0.000 C 
BRANCH  17  18
ATOM     18  C   UNL     1      41.184   0.219  13.158  0.00  0.00    +0.000 C 
ATOM     19  O   UNL     1      42.449  -0.239  13.310  0.00  0.00    +0.000 OA
ENDBRANCH  17  18
ENDBRANCH   3  11
BRANCH   6  20
ATOM     20  O   UNL     1      37.079   4.322  15.739  0.00  0.00    +0.000 OA
BRANCH  20  21
ATOM     21  C   UNL     1      38.290   4.844  15.222  0.00  0.00    +0.000 C 
BRANCH  21  22
ATOM     22  C   UNL     1      39.087   5.308  16.388  0.00  0.00    +0.000 A 
ATOM     23  C   UNL     1      38.525   5.169  17.636  0.00  0.00    +0.000 A 
ATOM     24  C   UNL     1      39.202   5.578  18.789  0.00  0.00    +0.000 A 
ATOM     25  C   UNL     1      40.453   6.132  18.697  0.00  0.00    +0.000 A 
ATOM     26  C   UNL     1      41.000   6.263  17.439  0.00  0.00    +0.000 A 
ATOM     27  C   UNL     1      40.336   5.861  16.297  0.00  0.00    +0.000 A 
ENDBRANCH  21  22
ENDBRANCH  20  21
ENDBRANCH   6  20
BRANCH  10  28
ATOM     28  C   UNL     1      35.725  -2.091  16.728  0.00  0.00    +0.000 C 
BRANCH  28  29
ATOM     29  C   UNL     1      36.726  -2.478  17.748  0.00  0.00    +0.000 A 
ATOM     30  C   UNL     1      37.607  -3.497  17.396  0.00  0.00    +0.000 A 
ATOM     31  C   UNL     1      38.581  -3.936  18.276  0.00  0.00    +0.000 A 
ATOM     32  C   UNL     1      38.692  -3.368  19.515  0.00  0.00    +0.000 A 
ATOM     33  C   UNL     1      37.808  -2.361  19.839  0.00  0.00    +0.000 A 
ATOM     34  C   UNL     1      36.828  -1.906  18.981  0.00  0.00    +0.000 A 
ENDBRANCH  28  29
ENDBRANCH  10  28
TORSDOF 7
ENDMDL
MODEL 4
REMARK VINA RESULT:      -7.6      1.798      3.032
REMARK  Name = 
REMARK  7 active torsions:
REMARK  status: ('A' for Active; 'I' for Inactive)
REMARK    1  A    between atoms: C_3  and  C_4
REMARK    2  A    between atoms: C_10  and  C_11
REMARK    3  A    between atoms: C_15  and  O_16
REMARK    4  A    between atoms: O_16  and  C_17
REMARK    5  A    between atoms: C_17  and  C_18
REMARK    6  A    between atoms: N_27  and  C_28
REMARK    7  A    between atoms: C_28  and  C_29
REMARK                            x       y       z     vdW  Elec       q    Type
REMARK                         _______ _______ _______ _____ _____    ______ ____
ROOT
ATOM      1  C   UNL     1      38.499   3.454  12.164  0.00  0.00    +0.000 C 
ATOM      2  C   UNL     1      37.629   2.926  13.266  0.00  0.00    +0.000 A 
ATOM      3  C   UNL     1      37.379   1.584  13.446  0.00  0.00    +0.000 A 
ATOM      4  C   UNL     1      36.537   1.489  14.561  0.00  0.00    +0.000 A 
ATOM      5  C   UNL     1      35.966   0.403  15.199  0.00  0.00    +0.000 A 
ATOM      6  C   UNL     1      35.161   0.577  16.295  0.00  0.00    +0.000 A 
ATOM      7  C   UNL     1      34.954   1.870  16.718  0.00  0.00    +0.000 A 
ATOM      8  C   UNL     1      35.505   2.973  16.109  0.00  0.00    +0.000 A 
ATOM      9  C   UNL     1      36.320   2.759  14.995  0.00  0.00    +0.000 A 
ATOM     10  N   UNL     1      36.987   3.638  14.203  0.00  0.00    +0.000 N 
ENDROOT
BRANCH   3  11
ATOM     11  C   UNL     1      37.841   0.443  12.697  0.00  0.00    +0.000 C 
ATOM     12  O   UNL     1      37.296   0.200  11.608  0.00  0.00    +0.000 OA
ATOM     13  N   UNL     1      38.866  -0.423  13.099  0.00  0.00    +0.000 N 
ATOM     14  C   UNL     1      39.397  -1.584  12.426  0.00  0.00    +0.000 C 
ATOM     15  C   UNL     1      39.127  -2.556  13.576  0.00  0.00    +0.000 C 
ATOM     16  C   UNL     1      39.839  -1.903  14.700  0.00  0.00    +0.000 C 
ATOM     17  C   UNL     1      39.682  -0.319  14.406  0.00  0.00    +0.000 C 
BRANCH  17  18
ATOM     18  C   UNL     1      41.140  -0.132  13.751  0.00  0.00    +0.000 C 
ATOM     19  O   UNL     1      41.384   1.170  13.470  0.00  0.00    +0.000 OA
ENDBRANCH  17  18
ENDBRANCH   3  11
BRANCH   6  20
ATOM     20  O   UNL     1      34.594  -0.518  16.928  0.00  0.00    +0.000 OA
BRANCH  20  21
ATOM     21  C   UNL     1      35.010  -0.947  18.212  0.00  0.00    +0.000 C 
BRANCH  21  22
ATOM     22  C   UNL     1      36.168  -1.855  18.003  0.00  0.00    +0.000 A 
ATOM     23  C   UNL     1      37.279  -1.659  18.789  0.00  0.00    +0.000 A 
ATOM     24  C   UNL     1      38.414  -2.466  18.662  0.00  0.00    +0.000 A 
ATOM     25  C   UNL     1      38.442  -3.480  17.739  0.00  0.00    +0.000 A 
ATOM     26  C   UNL     1      37.319  -3.662  16.959  0.00  0.00    +0.000 A 
ATOM     27  C   UNL     1      36.197  -2.868  17.081  0.00  0.00    +0.000 A 
ENDBRANCH  21  22
ENDBRANCH  20  21
ENDBRANCH   6  20
BRANCH  10  28
ATOM     28  C   UNL     1      37.033   5.061  14.306  0.00  0.00    +0.000 C 
BRANCH  28  29
ATOM     29  C   UNL     1      35.952   5.701  13.522  0.00  0.00    +0.000 A 
ATOM     30  C   UNL     1      34.806   6.062  14.227  0.00  0.00    +0.000 A 
ATOM     31  C   UNL     1      33.736   6.665  13.591  0.00  0.00    +0.000 A 
ATOM     32  C   UNL     1      33.791   6.919  12.247  0.00  0.00    +0.000 A 
ATOM     33  C   UNL     1      34.936   6.552  11.573  0.00  0.00    +0.000 A 
ATOM     34  C   UNL     1      36.016   5.948  12.183  0.00  0.00    +0.000 A 
ENDBRANCH  28  29
ENDBRANCH  10  28
TORSDOF 7
ENDMDL
MODEL 5
REMARK VINA RESULT:      -7.4      2.011      5.417
REMARK  Name = 
REMARK  7 active torsions:
REMARK  status: ('A' for Active; 'I' for Inactive)
REMARK    1  A    between atoms: C_3  and  C_4
REMARK    2  A    between atoms: C_10  and  C_11
REMARK    3  A    between atoms: C_15  and  O_16
REMARK    4  A    between atoms: O_16  and  C_17
REMARK    5  A    between atoms: C_17  and  C_18
REMARK    6  A    between atoms: N_27  and  C_28
REMARK    7  A    between atoms: C_28  and  C_29
REMARK                            x       y       z     vdW  Elec       q    Type
REMARK                         _______ _______ _______ _____ _____    ______ ____
ROOT
ATOM      1  C   UNL     1      35.626   1.925  15.109  0.00  0.00    +0.000 C 
ATOM      2  C   UNL     1      37.022   1.445  14.843  0.00  0.00    +0.000 A 
ATOM      3  C   UNL     1      37.382   0.117  14.899  0.00  0.00    +0.000 A 
ATOM      4  C   UNL     1      38.748   0.069  14.595  0.00  0.00    +0.000 A 
ATOM      5  C   UNL     1      39.638  -0.986  14.502  0.00  0.00    +0.000 A 
ATOM      6  C   UNL     1      40.953  -0.767  14.182  0.00  0.00    +0.000 A 
ATOM      7  C   UNL     1      41.333   0.537  13.962  0.00  0.00    +0.000 A 
ATOM      8  C   UNL     1      40.477   1.609  14.045  0.00  0.00    +0.000 A 
ATOM      9  C   UNL     1      39.144   1.350  14.373  0.00  0.00    +0.000 A 
ATOM     10  N   UNL     1      38.089   2.193  14.525  0.00  0.00    +0.000 N 
ENDROOT
BRANCH   3  11
ATOM     11  C   UNL     1      36.590  -1.049  15.198  0.00  0.00    +0.000 C 
ATOM     12  O   UNL     1      36.339  -1.837  14.272  0.00  0.00    +0.000 OA
ATOM     13  N   UNL     1      36.076  -1.372  16.460  0.00  0.00    +0.000 N 
ATOM     14  C   UNL     1      35.277  -2.506  16.860  0.00  0.00    +0.000 C 
ATOM     15  C   UNL     1      34.114  -1.679  17.410  0.00  0.00    +0.000 C 
ATOM     16  C   UNL     1      34.798  -0.812  18.397  0.00  0.00    +0.000 C 
ATOM     17  C   UNL     1      36.258  -0.546  17.752  0.00  0.00    +0.000 C 
BRANCH  17  18
ATOM     18  C   UNL     1      37.025  -1.658  18.628  0.00  0.00    +0.000 C 
ATOM     19  O   UNL     1      38.144  -1.146  19.193  0.00  0.00    +0.000 OA
ENDBRANCH  17  18
ENDBRANCH   3  11
BRANCH   6  20
ATOM     20  O   UNL     1      41.838  -1.830  14.091  0.00  0.00    +0.000 OA
BRANCH  20  21
ATOM     21  C   UNL     1      41.484  -3.056  13.477  0.00  0.00    +0.000 C 
BRANCH  21  22
ATOM     22  C   UNL     1      41.484  -2.814  12.010  0.00  0.00    +0.000 A 
ATOM     23  C   UNL     1      42.697  -2.581  11.405  0.00  0.00    +0.000 A 
ATOM     24  C   UNL     1      42.791  -2.344  10.031  0.00  0.00    +0.000 A 
ATOM     25  C   UNL     1      41.664  -2.338   9.250  0.00  0.00    +0.000 A 
ATOM     26  C   UNL     1      40.457  -2.572   9.874  0.00  0.00    +0.000 A 
ATOM     27  C   UNL     1      40.358  -2.807  11.231  0.00  0.00    +0.000 A 
ENDBRANCH  21  22
ENDBRANCH  20  21
ENDBRANCH   6  20
BRANCH  10  28
ATOM     28  C   UNL     1      38.064   3.612  14.384  0.00  0.00    +0.000 C 
BRANCH  28  29
ATOM     29  C   UNL     1      38.587   4.291  15.591  0.00  0.00    +0.000 A 
ATOM     30  C   UNL     1      39.694   5.116  15.407  0.00  0.00    +0.000 A 
ATOM     31  C   UNL     1      40.262   5.797  16.469  0.00  0.00    +0.000 A 
ATOM     32  C   UNL     1      39.738   5.669  17.726  0.00  0.00    +0.000 A 
ATOM     33  C   UNL     1      38.642   4.847  17.881  0.00  0.00    +0.000 A 
ATOM     34  C   UNL     1      38.057   4.156  16.840  0.00  0.00    +0.000 A 
ENDBRANCH  28  29
ENDBRANCH  10  28
TORSDOF 7
ENDMDL
MODEL 6
REMARK VINA RESULT:      -7.3     25.405     28.056
REMARK  Name = 
REMARK  7 active torsions:
REMARK  status: ('A' for Active; 'I' for Inactive)
REMARK    1  A    between atoms: C_3  and  C_4
REMARK    2  A    between atoms: C_10  and  C_11
REMARK    3  A    between atoms: C_15  and  O_16
REMARK    4  A    between atoms: O_16  and  C_17
REMARK    5  A    between atoms: C_17  and  C_18
REMARK    6  A    between atoms: N_27  and  C_28
REMARK    7  A    between atoms: C_28  and  C_29
REMARK                            x       y       z     vdW  Elec       q    Type
REMARK                         _______ _______ _______ _____ _____    ______ ____
ROOT
ATOM      1  C   UNL     1      28.465  17.980  35.865  0.00  0.00    +0.000 C 
ATOM      2  C   UNL     1      27.960  16.955  36.836  0.00  0.00    +0.000 A 
ATOM      3  C   UNL     1      28.778  16.300  37.729  0.00  0.00    +0.000 A 
ATOM      4  C   UNL     1      27.953  15.433  38.454  0.00  0.00    +0.000 A 
ATOM      5  C   UNL     1      28.221  14.537  39.473  0.00  0.00    +0.000 A 
ATOM      6  C   UNL     1      27.216  13.788  40.031  0.00  0.00    +0.000 A 
ATOM      7  C   UNL     1      25.948  13.974  39.529  0.00  0.00    +0.000 A 
ATOM      8  C   UNL     1      25.645  14.855  38.518  0.00  0.00    +0.000 A 
ATOM      9  C   UNL     1      26.693  15.602  37.974  0.00  0.00    +0.000 A 
ATOM     10  N   UNL     1      26.696  16.532  36.983  0.00  0.00    +0.000 N 
ENDROOT
BRANCH   3  11
ATOM     11  C   UNL     1      30.199  16.415  37.945  0.00  0.00    +0.000 C 
ATOM     12  O   UNL     1      30.609  17.363  38.635  0.00  0.00    +0.000 OA
ATOM     13  N   UNL     1      31.166  15.539  37.437  0.00  0.00    +0.000 N 
ATOM     14  C   UNL     1      32.600  15.568  37.595  0.00  0.00    +0.000 C 
ATOM     15  C   UNL     1      32.911  15.607  36.098  0.00  0.00    +0.000 C 
ATOM     16  C   UNL     1      32.198  14.404  35.608  0.00  0.00    +0.000 C 
ATOM     17  C   UNL     1      30.893  14.298  36.559  0.00  0.00    +0.000 C 
BRANCH  17  18
ATOM     18  C   UNL     1      31.504  13.181  37.545  0.00  0.00    +0.000 C 
ATOM     19  O   UNL     1      32.041  12.155  36.843  0.00  0.00    +0.000 OA
ENDBRANCH  17  18
ENDBRANCH   3  11
BRANCH   6  20
ATOM     20  O   UNL     1      27.494  12.893  41.051  0.00  0.00    +0.000 OA
BRANCH  20  21
ATOM     21  C   UNL     1      26.855  11.632  41.144  0.00  0.00    +0.000 C 
BRANCH  21  22
ATOM     22  C   UNL     1      27.933  10.608  41.164  0.00  0.00    +0.000 A 
ATOM     23  C   UNL     1      29.115  10.919  40.533  0.00  0.00    +0.000 A 
ATOM     24  C   UNL     1      30.183  10.018  40.502  0.00  0.00    +0.000 A 
ATOM     25  C   UNL     1      30.072   8.792  41.106  0.00  0.00    +0.000 A 
ATOM     26  C   UNL     1      28.881   8.498  41.734  0.00  0.00    +0.000 A 
ATOM     27  C   UNL     1      27.823   9.384  41.767  0.00  0.00    +0.000 A 
ENDBRANCH  21  22
ENDBRANCH  20  21
ENDBRANCH   6  20
BRANCH  10  28
ATOM     28  C   UNL     1      25.593  17.007  36.214  0.00  0.00    +0.000 C 
BRANCH  28  29
ATOM     29  C   UNL     1      25.473  16.286  34.926  0.00  0.00    +0.000 A 
ATOM     30  C   UNL     1      24.966  17.015  33.853  0.00  0.00    +0.000 A 
ATOM     31  C   UNL     1      24.812  16.437  32.606  0.00  0.00    +0.000 A 
ATOM     32  C   UNL     1      25.159  15.128  32.408  0.00  0.00    +0.000 A 
ATOM     33  C   UNL     1      25.658  14.429  33.487  0.00  0.00    +0.000 A 
ATOM     34  C   UNL     1      25.822  14.981  34.740  0.00  0.00    +0.000 A 
ENDBRANCH  28  29
ENDBRANCH  10  28
TORSDOF 7
ENDMDL
MODEL 7
REMARK VINA RESULT:      -7.2      2.651      5.717
REMARK  Name = 
REMARK  7 active torsions:
REMARK  status: ('A' for Active; 'I' for Inactive)
REMARK    1  A    between atoms: C_3  and  C_4
REMARK    2  A    between atoms: C_10  and  C_11
REMARK    3  A    between atoms: C_15  and  O_16
REMARK    4  A    between atoms: O_16  and  C_17
REMARK    5  A    between atoms: C_17  and  C_18
REMARK    6  A    between atoms: N_27  and  C_28
REMARK    7  A    between atoms: C_28  and  C_29
REMARK                            x       y       z     vdW  Elec       q    Type
REMARK                         _______ _______ _______ _____ _____    ______ ____
ROOT
ATOM      1  C   UNL     1      35.984   1.266  14.355  0.00  0.00    +0.000 C 
ATOM      2  C   UNL     1      37.438   0.908  14.287  0.00  0.00    +0.000 A 
ATOM      3  C   UNL     1      37.911  -0.361  14.536  0.00  0.00    +0.000 A 
ATOM      4  C   UNL     1      39.300  -0.301  14.377  0.00  0.00    +0.000 A 
ATOM      5  C   UNL     1      40.289  -1.261  14.500  0.00  0.00    +0.000 A 
ATOM      6  C   UNL     1      41.605  -0.943  14.288  0.00  0.00    +0.000 A 
ATOM      7  C   UNL     1      41.886   0.362  13.952  0.00  0.00    +0.000 A 
ATOM      8  C   UNL     1      40.930   1.342  13.822  0.00  0.00    +0.000 A 
ATOM      9  C   UNL     1      39.599   0.983  14.045  0.00  0.00    +0.000 A 
ATOM     10  N   UNL     1      38.460   1.723  13.990  0.00  0.00    +0.000 N 
ENDROOT
BRANCH   3  11
ATOM     11  C   UNL     1      37.201  -1.564  14.893  0.00  0.00    +0.000 C 
ATOM     12  O   UNL     1      37.086  -2.451  14.030  0.00  0.00    +0.000 OA
ATOM     13  N   UNL     1      36.625  -1.820  16.143  0.00  0.00    +0.000 N 
ATOM     14  C   UNL     1      35.899  -2.983  16.595  0.00  0.00    +0.000 C 
ATOM     15  C   UNL     1      34.633  -2.221  16.989  0.00  0.00    +0.000 C 
ATOM     16  C   UNL     1      35.167  -1.211  17.932  0.00  0.00    +0.000 C 
ATOM     17  C   UNL     1      36.643  -0.870  17.361  0.00  0.00    +0.000 C 
BRANCH  17  18
ATOM     18  C   UNL     1      37.435  -1.826  18.386  0.00  0.00    +0.000 C 
ATOM     19  O   UNL     1      37.049  -1.597  19.663  0.00  0.00    +0.000 OA
ENDBRANCH  17  18
ENDBRANCH   3  11
BRANCH   6  20
ATOM     20  O   UNL     1      42.589  -1.912  14.412  0.00  0.00    +0.000 OA
BRANCH  20  21
ATOM     21  C   UNL     1      43.926  -1.687  14.004  0.00  0.00    +0.000 C 
BRANCH  21  22
ATOM     22  C   UNL     1      44.716  -1.458  15.242  0.00  0.00    +0.000 A 
ATOM     23  C   UNL     1      45.300  -2.554  15.834  0.00  0.00    +0.000 A 
ATOM     24  C   UNL     1      46.061  -2.432  17.001  0.00  0.00    +0.000 A 
ATOM     25  C   UNL     1      46.242  -1.204  17.584  0.00  0.00    +0.000 A 
ATOM     26  C   UNL     1      45.649  -0.118  16.978  0.00  0.00    +0.000 A 
ATOM     27  C   UNL     1      44.897  -0.232  15.826  0.00  0.00    +0.000 A 
ENDBRANCH  21  22
ENDBRANCH  20  21
ENDBRANCH   6  20
BRANCH  10  28
ATOM     28  C   UNL     1      38.322   3.108  13.679  0.00  0.00    +0.000 C 
BRANCH  28  29
ATOM     29  C   UNL     1      38.800   3.968  14.786  0.00  0.00    +0.000 A 
ATOM     30  C   UNL     1      38.102   3.877  15.987  0.00  0.00    +0.000 A 
ATOM     31  C   UNL     1      38.466   4.637  17.084  0.00  0.00    +0.000 A 
ATOM     32  C   UNL     1      39.528   5.497  17.002  0.00  0.00    +0.000 A 
ATOM     33  C   UNL     1      40.202   5.568  15.802  0.00  0.00    +0.000 A 
ATOM     34  C   UNL     1      39.860   4.821  14.693  0.00  0.00    +0.000 A 
ENDBRANCH  28  29
ENDBRANCH  10  28
TORSDOF 7
ENDMDL
MODEL 8
REMARK VINA RESULT:      -7.2      2.861      7.271
REMARK  Name = 
REMARK  7 active torsions:
REMARK  status: ('A' for Active; 'I' for Inactive)
REMARK    1  A    between atoms: C_3  and  C_4
REMARK    2  A    between atoms: C_10  and  C_11
REMARK    3  A    between atoms: C_15  and  O_16
REMARK    4  A    between atoms: O_16  and  C_17
REMARK    5  A    between atoms: C_17  and  C_18
REMARK    6  A    between atoms: N_27  and  C_28
REMARK    7  A    between atoms: C_28  and  C_29
REMARK                            x       y       z     vdW  Elec       q    Type
REMARK                         _______ _______ _______ _____ _____    ______ ____
ROOT
ATOM      1  C   UNL     1      36.160   0.492  16.107  0.00  0.00    +0.000 C 
ATOM      2  C   UNL     1      37.384  -0.331  15.836  0.00  0.00    +0.000 A 
ATOM      3  C   UNL     1      38.438   0.119  15.073  0.00  0.00    +0.000 A 
ATOM      4  C   UNL     1      39.377  -0.919  15.050  0.00  0.00    +0.000 A 
ATOM      5  C   UNL     1      40.616  -1.033  14.447  0.00  0.00    +0.000 A 
ATOM      6  C   UNL     1      41.358  -2.179  14.578  0.00  0.00    +0.000 A 
ATOM      7  C   UNL     1      40.811  -3.193  15.330  0.00  0.00    +0.000 A 
ATOM      8  C   UNL     1      39.583  -3.115  15.944  0.00  0.00    +0.000 A 
ATOM      9  C   UNL     1      38.855  -1.933  15.790  0.00  0.00    +0.000 A 
ATOM     10  N   UNL     1      37.635  -1.575  16.270  0.00  0.00    +0.000 N 
ENDROOT
BRANCH   3  11
ATOM     11  C   UNL     1      38.626   1.378  14.398  0.00  0.00    +0.000 C 
ATOM     12  O   UNL     1      38.898   2.374  15.087  0.00  0.00    +0.000 OA
ATOM     13  N   UNL     1      38.526   1.575  13.015  0.00  0.00    +0.000 N 
ATOM     14  C   UNL     1      38.694   2.786  12.249  0.00  0.00    +0.000 C 
ATOM     15  C   UNL     1      37.309   2.742  11.600  0.00  0.00    +0.000 C 
ATOM     16  C   UNL     1      37.314   1.403  10.965  0.00  0.00    +0.000 C 
ATOM     17  C   UNL     1      38.199   0.489  11.966  0.00  0.00    +0.000 C 
BRANCH  17  18
ATOM     18  C   UNL     1      39.558   0.583  11.108  0.00  0.00    +0.000 C 
ATOM     19  O   UNL     1      40.057  -0.649  10.851  0.00  0.00    +0.000 OA
ENDBRANCH  17  18
ENDBRANCH   3  11
BRANCH   6  20
ATOM     20  O   UNL     1      42.599  -2.283  13.970  0.00  0.00    +0.000 OA
BRANCH  20  21
ATOM     21  C   UNL     1      43.482  -1.181  13.863  0.00  0.00    +0.000 C 
BRANCH  21  22
ATOM     22  C   UNL     1      44.441  -1.292  14.994  0.00  0.00    +0.000 A 
ATOM     23  C   UNL     1      44.737  -0.143  15.690  0.00  0.00    +0.000 A 
ATOM     24  C   UNL     1      45.628  -0.154  16.768  0.00  0.00    +0.000 A 
ATOM     25  C   UNL     1      46.231  -1.323  17.156  0.00  0.00    +0.000 A 
ATOM     26  C   UNL     1      45.923  -2.464  16.446  0.00  0.00    +0.000 A 
ATOM     27  C   UNL     1      45.044  -2.459  15.381  0.00  0.00    +0.000 A 
ENDBRANCH  21  22
ENDBRANCH  20  21
ENDBRANCH   6  20
BRANCH  10  28
ATOM     28  C   UNL     1      36.749  -2.337  17.087  0.00  0.00    +0.000 C 
BRANCH  28  29
ATOM     29  C   UNL     1      36.007  -3.346  16.297  0.00  0.00    +0.000 A 
ATOM     30  C   UNL     1      36.367  -4.676  16.497  0.00  0.00    +0.000 A 
ATOM     31  C   UNL     1      35.738  -5.698  15.808  0.00  0.00    +0.000 A 
ATOM     32  C   UNL     1      34.742  -5.411  14.914  0.00  0.00    +0.000 A 
ATOM     33  C   UNL     1      34.404  -4.087  14.736  0.00  0.00    +0.000 A 
ATOM     34  C   UNL     1      35.016  -3.049  15.408  0.00  0.00    +0.000 A 
ENDBRANCH  28  29
ENDBRANCH  10  28
TORSDOF 7
ENDMDL
MODEL 9
REMARK VINA RESULT:      -7.1      2.865      7.236
REMARK  Name = 
REMARK  7 active torsions:
REMARK  status: ('A' for Active; 'I' for Inactive)
REMARK    1  A    between atoms: C_3  and  C_4
REMARK    2  A    between atoms: C_10  and  C_11
REMARK    3  A    between atoms: C_15  and  O_16
REMARK    4  A    between atoms: O_16  and  C_17
REMARK    5  A    between atoms: C_17  and  C_18
REMARK    6  A    between atoms: N_27  and  C_28
REMARK    7  A    between atoms: C_28  and  C_29
REMARK                            x       y       z     vdW  Elec       q    Type
REMARK                         _______ _______ _______ _____ _____    ______ ____
ROOT
ATOM      1  C   UNL     1      34.820   1.494  16.899  0.00  0.00    +0.000 C 
ATOM      2  C   UNL     1      35.673   0.978  15.779  0.00  0.00    +0.000 A 
ATOM      3  C   UNL     1      36.260   1.800  14.842  0.00  0.00    +0.000 A 
ATOM      4  C   UNL     1      36.967   0.961  13.973  0.00  0.00    +0.000 A 
ATOM      5  C   UNL     1      37.739   1.226  12.856  0.00  0.00    +0.000 A 
ATOM      6  C   UNL     1      38.339   0.207  12.161  0.00  0.00    +0.000 A 
ATOM      7  C   UNL     1      38.134  -1.071  12.627  0.00  0.00    +0.000 A 
ATOM      8  C   UNL     1      37.374  -1.371  13.732  0.00  0.00    +0.000 A 
ATOM      9  C   UNL     1      36.778  -0.310  14.417  0.00  0.00    +0.000 A 
ATOM     10  N   UNL     1      35.986  -0.300  15.521  0.00  0.00    +0.000 N 
ENDROOT
BRANCH   3  11
ATOM     11  C   UNL     1      36.213   3.234  14.705  0.00  0.00    +0.000 C 
ATOM     12  O   UNL     1      35.167   3.745  14.273  0.00  0.00    +0.000 OA
ATOM     13  N   UNL     1      37.260   4.109  15.021  0.00  0.00    +0.000 N 
ATOM     14  C   UNL     1      37.312   5.547  14.919  0.00  0.00    +0.000 C 
ATOM     15  C   UNL     1      38.538   5.585  14.005  0.00  0.00    +0.000 C 
ATOM     16  C   UNL     1      39.529   4.816  14.794  0.00  0.00    +0.000 C 
ATOM     17  C   UNL     1      38.645   3.704  15.570  0.00  0.00    +0.000 C 
BRANCH  17  18
ATOM     18  C   UNL     1      38.579   4.500  16.968  0.00  0.00    +0.000 C 
ATOM     19  O   UNL     1      37.977   3.754  17.925  0.00  0.00    +0.000 OA
ENDBRANCH  17  18
ENDBRANCH   3  11
BRANCH   6  20
ATOM     20  O   UNL     1      39.111   0.482  11.043  0.00  0.00    +0.000 OA
BRANCH  20  21
ATOM     21  C   UNL     1      39.178   1.776  10.472  0.00  0.00    +0.000 C 
BRANCH  21  22
ATOM     22  C   UNL     1      38.280   1.766   9.287  0.00  0.00    +0.000 A 
ATOM     23  C   UNL     1      38.664   1.007   8.206  0.00  0.00    +0.000 A 
ATOM     24  C   UNL     1      37.881   0.938   7.050  0.00  0.00    +0.000 A 
ATOM     25  C   UNL     1      36.702   1.633   6.970  0.00  0.00    +0.000 A 
ATOM     26  C   UNL     1      36.333   2.389   8.062  0.00  0.00    +0.000 A 
ATOM     27  C   UNL     1      37.102   2.460   9.206  0.00  0.00    +0.000 A 
ENDBRANCH  21  22
ENDBRANCH  20  21
ENDBRANCH   6  20
BRANCH  10  28
ATOM     28  C   UNL     1      35.542  -1.410  16.299  0.00  0.00    +0.000 C 
BRANCH  28  29
ATOM     29  C   UNL     1      36.558  -1.822  17.295  0.00  0.00    +0.000 A 
ATOM     30  C   UNL     1      37.373  -2.894  16.940  0.00  0.00    +0.000 A 
ATOM     31  C   UNL     1      38.353  -3.360  17.797  0.00  0.00    +0.000 A 
ATOM     32  C   UNL     1      38.538  -2.767  19.016  0.00  0.00    +0.000 A 
ATOM     33  C   UNL     1      37.719  -1.708  19.343  0.00  0.00    +0.000 A 
ATOM     34  C   UNL     1      36.733  -1.224  18.507  0.00  0.00    +0.000 A 
ENDBRANCH  28  29
ENDBRANCH  10  28
TORSDOF 7
ENDMDL
MODEL 10
REMARK VINA RESULT:      -7.1      1.663      2.661
REMARK  Name = 
REMARK  7 active torsions:
REMARK  status: ('A' for Active; 'I' for Inactive)
REMARK    1  A    between atoms: C_3  and  C_4
REMARK    2  A    between atoms: C_10  and  C_11
REMARK    3  A    between atoms: C_15  and  O_16
REMARK    4  A    between atoms: O_16  and  C_17
REMARK    5  A    between atoms: C_17  and  C_18
REMARK    6  A    between atoms: N_27  and  C_28
REMARK    7  A    between atoms: C_28  and  C_29
REMARK                            x       y       z     vdW  Elec       q    Type
REMARK                         _______ _______ _______ _____ _____    ______ ____
ROOT
ATOM      1  C   UNL     1      40.533   4.747  13.803  0.00  0.00    +0.000 C 
ATOM      2  C   UNL     1      39.446   3.986  14.502  0.00  0.00    +0.000 A 
ATOM      3  C   UNL     1      39.197   2.651  14.273  0.00  0.00    +0.000 A 
ATOM      4  C   UNL     1      38.122   2.305  15.100  0.00  0.00    +0.000 A 
ATOM      5  C   UNL     1      37.449   1.112  15.292  0.00  0.00    +0.000 A 
ATOM      6  C   UNL     1      36.406   1.030  16.179  0.00  0.00    +0.000 A 
ATOM      7  C   UNL     1      36.072   2.180  16.856  0.00  0.00    +0.000 A 
ATOM      8  C   UNL     1      36.718   3.382  16.691  0.00  0.00    +0.000 A 
ATOM      9  C   UNL     1      37.776   3.430  15.780  0.00  0.00    +0.000 A 
ATOM     10  N   UNL     1      38.585   4.459  15.414  0.00  0.00    +0.000 N 
ENDROOT
BRANCH   3  11
ATOM     11  C   UNL     1      39.853   1.722  13.387  0.00  0.00    +0.000 C 
ATOM     12  O   UNL     1      40.773   1.027  13.848  0.00  0.00    +0.000 OA
ATOM     13  N   UNL     1      39.535   1.535  12.036  0.00  0.00    +0.000 N 
ATOM     14  C   UNL     1      40.128   0.638  11.073  0.00  0.00    +0.000 C 
ATOM     15  C   UNL     1      40.510   1.730  10.072  0.00  0.00    +0.000 C 
ATOM     16  C   UNL     1      39.206   2.392   9.833  0.00  0.00    +0.000 C 
ATOM     17  C   UNL     1      38.435   2.282  11.252  0.00  0.00    +0.000 C 
BRANCH  17  18
ATOM     18  C   UNL     1      37.537   1.009  10.847  0.00  0.00    +0.000 C 
ATOM     19  O   UNL     1      36.736   0.634  11.873  0.00  0.00    +0.000 OA
ENDBRANCH  17  18
ENDBRANCH   3  11
BRANCH   6  20
ATOM     20  O   UNL     1      35.738  -0.170  16.364  0.00  0.00    +0.000 OA
BRANCH  20  21
ATOM     21  C   UNL     1      35.813  -0.896  17.578  0.00  0.00    +0.000 C 
BRANCH  21  22
ATOM     22  C   UNL     1      36.807  -1.980  17.366  0.00  0.00    +0.000 A 
ATOM     23  C   UNL     1      36.514  -2.933  16.418  0.00  0.00    +0.000 A 
ATOM     24  C   UNL     1      37.392  -3.988  16.151  0.00  0.00    +0.000 A 
ATOM     25  C   UNL     1      38.574  -4.096  16.837  0.00  0.00    +0.000 A 
ATOM     26  C   UNL     1      38.850  -3.133  17.783  0.00  0.00    +0.000 A 
ATOM     27  C   UNL     1      37.988  -2.088  18.051  0.00  0.00    +0.000 A 
ENDBRANCH  21  22
ENDBRANCH  20  21
ENDBRANCH   6  20
BRANCH  10  28
ATOM     28  C   UNL     1      38.566   5.807  15.881  0.00  0.00    +0.000 C 
BRANCH  28  29
ATOM     29  C   UNL     1      39.388   5.975  17.101  0.00  0.00    +0.000 A 
ATOM     30  C   UNL     1      40.735   6.271  16.904  0.00  0.00    +0.000 A 
ATOM     31  C   UNL     1      41.592   6.447  17.976  0.00  0.00    +0.000 A 
ATOM     32  C   UNL     1      41.123   6.332  19.256  0.00  0.00    +0.000 A 
ATOM     33  C   UNL     1      39.786   6.039  19.423  0.00  0.00    +0.000 A 
ATOM     34  C   UNL     1      38.911   5.858  18.373  0.00  0.00    +0.000 A 
ENDBRANCH  28  29
ENDBRANCH  10  28
TORSDOF 7
ENDMDL
