MODEL 1
REMARK VINA RESULT:      -7.7      0.000      0.000
REMARK  Name = 
REMARK  3 active torsions:
REMARK  status: ('A' for Active; 'I' for Inactive)
REMARK    1  A    between atoms: C_2  and  C_4
REMARK    2  A    between atoms: C_9  and  N_10
REMARK    3  A    between atoms: C_11  and  C_13
REMARK                            x       y       z     vdW  Elec       q    Type
REMARK                         _______ _______ _______ _____ _____    ______ ____
ROOT
ATOM      1  N   UNL     1      15.126  11.623  34.920  0.00  0.00    +0.000 NA
ATOM      2  C   UNL     1      16.213  11.930  35.780  0.00  0.00    +0.000 C 
ATOM      3  O   UNL     1      16.591  13.141  35.877  0.00  0.00    +0.000 OA
ENDROOT
BRANCH   2   4
ATOM      4  C   UNL     1      16.925  10.947  36.560  0.00  0.00    +0.000 A 
ATOM      5  C   UNL     1      16.781  10.837  37.925  0.00  0.00    +0.000 A 
ATOM      6  C   UNL     1      17.447   9.911  38.694  0.00  0.00    +0.000 A 
ATOM      7  C   UNL     1      18.313   9.029  38.100  0.00  0.00    +0.000 A 
ATOM      8  C   UNL     1      18.484   9.107  36.740  0.00  0.00    +0.000 A 
ATOM      9  C   UNL     1      17.797  10.056  35.977  0.00  0.00    +0.000 A 
ATOM     10  N   UNL     1      18.035  10.065  34.580  0.00  0.00    +0.000 NA
ENDBRANCH   2   4
BRANCH   1  16
ATOM     11  C   UNL     1      14.613  12.831  32.830  0.00  0.00    +0.000 A 
ATOM     12  C   UNL     1      14.017  13.881  32.171  0.00  0.00    +0.000 A 
ATOM     13  C   UNL     1      13.304  14.844  32.842  0.00  0.00    +0.000 A 
ATOM     14  C   UNL     1      13.193  14.742  34.205  0.00  0.00    +0.000 A 
ATOM     15  C   UNL     1      13.796  13.687  34.843  0.00  0.00    +0.000 A 
ATOM     16  C   UNL     1      14.521  12.697  34.213  0.00  0.00    +0.000 A 
BRANCH  11  18
ATOM     17  C   UNL     1      14.412  10.772  31.584  0.00  0.00    +0.000 C 
ATOM     18  C   UNL     1      15.390  11.778  32.116  0.00  0.00    +0.000 C 
ATOM     19  C   UNL     1      16.239  12.395  31.035  0.00  0.00    +0.000 C 
ENDBRANCH  11  18
ENDBRANCH   1  16
TORSDOF 3
ENDMDL
MODEL 2
REMARK VINA RESULT:      -7.0      1.619      6.268
REMARK  Name = 
REMARK  3 active torsions:
REMARK  status: ('A' for Active; 'I' for Inactive)
REMARK    1  A    between atoms: C_2  and  C_4
REMARK    2  A    between atoms: C_9  and  N_10
REMARK    3  A    between atoms: C_11  and  C_13
REMARK                            x       y       z     vdW  Elec       q    Type
REMARK                         _______ _______ _______ _____ _____    ______ ____
ROOT
ATOM      1  N   UNL     1      15.714  10.556  34.453  0.00  0.00    +0.000 NA
ATOM      2  C   UNL     1      16.095  11.669  33.659  0.00  0.00    +0.000 C 
ATOM      3  O   UNL     1      17.242  12.186  33.841  0.00  0.00    +0.000 OA
ENDROOT
BRANCH   2   4
ATOM      4  C   UNL     1      15.254  12.259  32.644  0.00  0.00    +0.000 A 
ATOM      5  C   UNL     1      14.425  13.328  32.898  0.00  0.00    +0.000 A 
ATOM      6  C   UNL     1      13.613  13.910  31.952  0.00  0.00    +0.000 A 
ATOM      7  C   UNL     1      13.604  13.423  30.670  0.00  0.00    +0.000 A 
ATOM      8  C   UNL     1      14.417  12.356  30.377  0.00  0.00    +0.000 A 
ATOM      9  C   UNL     1      15.235  11.779  31.354  0.00  0.00    +0.000 A 
ATOM     10  N   UNL     1      16.042  10.682  30.964  0.00  0.00    +0.000 NA
ENDBRANCH   2   4
BRANCH   1  16
ATOM     11  C   UNL     1      16.612  10.474  36.750  0.00  0.00    +0.000 A 
ATOM     12  C   UNL     1      17.528   9.999  37.660  0.00  0.00    +0.000 A 
ATOM     13  C   UNL     1      18.519   9.121  37.298  0.00  0.00    +0.000 A 
ATOM     14  C   UNL     1      18.584   8.716  35.989  0.00  0.00    +0.000 A 
ATOM     15  C   UNL     1      17.660   9.201  35.097  0.00  0.00    +0.000 A 
ATOM     16  C   UNL     1      16.648  10.084  35.415  0.00  0.00    +0.000 A 
BRANCH  11  18
ATOM     17  C   UNL     1      14.998  11.005  38.467  0.00  0.00    +0.000 C 
ATOM     18  C   UNL     1      15.530  11.426  37.130  0.00  0.00    +0.000 C 
ATOM     19  C   UNL     1      16.052  12.840  37.128  0.00  0.00    +0.000 C 
ENDBRANCH  11  18
ENDBRANCH   1  16
TORSDOF 3
ENDMDL
MODEL 3
REMARK VINA RESULT:      -6.7      1.779      3.344
REMARK  Name = 
REMARK  3 active torsions:
REMARK  status: ('A' for Active; 'I' for Inactive)
REMARK    1  A    between atoms: C_2  and  C_4
REMARK    2  A    between atoms: C_9  and  N_10
REMARK    3  A    between atoms: C_11  and  C_13
REMARK                            x       y       z     vdW  Elec       q    Type
REMARK                         _______ _______ _______ _____ _____    ______ ____
ROOT
ATOM      1  N   UNL     1      17.123  11.509  34.901  0.00  0.00    +0.000 NA
ATOM      2  C   UNL     1      17.391  10.272  35.545  0.00  0.00    +0.000 C 
ATOM      3  O   UNL     1      16.897   9.208  35.054  0.00  0.00    +0.000 OA
ENDROOT
BRANCH   2   4
ATOM      4  C   UNL     1      18.199  10.143  36.734  0.00  0.00    +0.000 A 
ATOM      5  C   UNL     1      19.541   9.836  36.690  0.00  0.00    +0.000 A 
ATOM      6  C   UNL     1      20.334   9.706  37.805  0.00  0.00    +0.000 A 
ATOM      7  C   UNL     1      19.791   9.885  39.051  0.00  0.00    +0.000 A 
ATOM      8  C   UNL     1      18.456  10.192  39.139  0.00  0.00    +0.000 A 
ATOM      9  C   UNL     1      17.667  10.320  37.991  0.00  0.00    +0.000 A 
ATOM     10  N   UNL     1      16.298  10.639  38.173  0.00  0.00    +0.000 NA
ENDBRANCH   2   4
BRANCH   1  16
ATOM     11  C   UNL     1      15.076  12.126  33.667  0.00  0.00    +0.000 A 
ATOM     12  C   UNL     1      14.310  12.084  32.526  0.00  0.00    +0.000 A 
ATOM     13  C   UNL     1      14.719  11.407  31.404  0.00  0.00    +0.000 A 
ATOM     14  C   UNL     1      15.929  10.761  31.438  0.00  0.00    +0.000 A 
ATOM     15  C   UNL     1      16.679  10.816  32.586  0.00  0.00    +0.000 A 
ATOM     16  C   UNL     1      16.308  11.482  33.736  0.00  0.00    +0.000 A 
BRANCH  11  18
ATOM     17  C   UNL     1      13.726  13.962  34.465  0.00  0.00    +0.000 C 
ATOM     18  C   UNL     1      14.645  12.857  34.893  0.00  0.00    +0.000 C 
ATOM     19  C   UNL     1      14.001  11.907  35.869  0.00  0.00    +0.000 C 
ENDBRANCH  11  18
ENDBRANCH   1  16
TORSDOF 3
ENDMDL
MODEL 4
REMARK VINA RESULT:      -6.3     21.444     23.393
REMARK  Name = 
REMARK  3 active torsions:
REMARK  status: ('A' for Active; 'I' for Inactive)
REMARK    1  A    between atoms: C_2  and  C_4
REMARK    2  A    between atoms: C_9  and  N_10
REMARK    3  A    between atoms: C_11  and  C_13
REMARK                            x       y       z     vdW  Elec       q    Type
REMARK                         _______ _______ _______ _____ _____    ______ ____
ROOT
ATOM      1  N   UNL     1      22.194  -6.723  23.759  0.00  0.00    +0.000 NA
ATOM      2  C   UNL     1      21.666  -7.209  24.983  0.00  0.00    +0.000 C 
ATOM      3  O   UNL     1      22.331  -8.076  25.634  0.00  0.00    +0.000 OA
ENDROOT
BRANCH   2   4
ATOM      4  C   UNL     1      20.408  -6.777  25.545  0.00  0.00    +0.000 A 
ATOM      5  C   UNL     1      20.180  -5.478  25.942  0.00  0.00    +0.000 A 
ATOM      6  C   UNL     1      18.993  -5.039  26.481  0.00  0.00    +0.000 A 
ATOM      7  C   UNL     1      17.954  -5.918  26.646  0.00  0.00    +0.000 A 
ATOM      8  C   UNL     1      18.141  -7.223  26.262  0.00  0.00    +0.000 A 
ATOM      9  C   UNL     1      19.357  -7.649  25.716  0.00  0.00    +0.000 A 
ATOM     10  N   UNL     1      19.463  -9.013  25.348  0.00  0.00    +0.000 NA
ENDBRANCH   2   4
BRANCH   1  16
ATOM     11  C   UNL     1      23.552  -8.279  22.408  0.00  0.00    +0.000 A 
ATOM     12  C   UNL     1      24.778  -8.761  22.010  0.00  0.00    +0.000 A 
ATOM     13  C   UNL     1      25.952  -8.244  22.500  0.00  0.00    +0.000 A 
ATOM     14  C   UNL     1      25.883  -7.221  23.409  0.00  0.00    +0.000 A 
ATOM     15  C   UNL     1      24.650  -6.754  23.794  0.00  0.00    +0.000 A 
ATOM     16  C   UNL     1      23.446  -7.242  23.330  0.00  0.00    +0.000 A 
BRANCH  11  18
ATOM     17  C   UNL     1      22.096  -8.328  20.482  0.00  0.00    +0.000 C 
ATOM     18  C   UNL     1      22.269  -8.830  21.885  0.00  0.00    +0.000 C 
ATOM     19  C   UNL     1      22.271 -10.334  21.971  0.00  0.00    +0.000 C 
ENDBRANCH  11  18
ENDBRANCH   1  16
TORSDOF 3
ENDMDL
MODEL 5
REMARK VINA RESULT:      -6.1      3.380      5.585
REMARK  Name = 
REMARK  3 active torsions:
REMARK  status: ('A' for Active; 'I' for Inactive)
REMARK    1  A    between atoms: C_2  and  C_4
REMARK    2  A    between atoms: C_9  and  N_10
REMARK    3  A    between atoms: C_11  and  C_13
REMARK                            x       y       z     vdW  Elec       q    Type
REMARK                         _______ _______ _______ _____ _____    ______ ____
ROOT
ATOM      1  N   UNL     1      18.994   9.364  37.649  0.00  0.00    +0.000 NA
ATOM      2  C   UNL     1      20.104  10.230  37.829  0.00  0.00    +0.000 C 
ATOM      3  O   UNL     1      19.888  11.436  38.170  0.00  0.00    +0.000 OA
ENDROOT
BRANCH   2   4
ATOM      4  C   UNL     1      21.478   9.826  37.649  0.00  0.00    +0.000 A 
ATOM      5  C   UNL     1      22.116   9.888  36.430  0.00  0.00    +0.000 A 
ATOM      6  C   UNL     1      23.423   9.510  36.228  0.00  0.00    +0.000 A 
ATOM      7  C   UNL     1      24.165   9.039  37.281  0.00  0.00    +0.000 A 
ATOM      8  C   UNL     1      23.565   8.961  38.513  0.00  0.00    +0.000 A 
ATOM      9  C   UNL     1      22.234   9.351  38.696  0.00  0.00    +0.000 A 
ATOM     10  N   UNL     1      21.695   9.237  40.001  0.00  0.00    +0.000 NA
ENDBRANCH   2   4
BRANCH   1  16
ATOM     11  C   UNL     1      16.943  10.472  36.838  0.00  0.00    +0.000 A 
ATOM     12  C   UNL     1      15.689  10.985  37.073  0.00  0.00    +0.000 A 
ATOM     13  C   UNL     1      15.120  10.963  38.322  0.00  0.00    +0.000 A 
ATOM     14  C   UNL     1      15.835  10.409  39.353  0.00  0.00    +0.000 A 
ATOM     15  C   UNL     1      17.085   9.902  39.098  0.00  0.00    +0.000 A 
ATOM     16  C   UNL     1      17.696   9.903  37.861  0.00  0.00    +0.000 A 
BRANCH  11  18
ATOM     17  C   UNL     1      17.449   9.111  34.908  0.00  0.00    +0.000 C 
ATOM     18  C   UNL     1      17.573  10.489  35.487  0.00  0.00    +0.000 C 
ATOM     19  C   UNL     1      16.934  11.545  34.624  0.00  0.00    +0.000 C 
ENDBRANCH  11  18
ENDBRANCH   1  16
TORSDOF 3
ENDMDL
MODEL 6
REMARK VINA RESULT:      -6.1      4.247      6.865
REMARK  Name = 
REMARK  3 active torsions:
REMARK  status: ('A' for Active; 'I' for Inactive)
REMARK    1  A    between atoms: C_2  and  C_4
REMARK    2  A    between atoms: C_9  and  N_10
REMARK    3  A    between atoms: C_11  and  C_13
REMARK                            x       y       z     vdW  Elec       q    Type
REMARK                         _______ _______ _______ _____ _____    ______ ____
ROOT
ATOM      1  N   UNL     1      20.058  10.910  38.113  0.00  0.00    +0.000 NA
ATOM      2  C   UNL     1      20.740  10.082  37.184  0.00  0.00    +0.000 C 
ATOM      3  O   UNL     1      20.058   9.420  36.339  0.00  0.00    +0.000 OA
ENDROOT
BRANCH   2   4
ATOM      4  C   UNL     1      22.176   9.939  37.135  0.00  0.00    +0.000 A 
ATOM      5  C   UNL     1      22.927  10.361  36.061  0.00  0.00    +0.000 A 
ATOM      6  C   UNL     1      24.295  10.238  35.987  0.00  0.00    +0.000 A 
ATOM      7  C   UNL     1      24.984   9.667  37.026  0.00  0.00    +0.000 A 
ATOM      8  C   UNL     1      24.272   9.233  38.116  0.00  0.00    +0.000 A 
ATOM      9  C   UNL     1      22.881   9.368  38.171  0.00  0.00    +0.000 A 
ATOM     10  N   UNL     1      22.225   8.893  39.333  0.00  0.00    +0.000 NA
ENDBRANCH   2   4
BRANCH   1  16
ATOM     11  C   UNL     1      17.825  10.209  38.894  0.00  0.00    +0.000 A 
ATOM     12  C   UNL     1      16.453  10.268  38.804  0.00  0.00    +0.000 A 
ATOM     13  C   UNL     1      15.823  11.056  37.872  0.00  0.00    +0.000 A 
ATOM     14  C   UNL     1      16.596  11.798  37.017  0.00  0.00    +0.000 A 
ATOM     15  C   UNL     1      17.963  11.726  37.124  0.00  0.00    +0.000 A 
ATOM     16  C   UNL     1      18.639  10.949  38.042  0.00  0.00    +0.000 A 
BRANCH  11  18
ATOM     17  C   UNL     1      17.786   9.492  41.200  0.00  0.00    +0.000 C 
ATOM     18  C   UNL     1      18.523   9.359  39.900  0.00  0.00    +0.000 C 
ATOM     19  C   UNL     1      18.603   7.934  39.417  0.00  0.00    +0.000 C 
ENDBRANCH  11  18
ENDBRANCH   1  16
TORSDOF 3
ENDMDL
MODEL 7
REMARK VINA RESULT:      -6.1     21.562     23.668
REMARK  Name = 
REMARK  3 active torsions:
REMARK  status: ('A' for Active; 'I' for Inactive)
REMARK    1  A    between atoms: C_2  and  C_4
REMARK    2  A    between atoms: C_9  and  N_10
REMARK    3  A    between atoms: C_11  and  C_13
REMARK                            x       y       z     vdW  Elec       q    Type
REMARK                         _______ _______ _______ _____ _____    ______ ____
ROOT
ATOM      1  N   UNL     1      22.309  -8.362  25.681  0.00  0.00    +0.000 NA
ATOM      2  C   UNL     1      20.956  -8.228  25.275  0.00  0.00    +0.000 C 
ATOM      3  O   UNL     1      20.532  -8.947  24.315  0.00  0.00    +0.000 OA
ENDROOT
BRANCH   2   4
ATOM      4  C   UNL     1      20.018  -7.318  25.888  0.00  0.00    +0.000 A 
ATOM      5  C   UNL     1      20.066  -5.956  25.688  0.00  0.00    +0.000 A 
ATOM      6  C   UNL     1      19.187  -5.066  26.259  0.00  0.00    +0.000 A 
ATOM      7  C   UNL     1      18.190  -5.526  27.081  0.00  0.00    +0.000 A 
ATOM      8  C   UNL     1      18.108  -6.878  27.306  0.00  0.00    +0.000 A 
ATOM      9  C   UNL     1      19.013  -7.766  26.715  0.00  0.00    +0.000 A 
ATOM     10  N   UNL     1      18.855  -9.145  27.002  0.00  0.00    +0.000 NA
ENDBRANCH   2   4
BRANCH   1  16
ATOM     11  C   UNL     1      23.894  -8.949  23.883  0.00  0.00    +0.000 A 
ATOM     12  C   UNL     1      24.668  -9.878  23.226  0.00  0.00    +0.000 A 
ATOM     13  C   UNL     1      24.710 -11.192  23.621  0.00  0.00    +0.000 A 
ATOM     14  C   UNL     1      23.956 -11.572  24.701  0.00  0.00    +0.000 A 
ATOM     15  C   UNL     1      23.191 -10.630  25.343  0.00  0.00    +0.000 A 
ATOM     16  C   UNL     1      23.117  -9.300  24.982  0.00  0.00    +0.000 A 
BRANCH  11  18
ATOM     17  C   UNL     1      25.248  -7.022  23.346  0.00  0.00    +0.000 C 
ATOM     18  C   UNL     1      23.838  -7.518  23.466  0.00  0.00    +0.000 C 
ATOM     19  C   UNL     1      23.059  -7.377  22.184  0.00  0.00    +0.000 C 
ENDBRANCH  11  18
ENDBRANCH   1  16
TORSDOF 3
ENDMDL
MODEL 8
REMARK VINA RESULT:      -6.0     16.976     19.244
REMARK  Name = 
REMARK  3 active torsions:
REMARK  status: ('A' for Active; 'I' for Inactive)
REMARK    1  A    between atoms: C_2  and  C_4
REMARK    2  A    between atoms: C_9  and  N_10
REMARK    3  A    between atoms: C_11  and  C_13
REMARK                            x       y       z     vdW  Elec       q    Type
REMARK                         _______ _______ _______ _____ _____    ______ ____
ROOT
ATOM      1  N   UNL     1      28.344  22.374  27.135  0.00  0.00    +0.000 NA
ATOM      2  C   UNL     1      28.019  23.527  26.374  0.00  0.00    +0.000 C 
ATOM      3  O   UNL     1      28.295  24.673  26.853  0.00  0.00    +0.000 OA
ENDROOT
BRANCH   2   4
ATOM      4  C   UNL     1      27.389  23.483  25.076  0.00  0.00    +0.000 A 
ATOM      5  C   UNL     1      26.034  23.301  24.915  0.00  0.00    +0.000 A 
ATOM      6  C   UNL     1      25.407  23.255  23.691  0.00  0.00    +0.000 A 
ATOM      7  C   UNL     1      26.143  23.395  22.543  0.00  0.00    +0.000 A 
ATOM      8  C   UNL     1      27.499  23.578  22.661  0.00  0.00    +0.000 A 
ATOM      9  C   UNL     1      28.116  23.622  23.915  0.00  0.00    +0.000 A 
ATOM     10  N   UNL     1      29.520  23.815  23.944  0.00  0.00    +0.000 NA
ENDBRANCH   2   4
BRANCH   1  16
ATOM     11  C   UNL     1      28.238  22.646  29.586  0.00  0.00    +0.000 A 
ATOM     12  C   UNL     1      28.864  22.837  30.796  0.00  0.00    +0.000 A 
ATOM     13  C   UNL     1      30.227  22.966  30.893  0.00  0.00    +0.000 A 
ATOM     14  C   UNL     1      30.971  22.898  29.743  0.00  0.00    +0.000 A 
ATOM     15  C   UNL     1      30.328  22.706  28.546  0.00  0.00    +0.000 A 
ATOM     16  C   UNL     1      28.962  22.573  28.400  0.00  0.00    +0.000 A 
BRANCH  11  18
ATOM     17  C   UNL     1      26.309  21.514  30.498  0.00  0.00    +0.000 C 
ATOM     18  C   UNL     1      26.759  22.505  29.465  0.00  0.00    +0.000 C 
ATOM     19  C   UNL     1      26.091  23.847  29.614  0.00  0.00    +0.000 C 
ENDBRANCH  11  18
ENDBRANCH   1  16
TORSDOF 3
ENDMDL
MODEL 9
REMARK VINA RESULT:      -5.9     17.825     19.637
REMARK  Name = 
REMARK  3 active torsions:
REMARK  status: ('A' for Active; 'I' for Inactive)
REMARK    1  A    between atoms: C_2  and  C_4
REMARK    2  A    between atoms: C_9  and  N_10
REMARK    3  A    between atoms: C_11  and  C_13
REMARK                            x       y       z     vdW  Elec       q    Type
REMARK                         _______ _______ _______ _____ _____    ______ ____
ROOT
ATOM      1  N   UNL     1      28.026  24.670  25.832  0.00  0.00    +0.000 NA
ATOM      2  C   UNL     1      27.359  23.535  26.362  0.00  0.00    +0.000 C 
ATOM      3  O   UNL     1      26.979  22.621  25.563  0.00  0.00    +0.000 OA
ENDROOT
BRANCH   2   4
ATOM      4  C   UNL     1      27.080  23.348  27.766  0.00  0.00    +0.000 A 
ATOM      5  C   UNL     1      27.769  22.446  28.546  0.00  0.00    +0.000 A 
ATOM      6  C   UNL     1      27.525  22.247  29.884  0.00  0.00    +0.000 A 
ATOM      7  C   UNL     1      26.545  22.971  30.512  0.00  0.00    +0.000 A 
ATOM      8  C   UNL     1      25.833  23.880  29.769  0.00  0.00    +0.000 A 
ATOM      9  C   UNL     1      26.098  24.067  28.409  0.00  0.00    +0.000 A 
ATOM     10  N   UNL     1      25.316  25.026  27.718  0.00  0.00    +0.000 NA
ENDBRANCH   2   4
BRANCH   1  16
ATOM     11  C   UNL     1      29.415  24.302  23.825  0.00  0.00    +0.000 A 
ATOM     12  C   UNL     1      29.584  24.357  22.461  0.00  0.00    +0.000 A 
ATOM     13  C   UNL     1      28.596  24.823  21.628  0.00  0.00    +0.000 A 
ATOM     14  C   UNL     1      27.416  25.239  22.187  0.00  0.00    +0.000 A 
ATOM     15  C   UNL     1      27.267  25.176  23.551  0.00  0.00    +0.000 A 
ATOM     16  C   UNL     1      28.230  24.717  24.426  0.00  0.00    +0.000 A 
BRANCH  11  18
ATOM     17  C   UNL     1      30.476  22.301  24.664  0.00  0.00    +0.000 C 
ATOM     18  C   UNL     1      30.478  23.799  24.741  0.00  0.00    +0.000 C 
ATOM     19  C   UNL     1      31.811  24.400  24.378  0.00  0.00    +0.000 C 
ENDBRANCH  11  18
ENDBRANCH   1  16
TORSDOF 3
ENDMDL
MODEL 10
REMARK VINA RESULT:      -5.9     21.100     22.950
REMARK  Name = 
REMARK  3 active torsions:
REMARK  status: ('A' for Active; 'I' for Inactive)
REMARK    1  A    between atoms: C_2  and  C_4
REMARK    2  A    between atoms: C_9  and  N_10
REMARK    3  A    between atoms: C_11  and  C_13
REMARK                            x       y       z     vdW  Elec       q    Type
REMARK                         _______ _______ _______ _____ _____    ______ ____
ROOT
ATOM      1  N   UNL     1      21.767  -7.585  25.394  0.00  0.00    +0.000 NA
ATOM      2  C   UNL     1      22.362  -6.962  24.266  0.00  0.00    +0.000 C 
ATOM      3  O   UNL     1      21.790  -5.946  23.757  0.00  0.00    +0.000 OA
ENDROOT
BRANCH   2   4
ATOM      4  C   UNL     1      23.590  -7.410  23.653  0.00  0.00    +0.000 A 
ATOM      5  C   UNL     1      24.790  -6.760  23.836  0.00  0.00    +0.000 A 
ATOM      6  C   UNL     1      25.975  -7.164  23.265  0.00  0.00    +0.000 A 
ATOM      7  C   UNL     1      25.999  -8.274  22.461  0.00  0.00    +0.000 A 
ATOM      8  C   UNL     1      24.822  -8.950  22.253  0.00  0.00    +0.000 A 
ATOM      9  C   UNL     1      23.629  -8.522  22.844  0.00  0.00    +0.000 A 
ATOM     10  N   UNL     1      22.461  -9.279  22.575  0.00  0.00    +0.000 NA
ENDBRANCH   2   4
BRANCH   1  16
ATOM     11  C   UNL     1      19.570  -7.805  26.498  0.00  0.00    +0.000 A 
ATOM     12  C   UNL     1      18.407  -7.243  26.968  0.00  0.00    +0.000 A 
ATOM     13  C   UNL     1      18.159  -5.896  26.860  0.00  0.00    +0.000 A 
ATOM     14  C   UNL     1      19.108  -5.105  26.265  0.00  0.00    +0.000 A 
ATOM     15  C   UNL     1      20.262  -5.686  25.802  0.00  0.00    +0.000 A 
ATOM     16  C   UNL     1      20.554  -7.032  25.888  0.00  0.00    +0.000 A 
BRANCH  11  18
ATOM     17  C   UNL     1      20.012  -9.590  28.064  0.00  0.00    +0.000 C 
ATOM     18  C   UNL     1      19.853  -9.265  26.608  0.00  0.00    +0.000 C 
ATOM     19  C   UNL     1      18.758 -10.062  25.948  0.00  0.00    +0.000 C 
ENDBRANCH  11  18
ENDBRANCH   1  16
TORSDOF 3
ENDMDL
