MODEL 1
REMARK VINA RESULT:      -8.0      0.000      0.000
REMARK  Name = 
REMARK  3 active torsions:
REMARK  status: ('A' for Active; 'I' for Inactive)
REMARK    1  A    between atoms: C_5  and  N_6
REMARK    2  A    between atoms: C_7  and  C_9
REMARK    3  A    between atoms: C_15  and  N_16
REMARK                            x       y       z     vdW  Elec       q    Type
REMARK                         _______ _______ _______ _____ _____    ______ ____
ROOT
ATOM      1  N   UNL     1      16.294  11.978  35.913  0.00  0.00    +0.000 NA
ATOM      2  C   UNL     1      14.950  11.986  35.485  0.00  0.00    +0.000 C 
ATOM      3  O   UNL     1      14.184  11.083  35.923  0.00  0.00    +0.000 OA
ENDROOT
BRANCH   1   8
ATOM      4  C   UNL     1      18.828   8.275  39.480  0.00  0.00    +0.000 C 
ATOM      5  C   UNL     1      18.157   9.232  38.575  0.00  0.00    +0.000 A 
ATOM      6  C   UNL     1      18.646   9.477  37.304  0.00  0.00    +0.000 A 
ATOM      7  C   UNL     1      18.014  10.360  36.472  0.00  0.00    +0.000 A 
ATOM      8  C   UNL     1      16.880  11.050  36.808  0.00  0.00    +0.000 A 
ATOM      9  C   UNL     1      16.381  10.810  38.083  0.00  0.00    +0.000 A 
ATOM     10  C   UNL     1      17.015   9.908  38.957  0.00  0.00    +0.000 A 
ATOM     11  C   UNL     1      16.465   9.695  40.316  0.00  0.00    +0.000 C 
ENDBRANCH   1   8
BRANCH   2  12
ATOM     12  C   UNL     1      14.419  12.983  34.560  0.00  0.00    +0.000 A 
ATOM     13  C   UNL     1      13.726  14.105  34.926  0.00  0.00    +0.000 A 
ATOM     14  C   UNL     1      13.178  14.985  34.008  0.00  0.00    +0.000 A 
ATOM     15  C   UNL     1      13.355  14.697  32.678  0.00  0.00    +0.000 A 
ATOM     16  C   UNL     1      14.039  13.594  32.234  0.00  0.00    +0.000 A 
ATOM     17  C   UNL     1      14.168  13.393  30.793  0.00  0.00    +0.000 C 
ATOM     18  C   UNL     1      14.572  12.740  33.188  0.00  0.00    +0.000 A 
BRANCH  18  19
ATOM     19  N   UNL     1      15.321  11.619  32.793  0.00  0.00    +0.000 N 
ATOM     20  O   UNL     1      16.532  11.688  32.605  0.00  0.00    +0.000 OA
ATOM     21  O   UNL     1      14.692  10.386  32.622  0.00  0.00    +0.000 OA
ENDBRANCH  18  19
ENDBRANCH   2  12
TORSDOF 3
ENDMDL
MODEL 2
REMARK VINA RESULT:      -7.7      2.093      6.787
REMARK  Name = 
REMARK  3 active torsions:
REMARK  status: ('A' for Active; 'I' for Inactive)
REMARK    1  A    between atoms: C_5  and  N_6
REMARK    2  A    between atoms: C_7  and  C_9
REMARK    3  A    between atoms: C_15  and  N_16
REMARK                            x       y       z     vdW  Elec       q    Type
REMARK                         _______ _______ _______ _____ _____    ______ ____
ROOT
ATOM      1  N   UNL     1      15.117  11.230  35.176  0.00  0.00    +0.000 NA
ATOM      2  C   UNL     1      15.489  11.808  36.407  0.00  0.00    +0.000 C 
ATOM      3  O   UNL     1      15.992  12.966  36.390  0.00  0.00    +0.000 OA
ENDROOT
BRANCH   1   8
ATOM      4  C   UNL     1      15.662  13.497  29.939  0.00  0.00    +0.000 C 
ATOM      5  C   UNL     1      15.506  12.929  31.295  0.00  0.00    +0.000 A 
ATOM      6  C   UNL     1      16.319  11.899  31.737  0.00  0.00    +0.000 A 
ATOM      7  C   UNL     1      16.171  11.385  32.996  0.00  0.00    +0.000 A 
ATOM      8  C   UNL     1      15.244  11.829  33.899  0.00  0.00    +0.000 A 
ATOM      9  C   UNL     1      14.422  12.864  33.465  0.00  0.00    +0.000 A 
ATOM     10  C   UNL     1      14.554  13.407  32.174  0.00  0.00    +0.000 A 
ATOM     11  C   UNL     1      13.647  14.495  31.741  0.00  0.00    +0.000 C 
ENDBRANCH   1   8
BRANCH   2  12
ATOM     12  C   UNL     1      15.322  11.124  37.686  0.00  0.00    +0.000 A 
ATOM     13  C   UNL     1      14.163  11.086  38.413  0.00  0.00    +0.000 A 
ATOM     14  C   UNL     1      14.072  10.486  39.657  0.00  0.00    +0.000 A 
ATOM     15  C   UNL     1      15.211   9.907  40.160  0.00  0.00    +0.000 A 
ATOM     16  C   UNL     1      16.409   9.903  39.491  0.00  0.00    +0.000 A 
ATOM     17  C   UNL     1      17.553   9.252  40.124  0.00  0.00    +0.000 C 
ATOM     18  C   UNL     1      16.453  10.515  38.248  0.00  0.00    +0.000 A 
BRANCH  18  19
ATOM     19  N   UNL     1      17.641  10.502  37.496  0.00  0.00    +0.000 N 
ATOM     20  O   UNL     1      17.852   9.646  36.642  0.00  0.00    +0.000 OA
ATOM     21  O   UNL     1      18.606  11.488  37.701  0.00  0.00    +0.000 OA
ENDBRANCH  18  19
ENDBRANCH   2  12
TORSDOF 3
ENDMDL
MODEL 3
REMARK VINA RESULT:      -6.9      1.773      2.763
REMARK  Name = 
REMARK  3 active torsions:
REMARK  status: ('A' for Active; 'I' for Inactive)
REMARK    1  A    between atoms: C_5  and  N_6
REMARK    2  A    between atoms: C_7  and  C_9
REMARK    3  A    between atoms: C_15  and  N_16
REMARK                            x       y       z     vdW  Elec       q    Type
REMARK                         _______ _______ _______ _____ _____    ______ ____
ROOT
ATOM      1  N   UNL     1      17.543  10.965  35.794  0.00  0.00    +0.000 NA
ATOM      2  C   UNL     1      16.781  10.265  34.835  0.00  0.00    +0.000 C 
ATOM      3  O   UNL     1      16.599   9.028  35.011  0.00  0.00    +0.000 OA
ENDROOT
BRANCH   1   8
ATOM      4  C   UNL     1      20.054   8.832  40.484  0.00  0.00    +0.000 C 
ATOM      5  C   UNL     1      19.385   9.380  39.285  0.00  0.00    +0.000 A 
ATOM      6  C   UNL     1      20.087   9.596  38.112  0.00  0.00    +0.000 A 
ATOM      7  C   UNL     1      19.458  10.097  37.005  0.00  0.00    +0.000 A 
ATOM      8  C   UNL     1      18.127  10.415  36.960  0.00  0.00    +0.000 A 
ATOM      9  C   UNL     1      17.414  10.201  38.135  0.00  0.00    +0.000 A 
ATOM     10  C   UNL     1      18.040   9.688  39.285  0.00  0.00    +0.000 A 
ATOM     11  C   UNL     1      17.250   9.493  40.523  0.00  0.00    +0.000 C 
ENDBRANCH   1   8
BRANCH   2  12
ATOM     12  C   UNL     1      16.208  10.908  33.656  0.00  0.00    +0.000 A 
ATOM     13  C   UNL     1      16.539  10.614  32.360  0.00  0.00    +0.000 A 
ATOM     14  C   UNL     1      16.022  11.301  31.276  0.00  0.00    +0.000 A 
ATOM     15  C   UNL     1      15.137  12.316  31.539  0.00  0.00    +0.000 A 
ATOM     16  C   UNL     1      14.754  12.668  32.809  0.00  0.00    +0.000 A 
ATOM     17  C   UNL     1      13.801  13.764  32.967  0.00  0.00    +0.000 C 
ATOM     18  C   UNL     1      15.297  11.953  33.865  0.00  0.00    +0.000 A 
BRANCH  18  19
ATOM     19  N   UNL     1      14.909  12.237  35.186  0.00  0.00    +0.000 N 
ATOM     20  O   UNL     1      14.029  11.594  35.750  0.00  0.00    +0.000 OA
ATOM     21  O   UNL     1      15.540  13.262  35.891  0.00  0.00    +0.000 OA
ENDBRANCH  18  19
ENDBRANCH   2  12
TORSDOF 3
ENDMDL
MODEL 4
REMARK VINA RESULT:      -6.8      2.699      7.188
REMARK  Name = 
REMARK  3 active torsions:
REMARK  status: ('A' for Active; 'I' for Inactive)
REMARK    1  A    between atoms: C_5  and  N_6
REMARK    2  A    between atoms: C_7  and  C_9
REMARK    3  A    between atoms: C_15  and  N_16
REMARK                            x       y       z     vdW  Elec       q    Type
REMARK                         _______ _______ _______ _____ _____    ______ ____
ROOT
ATOM      1  N   UNL     1      16.694  10.286  36.048  0.00  0.00    +0.000 NA
ATOM      2  C   UNL     1      17.186  10.989  37.167  0.00  0.00    +0.000 C 
ATOM      3  O   UNL     1      17.361  12.235  37.054  0.00  0.00    +0.000 OA
ENDROOT
BRANCH   1   8
ATOM      4  C   UNL     1      15.359  12.384  30.884  0.00  0.00    +0.000 C 
ATOM      5  C   UNL     1      15.690  11.859  32.226  0.00  0.00    +0.000 A 
ATOM      6  C   UNL     1      16.643  10.868  32.391  0.00  0.00    +0.000 A 
ATOM      7  C   UNL     1      16.946  10.394  33.638  0.00  0.00    +0.000 A 
ATOM      8  C   UNL     1      16.361  10.844  34.791  0.00  0.00    +0.000 A 
ATOM      9  C   UNL     1      15.403  11.840  34.634  0.00  0.00    +0.000 A 
ATOM     10  C   UNL     1      15.073  12.342  33.362  0.00  0.00    +0.000 A 
ATOM     11  C   UNL     1      14.032  13.388  33.235  0.00  0.00    +0.000 C 
ENDBRANCH   1   8
BRANCH   2  12
ATOM     12  C   UNL     1      17.503  10.339  38.436  0.00  0.00    +0.000 A 
ATOM     13  C   UNL     1      16.586   9.982  39.387  0.00  0.00    +0.000 A 
ATOM     14  C   UNL     1      16.942   9.433  40.608  0.00  0.00    +0.000 A 
ATOM     15  C   UNL     1      18.280   9.247  40.847  0.00  0.00    +0.000 A 
ATOM     16  C   UNL     1      19.257   9.578  39.943  0.00  0.00    +0.000 A 
ATOM     17  C   UNL     1      20.651   9.331  40.306  0.00  0.00    +0.000 C 
ATOM     18  C   UNL     1      18.856  10.125  38.733  0.00  0.00    +0.000 A 
BRANCH  18  19
ATOM     19  N   UNL     1      19.809  10.441  37.750  0.00  0.00    +0.000 N 
ATOM     20  O   UNL     1      20.039   9.686  36.810  0.00  0.00    +0.000 OA
ATOM     21  O   UNL     1      20.507  11.647  37.820  0.00  0.00    +0.000 OA
ENDBRANCH  18  19
ENDBRANCH   2  12
TORSDOF 3
ENDMDL
MODEL 5
REMARK VINA RESULT:      -6.8     21.813     23.392
REMARK  Name = 
REMARK  3 active torsions:
REMARK  status: ('A' for Active; 'I' for Inactive)
REMARK    1  A    between atoms: C_5  and  N_6
REMARK    2  A    between atoms: C_7  and  C_9
REMARK    3  A    between atoms: C_15  and  N_16
REMARK                            x       y       z     vdW  Elec       q    Type
REMARK                         _______ _______ _______ _____ _____    ______ ____
ROOT
ATOM      1  N   UNL     1      21.997  -6.801  24.058  0.00  0.00    +0.000 NA
ATOM      2  C   UNL     1      21.394  -7.278  25.240  0.00  0.00    +0.000 C 
ATOM      3  O   UNL     1      22.003  -8.166  25.900  0.00  0.00    +0.000 OA
ENDROOT
BRANCH   1   8
ATOM      4  C   UNL     1      27.119  -8.450  22.083  0.00  0.00    +0.000 C 
ATOM      5  C   UNL     1      25.788  -8.039  22.577  0.00  0.00    +0.000 A 
ATOM      6  C   UNL     1      25.648  -6.985  23.463  0.00  0.00    +0.000 A 
ATOM      7  C   UNL     1      24.411  -6.609  23.910  0.00  0.00    +0.000 A 
ATOM      8  C   UNL     1      23.244  -7.216  23.531  0.00  0.00    +0.000 A 
ATOM      9  C   UNL     1      23.375  -8.275  22.640  0.00  0.00    +0.000 A 
ATOM     10  C   UNL     1      24.636  -8.682  22.169  0.00  0.00    +0.000 A 
ATOM     11  C   UNL     1      24.735  -9.828  21.236  0.00  0.00    +0.000 C 
ENDBRANCH   1   8
BRANCH   2  12
ATOM     12  C   UNL     1      20.102  -6.796  25.721  0.00  0.00    +0.000 A 
ATOM     13  C   UNL     1      19.866  -5.541  26.217  0.00  0.00    +0.000 A 
ATOM     14  C   UNL     1      18.641  -5.152  26.730  0.00  0.00    +0.000 A 
ATOM     15  C   UNL     1      17.634  -6.084  26.726  0.00  0.00    +0.000 A 
ATOM     16  C   UNL     1      17.792  -7.359  26.244  0.00  0.00    +0.000 A 
ATOM     17  C   UNL     1      16.646  -8.264  26.288  0.00  0.00    +0.000 C 
ATOM     18  C   UNL     1      19.036  -7.706  25.740  0.00  0.00    +0.000 A 
BRANCH  18  19
ATOM     19  N   UNL     1      19.246  -8.983  25.192  0.00  0.00    +0.000 N 
ATOM     20  O   UNL     1      19.191  -9.180  23.982  0.00  0.00    +0.000 OA
ATOM     21  O   UNL     1      19.540 -10.060  26.028  0.00  0.00    +0.000 OA
ENDBRANCH  18  19
ENDBRANCH   2  12
TORSDOF 3
ENDMDL
MODEL 6
REMARK VINA RESULT:      -6.7     18.407     20.597
REMARK  Name = 
REMARK  3 active torsions:
REMARK  status: ('A' for Active; 'I' for Inactive)
REMARK    1  A    between atoms: C_5  and  N_6
REMARK    2  A    between atoms: C_7  and  C_9
REMARK    3  A    between atoms: C_15  and  N_16
REMARK                            x       y       z     vdW  Elec       q    Type
REMARK                         _______ _______ _______ _____ _____    ______ ____
ROOT
ATOM      1  N   UNL     1      30.038  22.041  27.213  0.00  0.00    +0.000 NA
ATOM      2  C   UNL     1      30.720  22.853  28.143  0.00  0.00    +0.000 C 
ATOM      3  O   UNL     1      30.747  24.099  27.934  0.00  0.00    +0.000 OA
ENDROOT
BRANCH   1   8
ATOM      4  C   UNL     1      27.396  23.750  22.422  0.00  0.00    +0.000 C 
ATOM      5  C   UNL     1      28.057  23.312  23.670  0.00  0.00    +0.000 A 
ATOM      6  C   UNL     1      29.429  23.136  23.728  0.00  0.00    +0.000 A 
ATOM      7  C   UNL     1      30.032  22.736  24.889  0.00  0.00    +0.000 A 
ATOM      8  C   UNL     1      29.358  22.488  26.055  0.00  0.00    +0.000 A 
ATOM      9  C   UNL     1      27.979  22.662  26.006  0.00  0.00    +0.000 A 
ATOM     10  C   UNL     1      27.337  23.071  24.823  0.00  0.00    +0.000 A 
ATOM     11  C   UNL     1      25.864  23.225  24.805  0.00  0.00    +0.000 C 
ENDBRANCH   1   8
BRANCH   2  12
ATOM     12  C   UNL     1      31.396  22.315  29.320  0.00  0.00    +0.000 A 
ATOM     13  C   UNL     1      32.664  21.800  29.332  0.00  0.00    +0.000 A 
ATOM     14  C   UNL     1      33.237  21.233  30.458  0.00  0.00    +0.000 A 
ATOM     15  C   UNL     1      32.478  21.202  31.600  0.00  0.00    +0.000 A 
ATOM     16  C   UNL     1      31.201  21.699  31.668  0.00  0.00    +0.000 A 
ATOM     17  C   UNL     1      30.490  21.615  32.941  0.00  0.00    +0.000 C 
ATOM     18  C   UNL     1      30.667  22.258  30.516  0.00  0.00    +0.000 A 
BRANCH  18  19
ATOM     19  N   UNL     1      29.382  22.825  30.536  0.00  0.00    +0.000 N 
ATOM     20  O   UNL     1      28.382  22.161  30.281  0.00  0.00    +0.000 OA
ATOM     21  O   UNL     1      29.219  24.171  30.868  0.00  0.00    +0.000 OA
ENDBRANCH  18  19
ENDBRANCH   2  12
TORSDOF 3
ENDMDL
MODEL 7
REMARK VINA RESULT:      -6.7     21.326     24.232
REMARK  Name = 
REMARK  3 active torsions:
REMARK  status: ('A' for Active; 'I' for Inactive)
REMARK    1  A    between atoms: C_5  and  N_6
REMARK    2  A    between atoms: C_7  and  C_9
REMARK    3  A    between atoms: C_15  and  N_16
REMARK                            x       y       z     vdW  Elec       q    Type
REMARK                         _______ _______ _______ _____ _____    ______ ____
ROOT
ATOM      1  N   UNL     1      29.262  26.128  22.145  0.00  0.00    +0.000 NA
ATOM      2  C   UNL     1      29.419  24.729  22.230  0.00  0.00    +0.000 C 
ATOM      3  O   UNL     1      29.345  24.059  21.162  0.00  0.00    +0.000 OA
ENDROOT
BRANCH   1   8
ATOM      4  C   UNL     1      28.267  29.272  17.457  0.00  0.00    +0.000 C 
ATOM      5  C   UNL     1      28.543  28.453  18.656  0.00  0.00    +0.000 A 
ATOM      6  C   UNL     1      27.628  28.370  19.691  0.00  0.00    +0.000 A 
ATOM      7  C   UNL     1      27.890  27.603  20.794  0.00  0.00    +0.000 A 
ATOM      8  C   UNL     1      29.035  26.873  20.963  0.00  0.00    +0.000 A 
ATOM      9  C   UNL     1      29.961  26.950  19.928  0.00  0.00    +0.000 A 
ATOM     10  C   UNL     1      29.714  27.733  18.786  0.00  0.00    +0.000 A 
ATOM     11  C   UNL     1      30.734  27.806  17.713  0.00  0.00    +0.000 C 
ENDBRANCH   1   8
BRANCH   2  12
ATOM     12  C   UNL     1      29.654  24.033  23.492  0.00  0.00    +0.000 A 
ATOM     13  C   UNL     1      30.887  23.713  23.995  0.00  0.00    +0.000 A 
ATOM     14  C   UNL     1      31.059  22.987  25.162  0.00  0.00    +0.000 A 
ATOM     15  C   UNL     1      29.926  22.585  25.824  0.00  0.00    +0.000 A 
ATOM     16  C   UNL     1      28.658  22.868  25.384  0.00  0.00    +0.000 A 
ATOM     17  C   UNL     1      27.527  22.391  26.175  0.00  0.00    +0.000 C 
ATOM     18  C   UNL     1      28.533  23.598  24.211  0.00  0.00    +0.000 A 
BRANCH  18  19
ATOM     19  N   UNL     1      27.260  23.957  23.735  0.00  0.00    +0.000 N 
ATOM     20  O   UNL     1      26.722  25.008  24.070  0.00  0.00    +0.000 OA
ATOM     21  O   UNL     1      26.587  23.118  22.847  0.00  0.00    +0.000 OA
ENDBRANCH  18  19
ENDBRANCH   2  12
TORSDOF 3
ENDMDL
MODEL 8
REMARK VINA RESULT:      -6.6      4.469      8.281
REMARK  Name = 
REMARK  3 active torsions:
REMARK  status: ('A' for Active; 'I' for Inactive)
REMARK    1  A    between atoms: C_5  and  N_6
REMARK    2  A    between atoms: C_7  and  C_9
REMARK    3  A    between atoms: C_15  and  N_16
REMARK                            x       y       z     vdW  Elec       q    Type
REMARK                         _______ _______ _______ _____ _____    ______ ____
ROOT
ATOM      1  N   UNL     1      19.274   9.848  37.127  0.00  0.00    +0.000 NA
ATOM      2  C   UNL     1      20.408  10.603  37.496  0.00  0.00    +0.000 C 
ATOM      3  O   UNL     1      20.224  11.774  37.931  0.00  0.00    +0.000 OA
ENDROOT
BRANCH   1   8
ATOM      4  C   UNL     1      13.847  11.627  37.608  0.00  0.00    +0.000 C 
ATOM      5  C   UNL     1      15.246  11.173  37.460  0.00  0.00    +0.000 A 
ATOM      6  C   UNL     1      15.923  10.590  38.518  0.00  0.00    +0.000 A 
ATOM      7  C   UNL     1      17.215  10.167  38.370  0.00  0.00    +0.000 A 
ATOM      8  C   UNL     1      17.926  10.273  37.205  0.00  0.00    +0.000 A 
ATOM      9  C   UNL     1      17.254  10.857  36.137  0.00  0.00    +0.000 A 
ATOM     10  C   UNL     1      15.925  11.302  36.266  0.00  0.00    +0.000 A 
ATOM     11  C   UNL     1      15.250  11.937  35.110  0.00  0.00    +0.000 C 
ENDBRANCH   1   8
BRANCH   2  12
ATOM     12  C   UNL     1      21.770  10.090  37.389  0.00  0.00    +0.000 A 
ATOM     13  C   UNL     1      22.534  10.116  36.253  0.00  0.00    +0.000 A 
ATOM     14  C   UNL     1      23.796   9.550  36.180  0.00  0.00    +0.000 A 
ATOM     15  C   UNL     1      24.280   8.947  37.313  0.00  0.00    +0.000 A 
ATOM     16  C   UNL     1      23.577   8.883  38.489  0.00  0.00    +0.000 A 
ATOM     17  C   UNL     1      24.197   8.218  39.632  0.00  0.00    +0.000 C 
ATOM     18  C   UNL     1      22.317   9.462  38.517  0.00  0.00    +0.000 A 
BRANCH  18  19
ATOM     19  N   UNL     1      21.568   9.468  39.706  0.00  0.00    +0.000 N 
ATOM     20  O   UNL     1      20.774   8.570  39.971  0.00  0.00    +0.000 OA
ATOM     21  O   UNL     1      21.732  10.503  40.627  0.00  0.00    +0.000 OA
ENDBRANCH  18  19
ENDBRANCH   2  12
TORSDOF 3
ENDMDL
MODEL 9
REMARK VINA RESULT:      -6.5     21.519     22.816
REMARK  Name = 
REMARK  3 active torsions:
REMARK  status: ('A' for Active; 'I' for Inactive)
REMARK    1  A    between atoms: C_5  and  N_6
REMARK    2  A    between atoms: C_7  and  C_9
REMARK    3  A    between atoms: C_15  and  N_16
REMARK                            x       y       z     vdW  Elec       q    Type
REMARK                         _______ _______ _______ _____ _____    ______ ____
ROOT
ATOM      1  N   UNL     1      15.614  -7.917  25.515  0.00  0.00    +0.000 NA
ATOM      2  C   UNL     1      16.689  -7.986  26.426  0.00  0.00    +0.000 C 
ATOM      3  O   UNL     1      16.651  -8.877  27.320  0.00  0.00    +0.000 OA
ENDROOT
BRANCH   1   8
ATOM      4  C   UNL     1      11.137 -11.496  25.433  0.00  0.00    +0.000 C 
ATOM      5  C   UNL     1      12.279 -10.557  25.466  0.00  0.00    +0.000 A 
ATOM      6  C   UNL     1      13.448 -10.829  24.777  0.00  0.00    +0.000 A 
ATOM      7  C   UNL     1      14.496  -9.951  24.808  0.00  0.00    +0.000 A 
ATOM      8  C   UNL     1      14.481  -8.766  25.493  0.00  0.00    +0.000 A 
ATOM      9  C   UNL     1      13.310  -8.483  26.188  0.00  0.00    +0.000 A 
ATOM     10  C   UNL     1      12.220  -9.372  26.173  0.00  0.00    +0.000 A 
ATOM     11  C   UNL     1      10.997  -9.045  26.942  0.00  0.00    +0.000 C 
ENDBRANCH   1   8
BRANCH   2  12
ATOM     12  C   UNL     1      17.827  -7.072  26.379  0.00  0.00    +0.000 A 
ATOM     13  C   UNL     1      17.817  -5.780  26.831  0.00  0.00    +0.000 A 
ATOM     14  C   UNL     1      18.900  -4.927  26.699  0.00  0.00    +0.000 A 
ATOM     15  C   UNL     1      20.022  -5.427  26.088  0.00  0.00    +0.000 A 
ATOM     16  C   UNL     1      20.109  -6.711  25.611  0.00  0.00    +0.000 A 
ATOM     17  C   UNL     1      21.357  -7.133  24.981  0.00  0.00    +0.000 C 
ATOM     18  C   UNL     1      19.001  -7.530  25.765  0.00  0.00    +0.000 A 
BRANCH  18  19
ATOM     19  N   UNL     1      19.046  -8.868  25.338  0.00  0.00    +0.000 N 
ATOM     20  O   UNL     1      18.650  -9.202  24.225  0.00  0.00    +0.000 OA
ATOM     21  O   UNL     1      19.567  -9.850  26.180  0.00  0.00    +0.000 OA
ENDBRANCH  18  19
ENDBRANCH   2  12
TORSDOF 3
ENDMDL
MODEL 10
REMARK VINA RESULT:      -6.5     17.955     20.125
REMARK  Name = 
REMARK  3 active torsions:
REMARK  status: ('A' for Active; 'I' for Inactive)
REMARK    1  A    between atoms: C_5  and  N_6
REMARK    2  A    between atoms: C_7  and  C_9
REMARK    3  A    between atoms: C_15  and  N_16
REMARK                            x       y       z     vdW  Elec       q    Type
REMARK                         _______ _______ _______ _____ _____    ______ ____
ROOT
ATOM      1  N   UNL     1      26.023  24.962  26.557  0.00  0.00    +0.000 NA
ATOM      2  C   UNL     1      26.408  23.702  26.053  0.00  0.00    +0.000 C 
ATOM      3  O   UNL     1      25.570  23.060  25.360  0.00  0.00    +0.000 OA
ENDROOT
BRANCH   1   8
ATOM      4  C   UNL     1      20.957  27.457  25.575  0.00  0.00    +0.000 C 
ATOM      5  C   UNL     1      22.259  26.813  25.851  0.00  0.00    +0.000 A 
ATOM      6  C   UNL     1      23.215  26.680  24.860  0.00  0.00    +0.000 A 
ATOM      7  C   UNL     1      24.419  26.088  25.127  0.00  0.00    +0.000 A 
ATOM      8  C   UNL     1      24.774  25.597  26.354  0.00  0.00    +0.000 A 
ATOM      9  C   UNL     1      23.819  25.726  27.357  0.00  0.00    +0.000 A 
ATOM     10  C   UNL     1      22.573  26.329  27.105  0.00  0.00    +0.000 A 
ATOM     11  C   UNL     1      21.574  26.429  28.194  0.00  0.00    +0.000 C 
ENDBRANCH   1   8
BRANCH   2  12
ATOM     12  C   UNL     1      27.721  23.116  26.304  0.00  0.00    +0.000 A 
ATOM     13  C   UNL     1      28.095  22.491  27.464  0.00  0.00    +0.000 A 
ATOM     14  C   UNL     1      29.376  22.015  27.684  0.00  0.00    +0.000 A 
ATOM     15  C   UNL     1      30.292  22.186  26.676  0.00  0.00    +0.000 A 
ATOM     16  C   UNL     1      29.993  22.799  25.486  0.00  0.00    +0.000 A 
ATOM     17  C   UNL     1      31.049  22.921  24.484  0.00  0.00    +0.000 C 
ATOM     18  C   UNL     1      28.697  23.261  25.308  0.00  0.00    +0.000 A 
BRANCH  18  19
ATOM     19  N   UNL     1      28.320  23.857  24.093  0.00  0.00    +0.000 N 
ATOM     20  O   UNL     1      28.344  25.074  23.938  0.00  0.00    +0.000 OA
ATOM     21  O   UNL     1      27.921  23.058  23.020  0.00  0.00    +0.000 OA
ENDBRANCH  18  19
ENDBRANCH   2  12
TORSDOF 3
ENDMDL
