MODEL 1
REMARK VINA RESULT:      -6.3      0.000      0.000
REMARK  Name = 
REMARK  3 active torsions:
REMARK  status: ('A' for Active; 'I' for Inactive)
REMARK    1  A    between atoms: C_2  and  C_13
REMARK    2  A    between atoms: N_3  and  N_4
REMARK    3  A    between atoms: C_5  and  C_6
REMARK                            x       y       z     vdW  Elec       q    Type
REMARK                         _______ _______ _______ _____ _____    ______ ____
ROOT
ATOM      1  O   UNL     1      32.337  22.673   9.255  0.00  0.00    +0.000 OA
ATOM      2  C   UNL     1      32.880  22.396  10.290  0.00  0.00    +0.000 C 
ATOM      3  N   UNL     1      32.218  22.489  11.517  0.00  0.00    +0.000 NA
ENDROOT
BRANCH   2   4
ATOM      4  C   UNL     1      34.358  21.905  10.438  0.00  0.00    +0.000 C 
ATOM      5  C   UNL     1      34.704  21.713   8.934  0.00  0.00    +0.000 C 
ATOM      6  C   UNL     1      35.027  20.215   8.665  0.00  0.00    +0.000 C 
ATOM      7  C   UNL     1      35.872  19.704   9.910  0.00  0.00    +0.000 C 
ATOM      8  C   UNL     1      35.301  19.722  10.962  0.00  0.00    +0.000 C 
ATOM      9  C   UNL     1      33.855  20.268  10.816  0.00  0.00    +0.000 C 
ATOM     10  C   UNL     1      33.586  19.812   9.327  0.00  0.00    +0.000 C 
ENDBRANCH   2   4
BRANCH   3  11
ATOM     11  N   UNL     1      30.872  22.925  11.499  0.00  0.00    +0.000 NA
ATOM     12  C   UNL     1      30.047  22.309  12.247  0.00  0.00    +0.000 C 
BRANCH  12  13
ATOM     13  C   UNL     1      28.623  22.700  12.288  0.00  0.00    +0.000 A 
ATOM     14  C   UNL     1      27.776  22.190  11.347  0.00  0.00    +0.000 A 
ATOM     15  C   UNL     1      26.466  22.501  11.322  0.00  0.00    +0.000 A 
ATOM     16  C   UNL     1      25.986  23.375  12.300  0.00  0.00    +0.000 A 
ATOM     17  C   UNL     1      26.852  23.885  13.245  0.00  0.00    +0.000 A 
ATOM     18  C   UNL     1      28.186  23.546  13.242  0.00  0.00    +0.000 A 
ATOM     19  O   UNL     1      29.090  24.049  14.193  0.00  0.00    +0.000 OA
ENDBRANCH  12  13
ENDBRANCH   3  11
TORSDOF 3
ENDMDL
MODEL 2
REMARK VINA RESULT:      -6.3     30.686     32.570
REMARK  Name = 
REMARK  3 active torsions:
REMARK  status: ('A' for Active; 'I' for Inactive)
REMARK    1  A    between atoms: C_2  and  C_13
REMARK    2  A    between atoms: N_3  and  N_4
REMARK    3  A    between atoms: C_5  and  C_6
REMARK                            x       y       z     vdW  Elec       q    Type
REMARK                         _______ _______ _______ _____ _____    ______ ____
ROOT
ATOM      1  O   UNL     1      21.657  11.387  39.584  0.00  0.00    +0.000 OA
ATOM      2  C   UNL     1      21.520  10.916  38.488  0.00  0.00    +0.000 C 
ATOM      3  N   UNL     1      20.450  10.074  38.175  0.00  0.00    +0.000 NA
ENDROOT
BRANCH   2   4
ATOM      4  C   UNL     1      22.475  11.155  37.272  0.00  0.00    +0.000 C 
ATOM      5  C   UNL     1      22.176   9.858  36.467  0.00  0.00    +0.000 C 
ATOM      6  C   UNL     1      23.474   9.008  36.354  0.00  0.00    +0.000 C 
ATOM      7  C   UNL     1      24.664  10.030  36.105  0.00  0.00    +0.000 C 
ATOM      8  C   UNL     1      24.869  10.807  36.993  0.00  0.00    +0.000 C 
ATOM      9  C   UNL     1      23.878  10.603  38.169  0.00  0.00    +0.000 C 
ATOM     10  C   UNL     1      23.615   9.056  37.984  0.00  0.00    +0.000 C 
ENDBRANCH   2   4
BRANCH   3  11
ATOM     11  N   UNL     1      19.523   9.790  39.206  0.00  0.00    +0.000 NA
ATOM     12  C   UNL     1      18.680   8.861  38.995  0.00  0.00    +0.000 C 
BRANCH  12  13
ATOM     13  C   UNL     1      17.677   8.500  40.018  0.00  0.00    +0.000 A 
ATOM     14  C   UNL     1      16.774   9.445  40.412  0.00  0.00    +0.000 A 
ATOM     15  C   UNL     1      15.832   9.188  41.339  0.00  0.00    +0.000 A 
ATOM     16  C   UNL     1      15.800   7.909  41.898  0.00  0.00    +0.000 A 
ATOM     17  C   UNL     1      16.718   6.962  41.492  0.00  0.00    +0.000 A 
ATOM     18  C   UNL     1      17.669   7.258  40.541  0.00  0.00    +0.000 A 
ATOM     19  O   UNL     1      18.615   6.314  40.108  0.00  0.00    +0.000 OA
ENDBRANCH  12  13
ENDBRANCH   3  11
TORSDOF 3
ENDMDL
MODEL 3
REMARK VINA RESULT:      -5.9     20.107     20.767
REMARK  Name = 
REMARK  3 active torsions:
REMARK  status: ('A' for Active; 'I' for Inactive)
REMARK    1  A    between atoms: C_2  and  C_13
REMARK    2  A    between atoms: N_3  and  N_4
REMARK    3  A    between atoms: C_5  and  C_6
REMARK                            x       y       z     vdW  Elec       q    Type
REMARK                         _______ _______ _______ _____ _____    ______ ____
ROOT
ATOM      1  O   UNL     1      25.210   4.559  14.969  0.00  0.00    +0.000 OA
ATOM      2  C   UNL     1      25.607   4.446  16.097  0.00  0.00    +0.000 C 
ATOM      3  N   UNL     1      24.806   3.916  17.111  0.00  0.00    +0.000 NA
ENDROOT
BRANCH   2   4
ATOM      4  C   UNL     1      27.029   4.856  16.604  0.00  0.00    +0.000 C 
ATOM      5  C   UNL     1      26.704   5.058  18.111  0.00  0.00    +0.000 C 
ATOM      6  C   UNL     1      26.962   6.541  18.502  0.00  0.00    +0.000 C 
ATOM      7  C   UNL     1      28.287   6.984  17.746  0.00  0.00    +0.000 C 
ATOM      8  C   UNL     1      28.225   6.976  16.550  0.00  0.00    +0.000 C 
ATOM      9  C   UNL     1      26.830   6.510  16.055  0.00  0.00    +0.000 C 
ATOM     10  C   UNL     1      25.971   7.007  17.285  0.00  0.00    +0.000 C 
ENDBRANCH   2   4
BRANCH   3  11
ATOM     11  N   UNL     1      23.495   3.512  16.761  0.00  0.00    +0.000 NA
ATOM     12  C   UNL     1      23.009   2.508  17.374  0.00  0.00    +0.000 C 
BRANCH  12  13
ATOM     13  C   UNL     1      21.648   2.020  17.070  0.00  0.00    +0.000 A 
ATOM     14  C   UNL     1      20.599   2.515  17.788  0.00  0.00    +0.000 A 
ATOM     15  C   UNL     1      19.332   2.116  17.567  0.00  0.00    +0.000 A 
ATOM     16  C   UNL     1      19.113   1.167  16.567  0.00  0.00    +0.000 A 
ATOM     17  C   UNL     1      20.182   0.673  15.848  0.00  0.00    +0.000 A 
ATOM     18  C   UNL     1      21.466   1.102  16.099  0.00  0.00    +0.000 A 
ATOM     19  O   UNL     1      22.573   0.618  15.383  0.00  0.00    +0.000 OA
ENDBRANCH  12  13
ENDBRANCH   3  11
TORSDOF 3
ENDMDL
MODEL 4
REMARK VINA RESULT:      -5.9     30.122     31.415
REMARK  Name = 
REMARK  3 active torsions:
REMARK  status: ('A' for Active; 'I' for Inactive)
REMARK    1  A    between atoms: C_2  and  C_13
REMARK    2  A    between atoms: N_3  and  N_4
REMARK    3  A    between atoms: C_5  and  C_6
REMARK                            x       y       z     vdW  Elec       q    Type
REMARK                         _______ _______ _______ _____ _____    ______ ____
ROOT
ATOM      1  O   UNL     1      33.900   1.697  32.899  0.00  0.00    +0.000 OA
ATOM      2  C   UNL     1      33.452   1.292  33.937  0.00  0.00    +0.000 C 
ATOM      3  N   UNL     1      33.588   2.008  35.128  0.00  0.00    +0.000 NA
ENDROOT
BRANCH   2   4
ATOM      4  C   UNL     1      32.673  -0.051  34.127  0.00  0.00    +0.000 C 
ATOM      5  C   UNL     1      32.878  -0.240  35.656  0.00  0.00    +0.000 C 
ATOM      6  C   UNL     1      33.685  -1.546  35.912  0.00  0.00    +0.000 C 
ATOM      7  C   UNL     1      33.135  -2.625  34.885  0.00  0.00    +0.000 C 
ATOM      8  C   UNL     1      33.305  -2.369  33.728  0.00  0.00    +0.000 C 
ATOM      9  C   UNL     1      34.026  -1.006  33.547  0.00  0.00    +0.000 C 
ATOM     10  C   UNL     1      34.846  -0.997  34.898  0.00  0.00    +0.000 C 
ENDBRANCH   2   4
BRANCH   3  11
ATOM     11  N   UNL     1      34.280   3.242  35.070  0.00  0.00    +0.000 NA
ATOM     12  C   UNL     1      33.941   4.142  35.903  0.00  0.00    +0.000 C 
BRANCH  12  13
ATOM     13  C   UNL     1      34.612   5.459  35.911  0.00  0.00    +0.000 A 
ATOM     14  C   UNL     1      35.543   5.725  34.951  0.00  0.00    +0.000 A 
ATOM     15  C   UNL     1      36.195   6.903  34.896  0.00  0.00    +0.000 A 
ATOM     16  C   UNL     1      35.889   7.862  35.864  0.00  0.00    +0.000 A 
ATOM     17  C   UNL     1      34.946   7.581  36.830  0.00  0.00    +0.000 A 
ATOM     18  C   UNL     1      34.298   6.366  36.858  0.00  0.00    +0.000 A 
ATOM     19  O   UNL     1      33.333   6.052  37.829  0.00  0.00    +0.000 OA
ENDBRANCH  12  13
ENDBRANCH   3  11
TORSDOF 3
ENDMDL
MODEL 5
REMARK VINA RESULT:      -5.8     33.166     34.516
REMARK  Name = 
REMARK  3 active torsions:
REMARK  status: ('A' for Active; 'I' for Inactive)
REMARK    1  A    between atoms: C_2  and  C_13
REMARK    2  A    between atoms: N_3  and  N_4
REMARK    3  A    between atoms: C_5  and  C_6
REMARK                            x       y       z     vdW  Elec       q    Type
REMARK                         _______ _______ _______ _____ _____    ______ ____
ROOT
ATOM      1  O   UNL     1      34.848  -4.283  34.808  0.00  0.00    +0.000 OA
ATOM      2  C   UNL     1      33.832  -3.644  34.772  0.00  0.00    +0.000 C 
ATOM      3  N   UNL     1      32.846  -3.879  33.811  0.00  0.00    +0.000 NA
ENDROOT
BRANCH   2   4
ATOM      4  C   UNL     1      33.452  -2.487  35.754  0.00  0.00    +0.000 C 
ATOM      5  C   UNL     1      32.276  -1.861  34.953  0.00  0.00    +0.000 C 
ATOM      6  C   UNL     1      32.635  -0.398  34.564  0.00  0.00    +0.000 C 
ATOM      7  C   UNL     1      33.376   0.234  35.818  0.00  0.00    +0.000 C 
ATOM      8  C   UNL     1      34.416  -0.280  36.116  0.00  0.00    +0.000 C 
ATOM      9  C   UNL     1      34.755  -1.465  35.174  0.00  0.00    +0.000 C 
ATOM     10  C   UNL     1      34.015  -0.948  33.877  0.00  0.00    +0.000 C 
ENDBRANCH   2   4
BRANCH   3  11
ATOM     11  N   UNL     1      33.088  -4.907  32.869  0.00  0.00    +0.000 NA
ATOM     12  C   UNL     1      33.627  -4.574  31.765  0.00  0.00    +0.000 C 
BRANCH  12  13
ATOM     13  C   UNL     1      33.914  -5.584  30.725  0.00  0.00    +0.000 A 
ATOM     14  C   UNL     1      33.189  -5.559  29.570  0.00  0.00    +0.000 A 
ATOM     15  C   UNL     1      33.394  -6.448  28.579  0.00  0.00    +0.000 A 
ATOM     16  C   UNL     1      34.385  -7.414  28.767  0.00  0.00    +0.000 A 
ATOM     17  C   UNL     1      35.111  -7.430  29.940  0.00  0.00    +0.000 A 
ATOM     18  C   UNL     1      34.875  -6.506  30.933  0.00  0.00    +0.000 A 
ATOM     19  O   UNL     1      35.599  -6.497  32.137  0.00  0.00    +0.000 OA
ENDBRANCH  12  13
ENDBRANCH   3  11
TORSDOF 3
ENDMDL
MODEL 6
REMARK VINA RESULT:      -5.7      8.928     11.286
REMARK  Name = 
REMARK  3 active torsions:
REMARK  status: ('A' for Active; 'I' for Inactive)
REMARK    1  A    between atoms: C_2  and  C_13
REMARK    2  A    between atoms: N_3  and  N_4
REMARK    3  A    between atoms: C_5  and  C_6
REMARK                            x       y       z     vdW  Elec       q    Type
REMARK                         _______ _______ _______ _____ _____    ______ ____
ROOT
ATOM      1  O   UNL     1      29.261  27.970  20.247  0.00  0.00    +0.000 OA
ATOM      2  C   UNL     1      29.926  27.201  19.610  0.00  0.00    +0.000 C 
ATOM      3  N   UNL     1      29.855  25.820  19.813  0.00  0.00    +0.000 NA
ENDROOT
BRANCH   2   4
ATOM      4  C   UNL     1      30.946  27.593  18.490  0.00  0.00    +0.000 C 
ATOM      5  C   UNL     1      30.755  29.136  18.515  0.00  0.00    +0.000 C 
ATOM      6  C   UNL     1      30.210  29.612  17.138  0.00  0.00    +0.000 C 
ATOM      7  C   UNL     1      30.972  28.764  16.032  0.00  0.00    +0.000 C 
ATOM      8  C   UNL     1      30.775  27.584  16.061  0.00  0.00    +0.000 C 
ATOM      9  C   UNL     1      29.810  27.196  17.213  0.00  0.00    +0.000 C 
ATOM     10  C   UNL     1      28.982  28.540  17.282  0.00  0.00    +0.000 C 
ENDBRANCH   2   4
BRANCH   3  11
ATOM     11  N   UNL     1      28.961  25.354  20.807  0.00  0.00    +0.000 NA
ATOM     12  C   UNL     1      29.425  24.553  21.680  0.00  0.00    +0.000 C 
BRANCH  12  13
ATOM     13  C   UNL     1      28.560  24.018  22.753  0.00  0.00    +0.000 A 
ATOM     14  C   UNL     1      27.210  24.184  22.650  0.00  0.00    +0.000 A 
ATOM     15  C   UNL     1      26.361  23.724  23.589  0.00  0.00    +0.000 A 
ATOM     16  C   UNL     1      26.906  23.061  24.690  0.00  0.00    +0.000 A 
ATOM     17  C   UNL     1      28.272  22.900  24.784  0.00  0.00    +0.000 A 
ATOM     18  C   UNL     1      29.113  23.383  23.806  0.00  0.00    +0.000 A 
ATOM     19  O   UNL     1      30.508  23.232  23.874  0.00  0.00    +0.000 OA
ENDBRANCH  12  13
ENDBRANCH   3  11
TORSDOF 3
ENDMDL
MODEL 7
REMARK VINA RESULT:      -5.5     12.530     15.237
REMARK  Name = 
REMARK  3 active torsions:
REMARK  status: ('A' for Active; 'I' for Inactive)
REMARK    1  A    between atoms: C_2  and  C_13
REMARK    2  A    between atoms: N_3  and  N_4
REMARK    3  A    between atoms: C_5  and  C_6
REMARK                            x       y       z     vdW  Elec       q    Type
REMARK                         _______ _______ _______ _____ _____    ______ ____
ROOT
ATOM      1  O   UNL     1      26.864  27.110  24.340  0.00  0.00    +0.000 OA
ATOM      2  C   UNL     1      26.979  26.174  23.597  0.00  0.00    +0.000 C 
ATOM      3  N   UNL     1      26.807  24.859  24.034  0.00  0.00    +0.000 NA
ENDROOT
BRANCH   2   4
ATOM      4  C   UNL     1      27.328  26.262  22.074  0.00  0.00    +0.000 C 
ATOM      5  C   UNL     1      27.764  24.789  21.836  0.00  0.00    +0.000 C 
ATOM      6  C   UNL     1      29.259  24.755  21.406  0.00  0.00    +0.000 C 
ATOM      7  C   UNL     1      29.474  25.982  20.421  0.00  0.00    +0.000 C 
ATOM      8  C   UNL     1      29.307  27.065  20.904  0.00  0.00    +0.000 C 
ATOM      9  C   UNL     1      28.902  26.966  22.399  0.00  0.00    +0.000 C 
ATOM     10  C   UNL     1      29.638  25.611  22.748  0.00  0.00    +0.000 C 
ENDBRANCH   2   4
BRANCH   3  11
ATOM     11  N   UNL     1      26.488  24.664  25.399  0.00  0.00    +0.000 NA
ATOM     12  C   UNL     1      27.225  23.867  26.063  0.00  0.00    +0.000 C 
BRANCH  12  13
ATOM     13  C   UNL     1      26.962  23.605  27.494  0.00  0.00    +0.000 A 
ATOM     14  C   UNL     1      26.061  24.393  28.149  0.00  0.00    +0.000 A 
ATOM     15  C   UNL     1      25.772  24.214  29.452  0.00  0.00    +0.000 A 
ATOM     16  C   UNL     1      26.429  23.185  30.129  0.00  0.00    +0.000 A 
ATOM     17  C   UNL     1      27.338  22.395  29.457  0.00  0.00    +0.000 A 
ATOM     18  C   UNL     1      27.611  22.605  28.124  0.00  0.00    +0.000 A 
ATOM     19  O   UNL     1      28.531  21.817  27.413  0.00  0.00    +0.000 OA
ENDBRANCH  12  13
ENDBRANCH   3  11
TORSDOF 3
ENDMDL
MODEL 8
REMARK VINA RESULT:      -5.5     31.496     34.010
REMARK  Name = 
REMARK  3 active torsions:
REMARK  status: ('A' for Active; 'I' for Inactive)
REMARK    1  A    between atoms: C_2  and  C_13
REMARK    2  A    between atoms: N_3  and  N_4
REMARK    3  A    between atoms: C_5  and  C_6
REMARK                            x       y       z     vdW  Elec       q    Type
REMARK                         _______ _______ _______ _____ _____    ______ ____
ROOT
ATOM      1  O   UNL     1      18.608   7.754  39.227  0.00  0.00    +0.000 OA
ATOM      2  C   UNL     1      18.952   8.142  40.310  0.00  0.00    +0.000 C 
ATOM      3  N   UNL     1      20.073   8.959  40.478  0.00  0.00    +0.000 NA
ENDROOT
BRANCH   2   4
ATOM      4  C   UNL     1      18.237   7.815  41.662  0.00  0.00    +0.000 C 
ATOM      5  C   UNL     1      16.972   7.103  41.105  0.00  0.00    +0.000 C 
ATOM      6  C   UNL     1      15.705   7.916  41.499  0.00  0.00    +0.000 C 
ATOM      7  C   UNL     1      15.936   8.419  42.987  0.00  0.00    +0.000 C 
ATOM      8  C   UNL     1      16.856   9.171  43.140  0.00  0.00    +0.000 C 
ATOM      9  C   UNL     1      17.597   9.442  41.804  0.00  0.00    +0.000 C 
ATOM     10  C   UNL     1      16.377   9.244  40.819  0.00  0.00    +0.000 C 
ENDBRANCH   2   4
BRANCH   3  11
ATOM     11  N   UNL     1      20.797   9.318  39.316  0.00  0.00    +0.000 NA
ATOM     12  C   UNL     1      22.052   9.108  39.321  0.00  0.00    +0.000 C 
BRANCH  12  13
ATOM     13  C   UNL     1      22.884   9.453  38.150  0.00  0.00    +0.000 A 
ATOM     14  C   UNL     1      22.263   9.826  36.993  0.00  0.00    +0.000 A 
ATOM     15  C   UNL     1      22.956  10.154  35.885  0.00  0.00    +0.000 A 
ATOM     16  C   UNL     1      24.349  10.100  35.950  0.00  0.00    +0.000 A 
ATOM     17  C   UNL     1      24.966   9.721  37.124  0.00  0.00    +0.000 A 
ATOM     18  C   UNL     1      24.227   9.392  38.239  0.00  0.00    +0.000 A 
ATOM     19  O   UNL     1      24.827   9.003  39.448  0.00  0.00    +0.000 OA
ENDBRANCH  12  13
ENDBRANCH   3  11
TORSDOF 3
ENDMDL
MODEL 9
REMARK VINA RESULT:      -5.5     34.933     35.950
REMARK  Name = 
REMARK  3 active torsions:
REMARK  status: ('A' for Active; 'I' for Inactive)
REMARK    1  A    between atoms: C_2  and  C_13
REMARK    2  A    between atoms: N_3  and  N_4
REMARK    3  A    between atoms: C_5  and  C_6
REMARK                            x       y       z     vdW  Elec       q    Type
REMARK                         _______ _______ _______ _____ _____    ______ ____
ROOT
ATOM      1  O   UNL     1      21.700   5.705  40.598  0.00  0.00    +0.000 OA
ATOM      2  C   UNL     1      21.239   4.606  40.446  0.00  0.00    +0.000 C 
ATOM      3  N   UNL     1      19.890   4.333  40.683  0.00  0.00    +0.000 NA
ENDROOT
BRANCH   2   4
ATOM      4  C   UNL     1      22.036   3.344  39.977  0.00  0.00    +0.000 C 
ATOM      5  C   UNL     1      21.293   2.261  40.808  0.00  0.00    +0.000 C 
ATOM      6  C   UNL     1      22.290   1.593  41.797  0.00  0.00    +0.000 C 
ATOM      7  C   UNL     1      23.658   1.416  41.010  0.00  0.00    +0.000 C 
ATOM      8  C   UNL     1      24.188   2.433  40.663  0.00  0.00    +0.000 C 
ATOM      9  C   UNL     1      23.359   3.677  41.080  0.00  0.00    +0.000 C 
ATOM     10  C   UNL     1      22.675   3.077  42.371  0.00  0.00    +0.000 C 
ENDBRANCH   2   4
BRANCH   3  11
ATOM     11  N   UNL     1      19.075   5.407  41.114  0.00  0.00    +0.000 NA
ATOM     12  C   UNL     1      18.488   6.092  40.217  0.00  0.00    +0.000 C 
BRANCH  12  13
ATOM     13  C   UNL     1      17.619   7.231  40.579  0.00  0.00    +0.000 A 
ATOM     14  C   UNL     1      16.531   6.999  41.370  0.00  0.00    +0.000 A 
ATOM     15  C   UNL     1      15.694   7.987  41.740  0.00  0.00    +0.000 A 
ATOM     16  C   UNL     1      15.971   9.278  41.286  0.00  0.00    +0.000 A 
ATOM     17  C   UNL     1      17.073   9.501  40.487  0.00  0.00    +0.000 A 
ATOM     18  C   UNL     1      17.909   8.467  40.127  0.00  0.00    +0.000 A 
ATOM     19  O   UNL     1      19.038   8.664  39.314  0.00  0.00    +0.000 OA
ENDBRANCH  12  13
ENDBRANCH   3  11
TORSDOF 3
ENDMDL
MODEL 10
REMARK VINA RESULT:      -5.4     32.761     34.127
REMARK  Name = 
REMARK  3 active torsions:
REMARK  status: ('A' for Active; 'I' for Inactive)
REMARK    1  A    between atoms: C_2  and  C_13
REMARK    2  A    between atoms: N_3  and  N_4
REMARK    3  A    between atoms: C_5  and  C_6
REMARK                            x       y       z     vdW  Elec       q    Type
REMARK                         _______ _______ _______ _____ _____    ______ ____
ROOT
ATOM      1  O   UNL     1      33.907  -5.940  33.523  0.00  0.00    +0.000 OA
ATOM      2  C   UNL     1      33.405  -5.393  32.580  0.00  0.00    +0.000 C 
ATOM      3  N   UNL     1      33.192  -4.013  32.554  0.00  0.00    +0.000 NA
ENDROOT
BRANCH   2   4
ATOM      4  C   UNL     1      32.921  -6.101  31.271  0.00  0.00    +0.000 C 
ATOM      5  C   UNL     1      33.466  -7.531  31.550  0.00  0.00    +0.000 C 
ATOM      6  C   UNL     1      34.518  -7.903  30.466  0.00  0.00    +0.000 C 
ATOM      7  C   UNL     1      33.962  -7.349  29.086  0.00  0.00    +0.000 C 
ATOM      8  C   UNL     1      33.844  -6.159  29.018  0.00  0.00    +0.000 C 
ATOM      9  C   UNL     1      34.269  -5.470  30.342  0.00  0.00    +0.000 C 
ATOM     10  C   UNL     1      35.335  -6.531  30.824  0.00  0.00    +0.000 C 
ENDBRANCH   2   4
BRANCH   3  11
ATOM     11  N   UNL     1      33.593  -3.272  33.692  0.00  0.00    +0.000 NA
ATOM     12  C   UNL     1      33.614  -2.004  33.587  0.00  0.00    +0.000 C 
BRANCH  12  13
ATOM     13  C   UNL     1      34.021  -1.155  34.726  0.00  0.00    +0.000 A 
ATOM     14  C   UNL     1      35.041  -1.578  35.526  0.00  0.00    +0.000 A 
ATOM     15  C   UNL     1      35.465  -0.858  36.583  0.00  0.00    +0.000 A 
ATOM     16  C   UNL     1      34.824   0.354  36.843  0.00  0.00    +0.000 A 
ATOM     17  C   UNL     1      33.793   0.772  36.027  0.00  0.00    +0.000 A 
ATOM     18  C   UNL     1      33.384   0.011  34.955  0.00  0.00    +0.000 A 
ATOM     19  O   UNL     1      32.338   0.410  34.106  0.00  0.00    +0.000 OA
ENDBRANCH  12  13
ENDBRANCH   3  11
TORSDOF 3
ENDMDL
