MODEL 1
REMARK VINA RESULT:      -6.7      0.000      0.000
REMARK  Name = 
REMARK  3 active torsions:
REMARK  status: ('A' for Active; 'I' for Inactive)
REMARK    1  A    between atoms: O_2  and  C_3
REMARK    2  A    between atoms: C_6  and  N_7
REMARK    3  A    between atoms: C_8  and  C_10
REMARK                            x       y       z     vdW  Elec       q    Type
REMARK                         _______ _______ _______ _____ _____    ______ ____
ROOT
ATOM      1  N   UNL     1      17.238  11.431  36.277  0.00  0.00    +0.000 NA
ATOM      2  C   UNL     1      17.530  10.116  36.732  0.00  0.00    +0.000 C 
ATOM      3  O   UNL     1      17.135   9.203  35.993  0.00  0.00    +0.000 OA
ENDROOT
BRANCH   2   4
ATOM      4  C   UNL     1      18.266   9.864  38.012  0.00  0.00    +0.000 A 
ATOM      5  C   UNL     1      19.625   9.701  37.966  0.00  0.00    +0.000 A 
ATOM      6  N   UNL     1      20.485   9.743  36.795  0.00  0.00    +0.000 NA
ATOM      7  S   UNL     1      20.039   9.443  39.595  0.00  0.00    +0.000 S 
ATOM      8  C   UNL     1      18.493   9.546  40.298  0.00  0.00    +0.000 A 
ATOM      9  C   UNL     1      17.677   9.782  39.234  0.00  0.00    +0.000 A 
ATOM     10  C   UNL     1      16.243   9.891  39.770  0.00  0.00    +0.000 C 
ATOM     11  C   UNL     1      16.336   9.092  41.044  0.00  0.00    +0.000 C 
ATOM     12  C   UNL     1      17.709   9.479  41.592  0.00  0.00    +0.000 C 
ENDBRANCH   2   4
BRANCH   1  16
ATOM     13  C   UNL     1      15.044  12.213  32.771  0.00  0.00    +0.000 A 
ATOM     14  C   UNL     1      16.279  11.610  32.654  0.00  0.00    +0.000 A 
ATOM     15  C   UNL     1      17.011  11.348  33.810  0.00  0.00    +0.000 A 
ATOM     16  C   UNL     1      16.541  11.671  35.063  0.00  0.00    +0.000 A 
ATOM     17  C   UNL     1      15.303  12.273  35.132  0.00  0.00    +0.000 A 
ATOM     18  C   UNL     1      14.548  12.548  33.998  0.00  0.00    +0.000 A 
BRANCH  13  20
ATOM     19  C   UNL     1      13.632  13.633  31.351  0.00  0.00    +0.000 C 
ATOM     20  O   UNL     1      14.344  12.458  31.586  0.00  0.00    +0.000 OA
ENDBRANCH  13  20
ENDBRANCH   1  16
TORSDOF 3
ENDMDL
MODEL 2
REMARK VINA RESULT:      -6.4      1.365      2.982
REMARK  Name = 
REMARK  3 active torsions:
REMARK  status: ('A' for Active; 'I' for Inactive)
REMARK    1  A    between atoms: O_2  and  C_3
REMARK    2  A    between atoms: C_6  and  N_7
REMARK    3  A    between atoms: C_8  and  C_10
REMARK                            x       y       z     vdW  Elec       q    Type
REMARK                         _______ _______ _______ _____ _____    ______ ____
ROOT
ATOM      1  N   UNL     1      17.432  11.456  36.150  0.00  0.00    +0.000 NA
ATOM      2  C   UNL     1      17.800  10.148  36.567  0.00  0.00    +0.000 C 
ATOM      3  O   UNL     1      17.336   9.226  35.882  0.00  0.00    +0.000 OA
ENDROOT
BRANCH   2   4
ATOM      4  C   UNL     1      18.686   9.912  37.751  0.00  0.00    +0.000 A 
ATOM      5  C   UNL     1      18.112   9.825  38.992  0.00  0.00    +0.000 A 
ATOM      6  N   UNL     1      16.702   9.934  39.328  0.00  0.00    +0.000 NA
ATOM      7  S   UNL     1      19.444   9.561  40.017  0.00  0.00    +0.000 S 
ATOM      8  C   UNL     1      20.693   9.567  38.861  0.00  0.00    +0.000 A 
ATOM      9  C   UNL     1      20.036   9.777  37.687  0.00  0.00    +0.000 A 
ATOM     10  C   UNL     1      21.089   9.800  36.570  0.00  0.00    +0.000 C 
ATOM     11  C   UNL     1      22.326  10.202  37.330  0.00  0.00    +0.000 C 
ATOM     12  C   UNL     1      22.186   9.435  38.644  0.00  0.00    +0.000 C 
ENDBRANCH   2   4
BRANCH   1  16
ATOM     13  C   UNL     1      15.067  12.057  32.721  0.00  0.00    +0.000 A 
ATOM     14  C   UNL     1      14.560  12.438  33.946  0.00  0.00    +0.000 A 
ATOM     15  C   UNL     1      15.337  12.242  35.085  0.00  0.00    +0.000 A 
ATOM     16  C   UNL     1      16.593  11.682  35.027  0.00  0.00    +0.000 A 
ATOM     17  C   UNL     1      17.059  11.317  33.783  0.00  0.00    +0.000 A 
ATOM     18  C   UNL     1      16.308  11.499  32.627  0.00  0.00    +0.000 A 
BRANCH  13  20
ATOM     19  C   UNL     1      14.632  13.074  30.529  0.00  0.00    +0.000 C 
ATOM     20  O   UNL     1      14.253  12.271  31.603  0.00  0.00    +0.000 OA
ENDBRANCH  13  20
ENDBRANCH   1  16
TORSDOF 3
ENDMDL
MODEL 3
REMARK VINA RESULT:      -6.2      3.089      4.886
REMARK  Name = 
REMARK  3 active torsions:
REMARK  status: ('A' for Active; 'I' for Inactive)
REMARK    1  A    between atoms: O_2  and  C_3
REMARK    2  A    between atoms: C_6  and  N_7
REMARK    3  A    between atoms: C_8  and  C_10
REMARK                            x       y       z     vdW  Elec       q    Type
REMARK                         _______ _______ _______ _____ _____    ______ ____
ROOT
ATOM      1  N   UNL     1      19.225  11.091  38.164  0.00  0.00    +0.000 NA
ATOM      2  C   UNL     1      20.000  10.077  37.539  0.00  0.00    +0.000 C 
ATOM      3  O   UNL     1      19.478   9.550  36.546  0.00  0.00    +0.000 OA
ENDROOT
BRANCH   2   4
ATOM      4  C   UNL     1      21.351   9.681  38.050  0.00  0.00    +0.000 A 
ATOM      5  C   UNL     1      21.448   9.164  39.315  0.00  0.00    +0.000 A 
ATOM      6  N   UNL     1      20.372   8.937  40.266  0.00  0.00    +0.000 NA
ATOM      7  S   UNL     1      23.113   8.862  39.484  0.00  0.00    +0.000 S 
ATOM      8  C   UNL     1      23.651   9.392  37.959  0.00  0.00    +0.000 A 
ATOM      9  C   UNL     1      22.506   9.799  37.345  0.00  0.00    +0.000 A 
ATOM     10  C   UNL     1      22.890  10.303  35.946  0.00  0.00    +0.000 C 
ATOM     11  C   UNL     1      24.333  10.687  36.150  0.00  0.00    +0.000 C 
ATOM     12  C   UNL     1      24.857   9.579  37.062  0.00  0.00    +0.000 C 
ENDBRANCH   2   4
BRANCH   1  16
ATOM     13  C   UNL     1      15.362  12.068  36.810  0.00  0.00    +0.000 A 
ATOM     14  C   UNL     1      16.413  12.886  36.449  0.00  0.00    +0.000 A 
ATOM     15  C   UNL     1      17.694  12.569  36.894  0.00  0.00    +0.000 A 
ATOM     16  C   UNL     1      17.944  11.467  37.680  0.00  0.00    +0.000 A 
ATOM     17  C   UNL     1      16.865  10.678  38.016  0.00  0.00    +0.000 A 
ATOM     18  C   UNL     1      15.574  10.968  37.588  0.00  0.00    +0.000 A 
BRANCH  13  20
ATOM     19  C   UNL     1      12.911  11.970  36.926  0.00  0.00    +0.000 C 
ATOM     20  O   UNL     1      14.092  12.423  36.342  0.00  0.00    +0.000 OA
ENDBRANCH  13  20
ENDBRANCH   1  16
TORSDOF 3
ENDMDL
MODEL 4
REMARK VINA RESULT:      -6.1     18.731     20.712
REMARK  Name = 
REMARK  3 active torsions:
REMARK  status: ('A' for Active; 'I' for Inactive)
REMARK    1  A    between atoms: O_2  and  C_3
REMARK    2  A    between atoms: C_6  and  N_7
REMARK    3  A    between atoms: C_8  and  C_10
REMARK                            x       y       z     vdW  Elec       q    Type
REMARK                         _______ _______ _______ _____ _____    ______ ____
ROOT
ATOM      1  N   UNL     1      32.860  -0.528  34.855  0.00  0.00    +0.000 NA
ATOM      2  C   UNL     1      33.965   0.065  35.524  0.00  0.00    +0.000 C 
ATOM      3  O   UNL     1      34.909  -0.701  35.763  0.00  0.00    +0.000 OA
ENDROOT
BRANCH   2   4
ATOM      4  C   UNL     1      33.979   1.513  35.906  0.00  0.00    +0.000 A 
ATOM      5  C   UNL     1      34.103   1.840  37.230  0.00  0.00    +0.000 A 
ATOM      6  N   UNL     1      34.230   0.934  38.360  0.00  0.00    +0.000 NA
ATOM      7  S   UNL     1      34.072   3.540  37.214  0.00  0.00    +0.000 S 
ATOM      8  C   UNL     1      33.904   3.802  35.541  0.00  0.00    +0.000 A 
ATOM      9  C   UNL     1      33.874   2.542  35.026  0.00  0.00    +0.000 A 
ATOM     10  C   UNL     1      33.722   2.672  33.503  0.00  0.00    +0.000 C 
ATOM     11  C   UNL     1      33.067   4.024  33.381  0.00  0.00    +0.000 C 
ATOM     12  C   UNL     1      33.779   4.848  34.453  0.00  0.00    +0.000 C 
ENDBRANCH   2   4
BRANCH   1  16
ATOM     13  C   UNL     1      32.709  -4.626  33.909  0.00  0.00    +0.000 A 
ATOM     14  C   UNL     1      33.492  -3.799  33.131  0.00  0.00    +0.000 A 
ATOM     15  C   UNL     1      33.547  -2.441  33.438  0.00  0.00    +0.000 A 
ATOM     16  C   UNL     1      32.845  -1.901  34.491  0.00  0.00    +0.000 A 
ATOM     17  C   UNL     1      32.076  -2.763  35.242  0.00  0.00    +0.000 A 
ATOM     18  C   UNL     1      32.001  -4.123  34.961  0.00  0.00    +0.000 A 
BRANCH  13  20
ATOM     19  C   UNL     1      32.805  -6.438  32.255  0.00  0.00    +0.000 C 
ATOM     20  O   UNL     1      32.683  -5.982  33.566  0.00  0.00    +0.000 OA
ENDBRANCH  13  20
ENDBRANCH   1  16
TORSDOF 3
ENDMDL
MODEL 5
REMARK VINA RESULT:      -6.1     18.786     20.047
REMARK  Name = 
REMARK  3 active torsions:
REMARK  status: ('A' for Active; 'I' for Inactive)
REMARK    1  A    between atoms: O_2  and  C_3
REMARK    2  A    between atoms: C_6  and  N_7
REMARK    3  A    between atoms: C_8  and  C_10
REMARK                            x       y       z     vdW  Elec       q    Type
REMARK                         _______ _______ _______ _____ _____    ______ ____
ROOT
ATOM      1  N   UNL     1      29.652  22.074  27.454  0.00  0.00    +0.000 NA
ATOM      2  C   UNL     1      30.045  22.980  28.475  0.00  0.00    +0.000 C 
ATOM      3  O   UNL     1      30.028  24.177  28.153  0.00  0.00    +0.000 OA
ENDROOT
BRANCH   2   4
ATOM      4  C   UNL     1      30.448  22.513  29.840  0.00  0.00    +0.000 A 
ATOM      5  C   UNL     1      29.542  22.616  30.862  0.00  0.00    +0.000 A 
ATOM      6  N   UNL     1      28.187  23.139  30.797  0.00  0.00    +0.000 NA
ATOM      7  S   UNL     1      30.390  21.991  32.196  0.00  0.00    +0.000 S 
ATOM      8  C   UNL     1      31.866  21.612  31.438  0.00  0.00    +0.000 A 
ATOM      9  C   UNL     1      31.663  21.987  30.146  0.00  0.00    +0.000 A 
ATOM     10  C   UNL     1      32.953  21.684  29.371  0.00  0.00    +0.000 C 
ATOM     11  C   UNL     1      33.981  21.718  30.473  0.00  0.00    +0.000 C 
ATOM     12  C   UNL     1      33.257  21.045  31.638  0.00  0.00    +0.000 C 
ENDBRANCH   2   4
BRANCH   1  16
ATOM     13  C   UNL     1      28.684  23.372  23.569  0.00  0.00    +0.000 A 
ATOM     14  C   UNL     1      27.668  23.251  24.495  0.00  0.00    +0.000 A 
ATOM     15  C   UNL     1      27.981  22.821  25.783  0.00  0.00    +0.000 A 
ATOM     16  C   UNL     1      29.269  22.515  26.159  0.00  0.00    +0.000 A 
ATOM     17  C   UNL     1      30.251  22.651  25.202  0.00  0.00    +0.000 A 
ATOM     18  C   UNL     1      29.972  23.077  23.909  0.00  0.00    +0.000 A 
BRANCH  13  20
ATOM     19  C   UNL     1      29.155  24.591  21.491  0.00  0.00    +0.000 C 
ATOM     20  O   UNL     1      28.325  23.806  22.288  0.00  0.00    +0.000 OA
ENDBRANCH  13  20
ENDBRANCH   1  16
TORSDOF 3
ENDMDL
MODEL 6
REMARK VINA RESULT:      -6.0     22.197     23.393
REMARK  Name = 
REMARK  3 active torsions:
REMARK  status: ('A' for Active; 'I' for Inactive)
REMARK    1  A    between atoms: O_2  and  C_3
REMARK    2  A    between atoms: C_6  and  N_7
REMARK    3  A    between atoms: C_8  and  C_10
REMARK                            x       y       z     vdW  Elec       q    Type
REMARK                         _______ _______ _______ _____ _____    ______ ____
ROOT
ATOM      1  N   UNL     1      22.237  -7.732  23.674  0.00  0.00    +0.000 NA
ATOM      2  C   UNL     1      21.750  -8.251  24.904  0.00  0.00    +0.000 C 
ATOM      3  O   UNL     1      22.610  -8.757  25.640  0.00  0.00    +0.000 OA
ENDROOT
BRANCH   2   4
ATOM      4  C   UNL     1      20.301  -8.186  25.276  0.00  0.00    +0.000 A 
ATOM      5  C   UNL     1      19.509  -9.273  25.017  0.00  0.00    +0.000 A 
ATOM      6  N   UNL     1      19.901 -10.532  24.407  0.00  0.00    +0.000 NA
ATOM      7  S   UNL     1      17.981  -8.782  25.581  0.00  0.00    +0.000 S 
ATOM      8  C   UNL     1      18.374  -7.220  26.131  0.00  0.00    +0.000 A 
ATOM      9  C   UNL     1      19.703  -7.114  25.858  0.00  0.00    +0.000 A 
ATOM     10  C   UNL     1      20.157  -5.723  26.322  0.00  0.00    +0.000 C 
ATOM     11  C   UNL     1      18.865  -4.949  26.264  0.00  0.00    +0.000 C 
ATOM     12  C   UNL     1      17.839  -5.958  26.776  0.00  0.00    +0.000 C 
ENDBRANCH   2   4
BRANCH   1  16
ATOM     13  C   UNL     1      26.277  -8.058  22.540  0.00  0.00    +0.000 A 
ATOM     14  C   UNL     1      25.896  -6.983  23.317  0.00  0.00    +0.000 A 
ATOM     15  C   UNL     1      24.560  -6.868  23.696  0.00  0.00    +0.000 A 
ATOM     16  C   UNL     1      23.611  -7.792  23.321  0.00  0.00    +0.000 A 
ATOM     17  C   UNL     1      24.037  -8.849  22.546  0.00  0.00    +0.000 A 
ATOM     18  C   UNL     1      25.363  -8.992  22.151  0.00  0.00    +0.000 A 
BRANCH  13  20
ATOM     19  C   UNL     1      28.383  -7.020  21.820  0.00  0.00    +0.000 C 
ATOM     20  O   UNL     1      27.627  -8.134  22.182  0.00  0.00    +0.000 OA
ENDBRANCH  13  20
ENDBRANCH   1  16
TORSDOF 3
ENDMDL
MODEL 7
REMARK VINA RESULT:      -5.9     21.426     23.363
REMARK  Name = 
REMARK  3 active torsions:
REMARK  status: ('A' for Active; 'I' for Inactive)
REMARK    1  A    between atoms: O_2  and  C_3
REMARK    2  A    between atoms: C_6  and  N_7
REMARK    3  A    between atoms: C_8  and  C_10
REMARK                            x       y       z     vdW  Elec       q    Type
REMARK                         _______ _______ _______ _____ _____    ______ ____
ROOT
ATOM      1  N   UNL     1      31.078  24.712  24.780  0.00  0.00    +0.000 NA
ATOM      2  C   UNL     1      30.466  23.583  24.171  0.00  0.00    +0.000 C 
ATOM      3  O   UNL     1      31.187  22.580  24.076  0.00  0.00    +0.000 OA
ENDROOT
BRANCH   2   4
ATOM      4  C   UNL     1      29.050  23.614  23.685  0.00  0.00    +0.000 A 
ATOM      5  C   UNL     1      28.810  23.975  22.386  0.00  0.00    +0.000 A 
ATOM      6  N   UNL     1      29.785  24.348  21.375  0.00  0.00    +0.000 NA
ATOM      7  S   UNL     1      27.117  23.879  22.263  0.00  0.00    +0.000 S 
ATOM      8  C   UNL     1      26.748  23.385  23.849  0.00  0.00    +0.000 A 
ATOM      9  C   UNL     1      27.968  23.306  24.447  0.00  0.00    +0.000 A 
ATOM     10  C   UNL     1      27.739  22.863  25.900  0.00  0.00    +0.000 C 
ATOM     11  C   UNL     1      26.325  23.327  26.137  0.00  0.00    +0.000 C 
ATOM     12  C   UNL     1      25.635  23.016  24.809  0.00  0.00    +0.000 C 
ENDBRANCH   2   4
BRANCH   1  16
ATOM     13  C   UNL     1      34.999  24.598  26.307  0.00  0.00    +0.000 A 
ATOM     14  C   UNL     1      34.823  24.842  24.961  0.00  0.00    +0.000 A 
ATOM     15  C   UNL     1      33.529  24.881  24.448  0.00  0.00    +0.000 A 
ATOM     16  C   UNL     1      32.421  24.685  25.242  0.00  0.00    +0.000 A 
ATOM     17  C   UNL     1      32.643  24.446  26.581  0.00  0.00    +0.000 A 
ATOM     18  C   UNL     1      33.923  24.400  27.123  0.00  0.00    +0.000 A 
BRANCH  13  20
ATOM     19  C   UNL     1      37.376  24.045  26.044  0.00  0.00    +0.000 C 
ATOM     20  O   UNL     1      36.315  24.568  26.780  0.00  0.00    +0.000 OA
ENDBRANCH  13  20
ENDBRANCH   1  16
TORSDOF 3
ENDMDL
MODEL 8
REMARK VINA RESULT:      -5.8     18.748     20.886
REMARK  Name = 
REMARK  3 active torsions:
REMARK  status: ('A' for Active; 'I' for Inactive)
REMARK    1  A    between atoms: O_2  and  C_3
REMARK    2  A    between atoms: C_6  and  N_7
REMARK    3  A    between atoms: C_8  and  C_10
REMARK                            x       y       z     vdW  Elec       q    Type
REMARK                         _______ _______ _______ _____ _____    ______ ____
ROOT
ATOM      1  N   UNL     1      29.769  23.402  27.539  0.00  0.00    +0.000 NA
ATOM      2  C   UNL     1      29.707  22.549  26.403  0.00  0.00    +0.000 C 
ATOM      3  O   UNL     1      30.086  21.386  26.595  0.00  0.00    +0.000 OA
ENDROOT
BRANCH   2   4
ATOM      4  C   UNL     1      29.213  23.033  25.074  0.00  0.00    +0.000 A 
ATOM      5  C   UNL     1      30.132  23.420  24.135  0.00  0.00    +0.000 A 
ATOM      6  N   UNL     1      31.580  23.425  24.260  0.00  0.00    +0.000 NA
ATOM      7  S   UNL     1      29.166  23.884  22.815  0.00  0.00    +0.000 S 
ATOM      8  C   UNL     1      27.626  23.579  23.473  0.00  0.00    +0.000 A 
ATOM      9  C   UNL     1      27.903  23.118  24.723  0.00  0.00    +0.000 A 
ATOM     10  C   UNL     1      26.563  22.812  25.407  0.00  0.00    +0.000 C 
ATOM     11  C   UNL     1      25.627  23.722  24.655  0.00  0.00    +0.000 C 
ATOM     12  C   UNL     1      26.134  23.622  23.217  0.00  0.00    +0.000 C 
ENDBRANCH   2   4
BRANCH   1  16
ATOM     13  C   UNL     1      30.992  22.062  31.336  0.00  0.00    +0.000 A 
ATOM     14  C   UNL     1      31.938  22.162  30.337  0.00  0.00    +0.000 A 
ATOM     15  C   UNL     1      31.541  22.604  29.078  0.00  0.00    +0.000 A 
ATOM     16  C   UNL     1      30.236  22.945  28.800  0.00  0.00    +0.000 A 
ATOM     17  C   UNL     1      29.325  22.830  29.827  0.00  0.00    +0.000 A 
ATOM     18  C   UNL     1      29.691  22.391  31.095  0.00  0.00    +0.000 A 
BRANCH  13  20
ATOM     19  C   UNL     1      30.572  21.348  33.647  0.00  0.00    +0.000 C 
ATOM     20  O   UNL     1      31.434  21.613  32.585  0.00  0.00    +0.000 OA
ENDBRANCH  13  20
ENDBRANCH   1  16
TORSDOF 3
ENDMDL
MODEL 9
REMARK VINA RESULT:      -5.7     18.044     19.843
REMARK  Name = 
REMARK  3 active torsions:
REMARK  status: ('A' for Active; 'I' for Inactive)
REMARK    1  A    between atoms: O_2  and  C_3
REMARK    2  A    between atoms: C_6  and  N_7
REMARK    3  A    between atoms: C_8  and  C_10
REMARK                            x       y       z     vdW  Elec       q    Type
REMARK                         _______ _______ _______ _____ _____    ______ ____
ROOT
ATOM      1  N   UNL     1      28.780  23.613  29.239  0.00  0.00    +0.000 NA
ATOM      2  C   UNL     1      27.549  23.021  28.845  0.00  0.00    +0.000 C 
ATOM      3  O   UNL     1      27.397  21.841  29.191  0.00  0.00    +0.000 OA
ENDROOT
BRANCH   2   4
ATOM      4  C   UNL     1      26.515  23.779  28.070  0.00  0.00    +0.000 A 
ATOM      5  C   UNL     1      25.611  24.544  28.757  0.00  0.00    +0.000 A 
ATOM      6  N   UNL     1      25.517  24.729  30.196  0.00  0.00    +0.000 NA
ATOM      7  S   UNL     1      24.649  25.209  27.523  0.00  0.00    +0.000 S 
ATOM      8  C   UNL     1      25.406  24.509  26.169  0.00  0.00    +0.000 A 
ATOM      9  C   UNL     1      26.404  23.763  26.716  0.00  0.00    +0.000 A 
ATOM     10  C   UNL     1      27.154  23.083  25.562  0.00  0.00    +0.000 C 
ATOM     11  C   UNL     1      26.093  23.050  24.491  0.00  0.00    +0.000 C 
ATOM     12  C   UNL     1      25.397  24.401  24.658  0.00  0.00    +0.000 C 
ENDBRANCH   2   4
BRANCH   1  16
ATOM     13  C   UNL     1      31.785  21.484  31.275  0.00  0.00    +0.000 A 
ATOM     14  C   UNL     1      30.645  21.839  31.967  0.00  0.00    +0.000 A 
ATOM     15  C   UNL     1      29.646  22.544  31.300  0.00  0.00    +0.000 A 
ATOM     16  C   UNL     1      29.761  22.896  29.974  0.00  0.00    +0.000 A 
ATOM     17  C   UNL     1      30.916  22.521  29.323  0.00  0.00    +0.000 A 
ATOM     18  C   UNL     1      31.931  21.818  29.961  0.00  0.00    +0.000 A 
BRANCH  13  20
ATOM     19  C   UNL     1      34.125  20.880  31.710  0.00  0.00    +0.000 C 
ATOM     20  O   UNL     1      32.762  20.777  31.984  0.00  0.00    +0.000 OA
ENDBRANCH  13  20
ENDBRANCH   1  16
TORSDOF 3
ENDMDL
MODEL 10
REMARK VINA RESULT:      -5.7     18.928     21.017
REMARK  Name = 
REMARK  3 active torsions:
REMARK  status: ('A' for Active; 'I' for Inactive)
REMARK    1  A    between atoms: O_2  and  C_3
REMARK    2  A    between atoms: C_6  and  N_7
REMARK    3  A    between atoms: C_8  and  C_10
REMARK                            x       y       z     vdW  Elec       q    Type
REMARK                         _______ _______ _______ _____ _____    ______ ____
ROOT
ATOM      1  N   UNL     1      29.427  23.570  27.571  0.00  0.00    +0.000 NA
ATOM      2  C   UNL     1      28.371  22.903  26.893  0.00  0.00    +0.000 C 
ATOM      3  O   UNL     1      28.221  21.711  27.193  0.00  0.00    +0.000 OA
ENDROOT
BRANCH   2   4
ATOM      4  C   UNL     1      27.506  23.602  25.890  0.00  0.00    +0.000 A 
ATOM      5  C   UNL     1      26.284  24.073  26.293  0.00  0.00    +0.000 A 
ATOM      6  N   UNL     1      25.691  23.983  27.617  0.00  0.00    +0.000 NA
ATOM      7  S   UNL     1      25.653  24.775  24.878  0.00  0.00    +0.000 S 
ATOM      8  C   UNL     1      26.941  24.461  23.811  0.00  0.00    +0.000 A 
ATOM      9  C   UNL     1      27.845  23.807  24.590  0.00  0.00    +0.000 A 
ATOM     10  C   UNL     1      29.057  23.475  23.708  0.00  0.00    +0.000 C 
ATOM     11  C   UNL     1      28.434  23.456  22.336  0.00  0.00    +0.000 C 
ATOM     12  C   UNL     1      27.446  24.620  22.391  0.00  0.00    +0.000 C 
ENDBRANCH   2   4
BRANCH   1  16
ATOM     13  C   UNL     1      31.751  21.661  30.515  0.00  0.00    +0.000 A 
ATOM     14  C   UNL     1      32.165  21.589  29.201  0.00  0.00    +0.000 A 
ATOM     15  C   UNL     1      31.401  22.218  28.221  0.00  0.00    +0.000 A 
ATOM     16  C   UNL     1      30.248  22.908  28.523  0.00  0.00    +0.000 A 
ATOM     17  C   UNL     1      29.873  22.954  29.848  0.00  0.00    +0.000 A 
ATOM     18  C   UNL     1      30.614  22.336  30.849  0.00  0.00    +0.000 A 
BRANCH  13  20
ATOM     19  C   UNL     1      33.941  21.018  31.422  0.00  0.00    +0.000 C 
ATOM     20  O   UNL     1      32.548  21.015  31.466  0.00  0.00    +0.000 OA
ENDBRANCH  13  20
ENDBRANCH   1  16
TORSDOF 3
ENDMDL
