MODEL 1
REMARK VINA RESULT:      -7.7      0.000      0.000
REMARK  Name = 
REMARK  7 active torsions:
REMARK  status: ('A' for Active; 'I' for Inactive)
REMARK    1  A    between atoms: C_2  and  O_3
REMARK    2  A    between atoms: O_3  and  C_4
REMARK    3  A    between atoms: C_7  and  N_8
REMARK    4  A    between atoms: C_11  and  N_12
REMARK    5  A    between atoms: N_12  and  C_13
REMARK    6  A    between atoms: C_21  and  S_22
REMARK    7  A    between atoms: S_22  and  C_23
REMARK                            x       y       z     vdW  Elec       q    Type
REMARK                         _______ _______ _______ _____ _____    ______ ____
ROOT
ATOM      1  N   UNL     1      38.216   3.851  16.134  0.00  0.00    +0.000 N 
ATOM      2  C   UNL     1      37.338   2.765  16.338  0.00  0.00    +0.000 C 
ATOM      3  O   UNL     1      36.538   2.661  17.306  0.00  0.00    +0.000 OA
ATOM      4  C   UNL     1      37.487   1.791  15.277  0.00  0.00    +0.000 C 
ATOM      5  C   UNL     1      38.444   2.266  14.429  0.00  0.00    +0.000 C 
ATOM      6  C   UNL     1      38.923   3.544  14.923  0.00  0.00    +0.000 C 
ATOM      7  O   UNL     1      39.790   4.325  14.464  0.00  0.00    +0.000 OA
ENDROOT
BRANCH   1  11
ATOM      8  C   UNL     1      38.870   7.320  18.509  0.00  0.00    +0.000 A 
ATOM      9  C   UNL     1      39.147   6.045  18.919  0.00  0.00    +0.000 A 
ATOM     10  C   UNL     1      38.963   4.893  18.210  0.00  0.00    +0.000 A 
ATOM     11  C   UNL     1      38.424   5.026  16.906  0.00  0.00    +0.000 A 
ATOM     12  C   UNL     1      38.142   6.269  16.473  0.00  0.00    +0.000 A 
ATOM     13  C   UNL     1      38.341   7.425  17.216  0.00  0.00    +0.000 A 
BRANCH   8  14
ATOM     14  O   UNL     1      39.097   8.427  19.311  0.00  0.00    +0.000 OA
BRANCH  14  16
ATOM     15  C   UNL     1      38.556   9.906  21.074  0.00  0.00    +0.000 C 
ATOM     16  C   UNL     1      38.791   8.485  20.669  0.00  0.00    +0.000 C 
ENDBRANCH  14  16
ENDBRANCH   8  14
ENDBRANCH   1  11
BRANCH   4  17
ATOM     17  N   UNL     1      36.815   0.575  15.079  0.00  0.00    +0.000 NA
BRANCH  17  18
ATOM     18  C   UNL     1      36.916  -0.578  15.896  0.00  0.00    +0.000 A 
ATOM     19  C   UNL     1      38.040  -1.395  15.842  0.00  0.00    +0.000 A 
ATOM     20  C   UNL     1      38.125  -2.525  16.652  0.00  0.00    +0.000 A 
ATOM     21  C   UNL     1      39.338  -3.406  16.594  0.00  0.00    +0.000 C 
ATOM     22  C   UNL     1      37.131  -2.872  17.515  0.00  0.00    +0.000 A 
ATOM     23  C   UNL     1      36.004  -2.069  17.583  0.00  0.00    +0.000 A 
ATOM     24  C   UNL     1      35.927  -0.945  16.772  0.00  0.00    +0.000 A 
ATOM     25  C   UNL     1      34.686  -0.134  16.901  0.00  0.00    +0.000 C 
ENDBRANCH  17  18
ENDBRANCH   4  17
BRANCH   5  26
ATOM     26  S   UNL     1      38.975   1.426  12.974  0.00  0.00    +0.000 S 
BRANCH  26  27
ATOM     27  C   UNL     1      39.892  -0.047  13.210  0.00  0.00    +0.000 A 
ATOM     28  C   UNL     1      39.636  -1.225  12.575  0.00  0.00    +0.000 A 
ATOM     29  C   UNL     1      40.362  -2.372  12.792  0.00  0.00    +0.000 A 
ATOM     30  C   UNL     1      41.427  -2.405  13.695  0.00  0.00    +0.000 A 
ATOM     31  C   UNL     1      41.693  -1.221  14.340  0.00  0.00    +0.000 A 
ATOM     32  C   UNL     1      40.967  -0.081  14.119  0.00  0.00    +0.000 A 
ENDBRANCH  26  27
ENDBRANCH   5  26
TORSDOF 7
ENDMDL
MODEL 2
REMARK VINA RESULT:      -7.5      2.995      9.234
REMARK  Name = 
REMARK  7 active torsions:
REMARK  status: ('A' for Active; 'I' for Inactive)
REMARK    1  A    between atoms: C_2  and  O_3
REMARK    2  A    between atoms: O_3  and  C_4
REMARK    3  A    between atoms: C_7  and  N_8
REMARK    4  A    between atoms: C_11  and  N_12
REMARK    5  A    between atoms: N_12  and  C_13
REMARK    6  A    between atoms: C_21  and  S_22
REMARK    7  A    between atoms: S_22  and  C_23
REMARK                            x       y       z     vdW  Elec       q    Type
REMARK                         _______ _______ _______ _____ _____    ______ ____
ROOT
ATOM      1  N   UNL     1      36.944   3.365  15.909  0.00  0.00    +0.000 N 
ATOM      2  C   UNL     1      37.742   4.129  16.788  0.00  0.00    +0.000 C 
ATOM      3  O   UNL     1      38.159   3.732  17.908  0.00  0.00    +0.000 OA
ATOM      4  C   UNL     1      38.013   5.432  16.217  0.00  0.00    +0.000 C 
ATOM      5  C   UNL     1      37.391   5.475  15.004  0.00  0.00    +0.000 C 
ATOM      6  C   UNL     1      36.715   4.212  14.773  0.00  0.00    +0.000 C 
ATOM      7  O   UNL     1      36.029   3.817  13.800  0.00  0.00    +0.000 OA
ENDROOT
BRANCH   1  11
ATOM      8  C   UNL     1      35.340  -0.550  16.354  0.00  0.00    +0.000 A 
ATOM      9  C   UNL     1      34.787   0.573  16.904  0.00  0.00    +0.000 A 
ATOM     10  C   UNL     1      35.248   1.854  16.800  0.00  0.00    +0.000 A 
ATOM     11  C   UNL     1      36.429   2.047  16.042  0.00  0.00    +0.000 A 
ATOM     12  C   UNL     1      36.996   0.960  15.487  0.00  0.00    +0.000 A 
ATOM     13  C   UNL     1      36.505  -0.333  15.608  0.00  0.00    +0.000 A 
BRANCH   8  14
ATOM     14  O   UNL     1      34.788  -1.811  16.520  0.00  0.00    +0.000 OA
BRANCH  14  16
ATOM     15  C   UNL     1      34.771  -3.669  15.059  0.00  0.00    +0.000 C 
ATOM     16  C   UNL     1      35.447  -3.000  16.215  0.00  0.00    +0.000 C 
ENDBRANCH  14  16
ENDBRANCH   8  14
ENDBRANCH   1  11
BRANCH   4  17
ATOM     17  N   UNL     1      38.765   6.497  16.737  0.00  0.00    +0.000 NA
BRANCH  17  18
ATOM     18  C   UNL     1      38.326   7.434  17.705  0.00  0.00    +0.000 A 
ATOM     19  C   UNL     1      37.451   8.460  17.362  0.00  0.00    +0.000 A 
ATOM     20  C   UNL     1      37.029   9.372  18.325  0.00  0.00    +0.000 A 
ATOM     21  C   UNL     1      36.085  10.479  17.953  0.00  0.00    +0.000 C 
ATOM     22  C   UNL     1      37.444   9.303  19.619  0.00  0.00    +0.000 A 
ATOM     23  C   UNL     1      38.316   8.287  19.980  0.00  0.00    +0.000 A 
ATOM     24  C   UNL     1      38.733   7.381  19.013  0.00  0.00    +0.000 A 
ATOM     25  C   UNL     1      39.667   6.321  19.477  0.00  0.00    +0.000 C 
ENDBRANCH  17  18
ENDBRANCH   4  17
BRANCH   5  26
ATOM     26  S   UNL     1      37.436   6.866  13.922  0.00  0.00    +0.000 S 
BRANCH  26  27
ATOM     27  C   UNL     1      36.179   8.066  14.138  0.00  0.00    +0.000 A 
ATOM     28  C   UNL     1      36.358   9.407  13.978  0.00  0.00    +0.000 A 
ATOM     29  C   UNL     1      35.357  10.330  14.171  0.00  0.00    +0.000 A 
ATOM     30  C   UNL     1      34.069   9.945  14.550  0.00  0.00    +0.000 A 
ATOM     31  C   UNL     1      33.879   8.594  14.713  0.00  0.00    +0.000 A 
ATOM     32  C   UNL     1      34.880   7.678  14.520  0.00  0.00    +0.000 A 
ENDBRANCH  26  27
ENDBRANCH   5  26
TORSDOF 7
ENDMDL
MODEL 3
REMARK VINA RESULT:      -7.4      3.255      5.265
REMARK  Name = 
REMARK  7 active torsions:
REMARK  status: ('A' for Active; 'I' for Inactive)
REMARK    1  A    between atoms: C_2  and  O_3
REMARK    2  A    between atoms: O_3  and  C_4
REMARK    3  A    between atoms: C_7  and  N_8
REMARK    4  A    between atoms: C_11  and  N_12
REMARK    5  A    between atoms: N_12  and  C_13
REMARK    6  A    between atoms: C_21  and  S_22
REMARK    7  A    between atoms: S_22  and  C_23
REMARK                            x       y       z     vdW  Elec       q    Type
REMARK                         _______ _______ _______ _____ _____    ______ ____
ROOT
ATOM      1  N   UNL     1      38.744   5.225  16.651  0.00  0.00    +0.000 N 
ATOM      2  C   UNL     1      37.820   4.160  16.714  0.00  0.00    +0.000 C 
ATOM      3  O   UNL     1      37.597   3.462  17.739  0.00  0.00    +0.000 OA
ATOM      4  C   UNL     1      37.162   3.986  15.435  0.00  0.00    +0.000 C 
ATOM      5  C   UNL     1      37.674   4.928  14.591  0.00  0.00    +0.000 C 
ATOM      6  C   UNL     1      38.659   5.720  15.306  0.00  0.00    +0.000 C 
ATOM      7  O   UNL     1      39.367   6.681  14.925  0.00  0.00    +0.000 OA
ENDROOT
BRANCH   1  11
ATOM      8  C   UNL     1      41.275   6.808  19.681  0.00  0.00    +0.000 A 
ATOM      9  C   UNL     1      39.947   6.536  19.856  0.00  0.00    +0.000 A 
ATOM     10  C   UNL     1      39.081   6.028  18.930  0.00  0.00    +0.000 A 
ATOM     11  C   UNL     1      39.611   5.753  17.644  0.00  0.00    +0.000 A 
ATOM     12  C   UNL     1      40.917   6.011  17.442  0.00  0.00    +0.000 A 
ATOM     13  C   UNL     1      41.775   6.527  18.403  0.00  0.00    +0.000 A 
BRANCH   8  14
ATOM     14  O   UNL     1      42.069   7.324  20.693  0.00  0.00    +0.000 OA
BRANCH  14  16
ATOM     15  C   UNL     1      43.731   6.047  21.787  0.00  0.00    +0.000 C 
ATOM     16  C   UNL     1      43.445   7.123  20.788  0.00  0.00    +0.000 C 
ENDBRANCH  14  16
ENDBRANCH   8  14
ENDBRANCH   1  11
BRANCH   4  17
ATOM     17  N   UNL     1      36.178   3.062  15.054  0.00  0.00    +0.000 NA
BRANCH  17  18
ATOM     18  C   UNL     1      36.357   1.664  14.908  0.00  0.00    +0.000 A 
ATOM     19  C   UNL     1      37.115   1.146  13.864  0.00  0.00    +0.000 A 
ATOM     20  C   UNL     1      37.281  -0.230  13.735  0.00  0.00    +0.000 A 
ATOM     21  C   UNL     1      38.100  -0.789  12.607  0.00  0.00    +0.000 C 
ATOM     22  C   UNL     1      36.721  -1.112  14.607  0.00  0.00    +0.000 A 
ATOM     23  C   UNL     1      35.963  -0.614  15.655  0.00  0.00    +0.000 A 
ATOM     24  C   UNL     1      35.801   0.760  15.776  0.00  0.00    +0.000 A 
ATOM     25  C   UNL     1      34.974   1.217  16.925  0.00  0.00    +0.000 C 
ENDBRANCH  17  18
ENDBRANCH   4  17
BRANCH   5  26
ATOM     26  S   UNL     1      37.180   5.118  12.911  0.00  0.00    +0.000 S 
BRANCH  26  27
ATOM     27  C   UNL     1      35.670   5.960  12.629  0.00  0.00    +0.000 A 
ATOM     28  C   UNL     1      35.268   6.437  11.418  0.00  0.00    +0.000 A 
ATOM     29  C   UNL     1      34.084   7.110  11.228  0.00  0.00    +0.000 A 
ATOM     30  C   UNL     1      33.202   7.353  12.283  0.00  0.00    +0.000 A 
ATOM     31  C   UNL     1      33.600   6.875  13.509  0.00  0.00    +0.000 A 
ATOM     32  C   UNL     1      34.780   6.204  13.693  0.00  0.00    +0.000 A 
ENDBRANCH  26  27
ENDBRANCH   5  26
TORSDOF 7
ENDMDL
MODEL 4
REMARK VINA RESULT:      -7.4      1.340      3.555
REMARK  Name = 
REMARK  7 active torsions:
REMARK  status: ('A' for Active; 'I' for Inactive)
REMARK    1  A    between atoms: C_2  and  O_3
REMARK    2  A    between atoms: O_3  and  C_4
REMARK    3  A    between atoms: C_7  and  N_8
REMARK    4  A    between atoms: C_11  and  N_12
REMARK    5  A    between atoms: N_12  and  C_13
REMARK    6  A    between atoms: C_21  and  S_22
REMARK    7  A    between atoms: S_22  and  C_23
REMARK                            x       y       z     vdW  Elec       q    Type
REMARK                         _______ _______ _______ _____ _____    ______ ____
ROOT
ATOM      1  N   UNL     1      38.393   4.142  16.091  0.00  0.00    +0.000 N 
ATOM      2  C   UNL     1      39.074   3.839  14.893  0.00  0.00    +0.000 C 
ATOM      3  O   UNL     1      40.050   4.492  14.436  0.00  0.00    +0.000 OA
ATOM      4  C   UNL     1      38.492   2.670  14.265  0.00  0.00    +0.000 C 
ATOM      5  C   UNL     1      37.465   2.257  15.062  0.00  0.00    +0.000 C 
ATOM      6  C   UNL     1      37.369   3.143  16.208  0.00  0.00    +0.000 C 
ATOM      7  O   UNL     1      36.579   3.136  17.182  0.00  0.00    +0.000 OA
ENDROOT
BRANCH   1  11
ATOM      8  C   UNL     1      38.985   7.326  18.850  0.00  0.00    +0.000 A 
ATOM      9  C   UNL     1      38.430   7.479  17.610  0.00  0.00    +0.000 A 
ATOM     10  C   UNL     1      38.212   6.503  16.680  0.00  0.00    +0.000 A 
ATOM     11  C   UNL     1      38.602   5.187  17.031  0.00  0.00    +0.000 A 
ATOM     12  C   UNL     1      39.151   5.006  18.247  0.00  0.00    +0.000 A 
ATOM     13  C   UNL     1      39.360   6.016  19.175  0.00  0.00    +0.000 A 
BRANCH   8  14
ATOM     14  O   UNL     1      39.162   8.388  19.723  0.00  0.00    +0.000 OA
BRANCH  14  16
ATOM     15  C   UNL     1      38.483  10.223  21.050  0.00  0.00    +0.000 C 
ATOM     16  C   UNL     1      38.209   8.807  20.649  0.00  0.00    +0.000 C 
ENDBRANCH  14  16
ENDBRANCH   8  14
ENDBRANCH   1  11
BRANCH   4  17
ATOM     17  N   UNL     1      38.856   2.020  13.076  0.00  0.00    +0.000 NA
BRANCH  17  18
ATOM     18  C   UNL     1      39.474   0.750  12.974  0.00  0.00    +0.000 A 
ATOM     19  C   UNL     1      40.493   0.379  13.845  0.00  0.00    +0.000 A 
ATOM     20  C   UNL     1      41.090  -0.874  13.732  0.00  0.00    +0.000 A 
ATOM     21  C   UNL     1      42.190  -1.274  14.672  0.00  0.00    +0.000 C 
ATOM     22  C   UNL     1      40.711  -1.774  12.784  0.00  0.00    +0.000 A 
ATOM     23  C   UNL     1      39.696  -1.422  11.907  0.00  0.00    +0.000 A 
ATOM     24  C   UNL     1      39.106  -0.171  12.026  0.00  0.00    +0.000 A 
ATOM     25  C   UNL     1      38.026   0.134  11.050  0.00  0.00    +0.000 C 
ENDBRANCH  17  18
ENDBRANCH   4  17
BRANCH   5  26
ATOM     26  S   UNL     1      36.450   0.860  14.715  0.00  0.00    +0.000 S 
BRANCH  26  27
ATOM     27  C   UNL     1      37.155  -0.714  15.016  0.00  0.00    +0.000 A 
ATOM     28  C   UNL     1      36.867  -1.838  14.302  0.00  0.00    +0.000 A 
ATOM     29  C   UNL     1      37.423  -3.066  14.570  0.00  0.00    +0.000 A 
ATOM     30  C   UNL     1      38.335  -3.245  15.613  0.00  0.00    +0.000 A 
ATOM     31  C   UNL     1      38.633  -2.116  16.339  0.00  0.00    +0.000 A 
ATOM     32  C   UNL     1      38.076  -0.895  16.066  0.00  0.00    +0.000 A 
ENDBRANCH  26  27
ENDBRANCH   5  26
TORSDOF 7
ENDMDL
MODEL 5
REMARK VINA RESULT:      -7.3      4.330      8.368
REMARK  Name = 
REMARK  7 active torsions:
REMARK  status: ('A' for Active; 'I' for Inactive)
REMARK    1  A    between atoms: C_2  and  O_3
REMARK    2  A    between atoms: O_3  and  C_4
REMARK    3  A    between atoms: C_7  and  N_8
REMARK    4  A    between atoms: C_11  and  N_12
REMARK    5  A    between atoms: N_12  and  C_13
REMARK    6  A    between atoms: C_21  and  S_22
REMARK    7  A    between atoms: S_22  and  C_23
REMARK                            x       y       z     vdW  Elec       q    Type
REMARK                         _______ _______ _______ _____ _____    ______ ____
ROOT
ATOM      1  N   UNL     1      40.001  -2.003  14.478  0.00  0.00    +0.000 N 
ATOM      2  C   UNL     1      38.961  -1.177  14.000  0.00  0.00    +0.000 C 
ATOM      3  O   UNL     1      39.081  -0.340  13.065  0.00  0.00    +0.000 OA
ATOM      4  C   UNL     1      37.739  -1.430  14.735  0.00  0.00    +0.000 C 
ATOM      5  C   UNL     1      38.019  -2.396  15.656  0.00  0.00    +0.000 C 
ATOM      6  C   UNL     1      39.413  -2.782  15.531  0.00  0.00    +0.000 C 
ATOM      7  O   UNL     1      40.088  -3.625  16.167  0.00  0.00    +0.000 OA
ENDROOT
BRANCH   1  11
ATOM      8  C   UNL     1      44.045  -2.367  13.208  0.00  0.00    +0.000 A 
ATOM      9  C   UNL     1      43.019  -3.132  12.728  0.00  0.00    +0.000 A 
ATOM     10  C   UNL     1      41.704  -3.067  13.090  0.00  0.00    +0.000 A 
ATOM     11  C   UNL     1      41.359  -2.104  14.072  0.00  0.00    +0.000 A 
ATOM     12  C   UNL     1      42.349  -1.335  14.562  0.00  0.00    +0.000 A 
ATOM     13  C   UNL     1      43.679  -1.422  14.175  0.00  0.00    +0.000 A 
BRANCH   8  14
ATOM     14  O   UNL     1      45.352  -2.514  12.770  0.00  0.00    +0.000 OA
BRANCH  14  16
ATOM     15  C   UNL     1      46.408  -4.028  14.247  0.00  0.00    +0.000 C 
ATOM     16  C   UNL     1      46.066  -3.710  12.825  0.00  0.00    +0.000 C 
ENDBRANCH  14  16
ENDBRANCH   8  14
ENDBRANCH   1  11
BRANCH   4  17
ATOM     17  N   UNL     1      36.471  -0.846  14.590  0.00  0.00    +0.000 NA
BRANCH  17  18
ATOM     18  C   UNL     1      36.134   0.500  14.877  0.00  0.00    +0.000 A 
ATOM     19  C   UNL     1      36.527   1.531  14.031  0.00  0.00    +0.000 A 
ATOM     20  C   UNL     1      36.187   2.849  14.327  0.00  0.00    +0.000 A 
ATOM     21  C   UNL     1      36.611   3.962  13.413  0.00  0.00    +0.000 C 
ATOM     22  C   UNL     1      35.470   3.180  15.435  0.00  0.00    +0.000 A 
ATOM     23  C   UNL     1      35.069   2.165  16.290  0.00  0.00    +0.000 A 
ATOM     24  C   UNL     1      35.412   0.854  15.988  0.00  0.00    +0.000 A 
ATOM     25  C   UNL     1      34.948  -0.179  16.953  0.00  0.00    +0.000 C 
ENDBRANCH  17  18
ENDBRANCH   4  17
BRANCH   5  26
ATOM     26  S   UNL     1      36.839  -3.046  16.792  0.00  0.00    +0.000 S 
BRANCH  26  27
ATOM     27  C   UNL     1      35.634  -4.133  16.133  0.00  0.00    +0.000 A 
ATOM     28  C   UNL     1      35.728  -5.492  16.155  0.00  0.00    +0.000 A 
ATOM     29  C   UNL     1      34.775  -6.323  15.615  0.00  0.00    +0.000 A 
ATOM     30  C   UNL     1      33.629  -5.818  14.997  0.00  0.00    +0.000 A 
ATOM     31  C   UNL     1      33.525  -4.448  14.971  0.00  0.00    +0.000 A 
ATOM     32  C   UNL     1      34.478  -3.625  15.511  0.00  0.00    +0.000 A 
ENDBRANCH  26  27
ENDBRANCH   5  26
TORSDOF 7
ENDMDL
MODEL 6
REMARK VINA RESULT:      -7.3      2.986      8.967
REMARK  Name = 
REMARK  7 active torsions:
REMARK  status: ('A' for Active; 'I' for Inactive)
REMARK    1  A    between atoms: C_2  and  O_3
REMARK    2  A    between atoms: O_3  and  C_4
REMARK    3  A    between atoms: C_7  and  N_8
REMARK    4  A    between atoms: C_11  and  N_12
REMARK    5  A    between atoms: N_12  and  C_13
REMARK    6  A    between atoms: C_21  and  S_22
REMARK    7  A    between atoms: S_22  and  C_23
REMARK                            x       y       z     vdW  Elec       q    Type
REMARK                         _______ _______ _______ _____ _____    ______ ____
ROOT
ATOM      1  N   UNL     1      36.833   3.462  15.824  0.00  0.00    +0.000 N 
ATOM      2  C   UNL     1      37.738   4.212  16.606  0.00  0.00    +0.000 C 
ATOM      3  O   UNL     1      38.287   3.799  17.662  0.00  0.00    +0.000 OA
ATOM      4  C   UNL     1      37.945   5.521  16.021  0.00  0.00    +0.000 C 
ATOM      5  C   UNL     1      37.178   5.581  14.895  0.00  0.00    +0.000 C 
ATOM      6  C   UNL     1      36.471   4.324  14.734  0.00  0.00    +0.000 C 
ATOM      7  O   UNL     1      35.668   3.945  13.849  0.00  0.00    +0.000 OA
ENDROOT
BRANCH   1  11
ATOM      8  C   UNL     1      35.390  -0.510  16.311  0.00  0.00    +0.000 A 
ATOM      9  C   UNL     1      36.478  -0.176  15.553  0.00  0.00    +0.000 A 
ATOM     10  C   UNL     1      36.993   1.073  15.356  0.00  0.00    +0.000 A 
ATOM     11  C   UNL     1      36.330   2.145  16.004  0.00  0.00    +0.000 A 
ATOM     12  C   UNL     1      35.256   1.847  16.758  0.00  0.00    +0.000 A 
ATOM     13  C   UNL     1      34.754   0.567  16.943  0.00  0.00    +0.000 A 
BRANCH   8  14
ATOM     14  O   UNL     1      34.949  -1.817  16.447  0.00  0.00    +0.000 OA
BRANCH  14  16
ATOM     15  C   UNL     1      35.130  -4.024  15.619  0.00  0.00    +0.000 C 
ATOM     16  C   UNL     1      35.783  -2.933  16.407  0.00  0.00    +0.000 C 
ENDBRANCH  14  16
ENDBRANCH   8  14
ENDBRANCH   1  11
BRANCH   4  17
ATOM     17  N   UNL     1      38.762   6.575  16.458  0.00  0.00    +0.000 NA
BRANCH  17  18
ATOM     18  C   UNL     1      39.052   6.904  17.804  0.00  0.00    +0.000 A 
ATOM     19  C   UNL     1      40.166   6.373  18.446  0.00  0.00    +0.000 A 
ATOM     20  C   UNL     1      40.438   6.707  19.770  0.00  0.00    +0.000 A 
ATOM     21  C   UNL     1      41.641   6.133  20.461  0.00  0.00    +0.000 C 
ATOM     22  C   UNL     1      39.641   7.550  20.482  0.00  0.00    +0.000 A 
ATOM     23  C   UNL     1      38.527   8.089  19.860  0.00  0.00    +0.000 A 
ATOM     24  C   UNL     1      38.262   7.751  18.539  0.00  0.00    +0.000 A 
ATOM     25  C   UNL     1      37.048   8.369  17.941  0.00  0.00    +0.000 C 
ENDBRANCH  17  18
ENDBRANCH   4  17
BRANCH   5  26
ATOM     26  S   UNL     1      37.098   6.985  13.833  0.00  0.00    +0.000 S 
BRANCH  26  27
ATOM     27  C   UNL     1      36.013   8.271  14.316  0.00  0.00    +0.000 A 
ATOM     28  C   UNL     1      36.384   9.572  14.479  0.00  0.00    +0.000 A 
ATOM     29  C   UNL     1      35.514  10.560  14.876  0.00  0.00    +0.000 A 
ATOM     30  C   UNL     1      34.170  10.289  15.143  0.00  0.00    +0.000 A 
ATOM     31  C   UNL     1      33.787   8.979  14.980  0.00  0.00    +0.000 A 
ATOM     32  C   UNL     1      34.658   7.999  14.584  0.00  0.00    +0.000 A 
ENDBRANCH  26  27
ENDBRANCH   5  26
TORSDOF 7
ENDMDL
MODEL 7
REMARK VINA RESULT:      -7.3      3.618      8.632
REMARK  Name = 
REMARK  7 active torsions:
REMARK  status: ('A' for Active; 'I' for Inactive)
REMARK    1  A    between atoms: C_2  and  O_3
REMARK    2  A    between atoms: O_3  and  C_4
REMARK    3  A    between atoms: C_7  and  N_8
REMARK    4  A    between atoms: C_11  and  N_12
REMARK    5  A    between atoms: N_12  and  C_13
REMARK    6  A    between atoms: C_21  and  S_22
REMARK    7  A    between atoms: S_22  and  C_23
REMARK                            x       y       z     vdW  Elec       q    Type
REMARK                         _______ _______ _______ _____ _____    ______ ____
ROOT
ATOM      1  N   UNL     1      36.790   2.061  14.912  0.00  0.00    +0.000 N 
ATOM      2  C   UNL     1      35.871   3.095  14.630  0.00  0.00    +0.000 C 
ATOM      3  O   UNL     1      34.640   2.924  14.422  0.00  0.00    +0.000 OA
ATOM      4  C   UNL     1      36.544   4.377  14.615  0.00  0.00    +0.000 C 
ATOM      5  C   UNL     1      37.861   4.141  14.882  0.00  0.00    +0.000 C 
ATOM      6  C   UNL     1      38.057   2.716  15.074  0.00  0.00    +0.000 C 
ATOM      7  O   UNL     1      39.094   2.062  15.336  0.00  0.00    +0.000 OA
ENDROOT
BRANCH   1  11
ATOM      8  C   UNL     1      36.241  -2.150  15.168  0.00  0.00    +0.000 A 
ATOM      9  C   UNL     1      36.835  -1.516  14.112  0.00  0.00    +0.000 A 
ATOM     10  C   UNL     1      37.043  -0.175  13.967  0.00  0.00    +0.000 A 
ATOM     11  C   UNL     1      36.594   0.658  15.023  0.00  0.00    +0.000 A 
ATOM     12  C   UNL     1      36.006   0.063  16.076  0.00  0.00    +0.000 A 
ATOM     13  C   UNL     1      35.808  -1.306  16.199  0.00  0.00    +0.000 A 
BRANCH   8  14
ATOM     14  O   UNL     1      36.080  -3.525  15.216  0.00  0.00    +0.000 OA
BRANCH  14  16
ATOM     15  C   UNL     1      35.778  -5.674  16.154  0.00  0.00    +0.000 C 
ATOM     16  C   UNL     1      36.359  -4.307  16.335  0.00  0.00    +0.000 C 
ENDBRANCH  14  16
ENDBRANCH   8  14
ENDBRANCH   1  11
BRANCH   4  17
ATOM     17  N   UNL     1      36.020   5.659  14.388  0.00  0.00    +0.000 NA
BRANCH  17  18
ATOM     18  C   UNL     1      35.471   6.132  13.171  0.00  0.00    +0.000 A 
ATOM     19  C   UNL     1      36.066   5.827  11.952  0.00  0.00    +0.000 A 
ATOM     20  C   UNL     1      35.514   6.300  10.764  0.00  0.00    +0.000 A 
ATOM     21  C   UNL     1      36.157   5.969   9.448  0.00  0.00    +0.000 C 
ATOM     22  C   UNL     1      34.390   7.067  10.743  0.00  0.00    +0.000 A 
ATOM     23  C   UNL     1      33.783   7.381  11.949  0.00  0.00    +0.000 A 
ATOM     24  C   UNL     1      34.340   6.906  13.129  0.00  0.00    +0.000 A 
ATOM     25  C   UNL     1      33.632   7.286  14.380  0.00  0.00    +0.000 C 
ENDBRANCH  17  18
ENDBRANCH   4  17
BRANCH   5  26
ATOM     26  S   UNL     1      39.088   5.402  14.976  0.00  0.00    +0.000 S 
BRANCH  26  27
ATOM     27  C   UNL     1      39.738   5.745  16.565  0.00  0.00    +0.000 A 
ATOM     28  C   UNL     1      41.005   6.188  16.800  0.00  0.00    +0.000 A 
ATOM     29  C   UNL     1      41.496   6.434  18.061  0.00  0.00    +0.000 A 
ATOM     30  C   UNL     1      40.715   6.241  19.202  0.00  0.00    +0.000 A 
ATOM     31  C   UNL     1      39.435   5.794  18.974  0.00  0.00    +0.000 A 
ATOM     32  C   UNL     1      38.950   5.551  17.716  0.00  0.00    +0.000 A 
ENDBRANCH  26  27
ENDBRANCH   5  26
TORSDOF 7
ENDMDL
MODEL 8
REMARK VINA RESULT:      -7.2      3.304      8.552
REMARK  Name = 
REMARK  7 active torsions:
REMARK  status: ('A' for Active; 'I' for Inactive)
REMARK    1  A    between atoms: C_2  and  O_3
REMARK    2  A    between atoms: O_3  and  C_4
REMARK    3  A    between atoms: C_7  and  N_8
REMARK    4  A    between atoms: C_11  and  N_12
REMARK    5  A    between atoms: N_12  and  C_13
REMARK    6  A    between atoms: C_21  and  S_22
REMARK    7  A    between atoms: S_22  and  C_23
REMARK                            x       y       z     vdW  Elec       q    Type
REMARK                         _______ _______ _______ _____ _____    ______ ____
ROOT
ATOM      1  N   UNL     1      36.906   3.397  15.813  0.00  0.00    +0.000 N 
ATOM      2  C   UNL     1      37.746   4.192  16.623  0.00  0.00    +0.000 C 
ATOM      3  O   UNL     1      38.215   3.836  17.737  0.00  0.00    +0.000 OA
ATOM      4  C   UNL     1      37.991   5.472  15.990  0.00  0.00    +0.000 C 
ATOM      5  C   UNL     1      37.312   5.470  14.807  0.00  0.00    +0.000 C 
ATOM      6  C   UNL     1      36.625   4.201  14.657  0.00  0.00    +0.000 C 
ATOM      7  O   UNL     1      35.893   3.771  13.734  0.00  0.00    +0.000 OA
ENDROOT
BRANCH   1  11
ATOM      8  C   UNL     1      35.321  -0.494  16.479  0.00  0.00    +0.000 A 
ATOM      9  C   UNL     1      34.777   0.653  16.986  0.00  0.00    +0.000 A 
ATOM     10  C   UNL     1      35.233   1.928  16.811  0.00  0.00    +0.000 A 
ATOM     11  C   UNL     1      36.398   2.086  16.019  0.00  0.00    +0.000 A 
ATOM     12  C   UNL     1      36.956   0.974  15.506  0.00  0.00    +0.000 A 
ATOM     13  C   UNL     1      36.471  -0.311  15.699  0.00  0.00    +0.000 A 
BRANCH   8  14
ATOM     14  O   UNL     1      34.776  -1.746  16.718  0.00  0.00    +0.000 OA
BRANCH  14  16
ATOM     15  C   UNL     1      34.786  -3.593  15.242  0.00  0.00    +0.000 C 
ATOM     16  C   UNL     1      35.422  -2.948  16.433  0.00  0.00    +0.000 C 
ENDBRANCH  14  16
ENDBRANCH   8  14
ENDBRANCH   1  11
BRANCH   4  17
ATOM     17  N   UNL     1      38.767   6.554  16.434  0.00  0.00    +0.000 NA
BRANCH  17  18
ATOM     18  C   UNL     1      39.038   6.889  17.783  0.00  0.00    +0.000 A 
ATOM     19  C   UNL     1      40.124   6.335  18.452  0.00  0.00    +0.000 A 
ATOM     20  C   UNL     1      40.378   6.674  19.779  0.00  0.00    +0.000 A 
ATOM     21  C   UNL     1      41.551   6.076  20.500  0.00  0.00    +0.000 C 
ATOM     22  C   UNL     1      39.591   7.546  20.466  0.00  0.00    +0.000 A 
ATOM     23  C   UNL     1      38.504   8.108  19.816  0.00  0.00    +0.000 A 
ATOM     24  C   UNL     1      38.257   7.764  18.493  0.00  0.00    +0.000 A 
ATOM     25  C   UNL     1      37.073   8.408  17.864  0.00  0.00    +0.000 C 
ENDBRANCH  17  18
ENDBRANCH   4  17
BRANCH   5  26
ATOM     26  S   UNL     1      37.306   6.819  13.673  0.00  0.00    +0.000 S 
BRANCH  26  27
ATOM     27  C   UNL     1      35.866   7.013  12.695  0.00  0.00    +0.000 A 
ATOM     28  C   UNL     1      34.596   7.030  13.189  0.00  0.00    +0.000 A 
ATOM     29  C   UNL     1      33.481   7.168  12.396  0.00  0.00    +0.000 A 
ATOM     30  C   UNL     1      33.580   7.300  11.009  0.00  0.00    +0.000 A 
ATOM     31  C   UNL     1      34.858   7.284  10.503  0.00  0.00    +0.000 A 
ATOM     32  C   UNL     1      35.965   7.147  11.297  0.00  0.00    +0.000 A 
ENDBRANCH  26  27
ENDBRANCH   5  26
TORSDOF 7
ENDMDL
MODEL 9
REMARK VINA RESULT:      -7.1      3.249      8.926
REMARK  Name = 
REMARK  7 active torsions:
REMARK  status: ('A' for Active; 'I' for Inactive)
REMARK    1  A    between atoms: C_2  and  O_3
REMARK    2  A    between atoms: O_3  and  C_4
REMARK    3  A    between atoms: C_7  and  N_8
REMARK    4  A    between atoms: C_11  and  N_12
REMARK    5  A    between atoms: N_12  and  C_13
REMARK    6  A    between atoms: C_21  and  S_22
REMARK    7  A    between atoms: S_22  and  C_23
REMARK                            x       y       z     vdW  Elec       q    Type
REMARK                         _______ _______ _______ _____ _____    ______ ____
ROOT
ATOM      1  N   UNL     1      37.030   3.513  15.979  0.00  0.00    +0.000 N 
ATOM      2  C   UNL     1      37.803   4.249  16.903  0.00  0.00    +0.000 C 
ATOM      3  O   UNL     1      38.201   3.811  18.015  0.00  0.00    +0.000 OA
ATOM      4  C   UNL     1      38.073   5.577  16.390  0.00  0.00    +0.000 C 
ATOM      5  C   UNL     1      37.474   5.662  15.167  0.00  0.00    +0.000 C 
ATOM      6  C   UNL     1      36.816   4.402  14.872  0.00  0.00    +0.000 C 
ATOM      7  O   UNL     1      36.154   4.041  13.871  0.00  0.00    +0.000 OA
ENDROOT
BRANCH   1  11
ATOM      8  C   UNL     1      35.457  -0.431  16.236  0.00  0.00    +0.000 A 
ATOM      9  C   UNL     1      34.887   0.662  16.826  0.00  0.00    +0.000 A 
ATOM     10  C   UNL     1      35.337   1.950  16.783  0.00  0.00    +0.000 A 
ATOM     11  C   UNL     1      36.526   2.186  16.049  0.00  0.00    +0.000 A 
ATOM     12  C   UNL     1      37.111   1.129  15.456  0.00  0.00    +0.000 A 
ATOM     13  C   UNL     1      36.630  -0.172  15.515  0.00  0.00    +0.000 A 
BRANCH   8  14
ATOM     14  O   UNL     1      34.916  -1.703  16.341  0.00  0.00    +0.000 OA
BRANCH  14  16
ATOM     15  C   UNL     1      35.249  -3.607  14.981  0.00  0.00    +0.000 C 
ATOM     16  C   UNL     1      35.653  -2.879  16.225  0.00  0.00    +0.000 C 
ENDBRANCH  14  16
ENDBRANCH   8  14
ENDBRANCH   1  11
BRANCH   4  17
ATOM     17  N   UNL     1      38.802   6.627  16.967  0.00  0.00    +0.000 NA
BRANCH  17  18
ATOM     18  C   UNL     1      40.187   6.615  17.267  0.00  0.00    +0.000 A 
ATOM     19  C   UNL     1      41.138   6.666  16.253  0.00  0.00    +0.000 A 
ATOM     20  C   UNL     1      42.495   6.654  16.564  0.00  0.00    +0.000 A 
ATOM     21  C   UNL     1      43.521   6.709  15.469  0.00  0.00    +0.000 C 
ATOM     22  C   UNL     1      42.943   6.594  17.848  0.00  0.00    +0.000 A 
ATOM     23  C   UNL     1      42.010   6.544  18.871  0.00  0.00    +0.000 A 
ATOM     24  C   UNL     1      40.658   6.555  18.553  0.00  0.00    +0.000 A 
ATOM     25  C   UNL     1      39.719   6.498  19.705  0.00  0.00    +0.000 C 
ENDBRANCH  17  18
ENDBRANCH   4  17
BRANCH   5  26
ATOM     26  S   UNL     1      37.527   7.095  14.143  0.00  0.00    +0.000 S 
BRANCH  26  27
ATOM     27  C   UNL     1      36.225   8.248  14.344  0.00  0.00    +0.000 A 
ATOM     28  C   UNL     1      35.868   8.808  15.534  0.00  0.00    +0.000 A 
ATOM     29  C   UNL     1      34.829   9.700  15.666  0.00  0.00    +0.000 A 
ATOM     30  C   UNL     1      34.060  10.095  14.570  0.00  0.00    +0.000 A 
ATOM     31  C   UNL     1      34.413   9.536  13.366  0.00  0.00    +0.000 A 
ATOM     32  C   UNL     1      35.449   8.649  13.239  0.00  0.00    +0.000 A 
ENDBRANCH  26  27
ENDBRANCH   5  26
TORSDOF 7
ENDMDL
MODEL 10
REMARK VINA RESULT:      -7.0     23.982     27.726
REMARK  Name = 
REMARK  7 active torsions:
REMARK  status: ('A' for Active; 'I' for Inactive)
REMARK    1  A    between atoms: C_2  and  O_3
REMARK    2  A    between atoms: O_3  and  C_4
REMARK    3  A    between atoms: C_7  and  N_8
REMARK    4  A    between atoms: C_11  and  N_12
REMARK    5  A    between atoms: N_12  and  C_13
REMARK    6  A    between atoms: C_21  and  S_22
REMARK    7  A    between atoms: S_22  and  C_23
REMARK                            x       y       z     vdW  Elec       q    Type
REMARK                         _______ _______ _______ _____ _____    ______ ____
ROOT
ATOM      1  N   UNL     1      15.315  -0.149  26.967  0.00  0.00    +0.000 N 
ATOM      2  C   UNL     1      13.990  -0.353  26.526  0.00  0.00    +0.000 C 
ATOM      3  O   UNL     1      13.662  -0.636  25.343  0.00  0.00    +0.000 OA
ATOM      4  C   UNL     1      13.062  -0.193  27.628  0.00  0.00    +0.000 C 
ATOM      5  C   UNL     1      13.802   0.107  28.733  0.00  0.00    +0.000 C 
ATOM      6  C   UNL     1      15.207   0.145  28.368  0.00  0.00    +0.000 C 
ATOM      7  O   UNL     1      16.225   0.378  29.061  0.00  0.00    +0.000 OA
ENDROOT
BRANCH   1  11
ATOM      8  C   UNL     1      18.989  -0.206  24.823  0.00  0.00    +0.000 A 
ATOM      9  C   UNL     1      18.323   0.935  25.174  0.00  0.00    +0.000 A 
ATOM     10  C   UNL     1      17.146   1.024  25.860  0.00  0.00    +0.000 A 
ATOM     11  C   UNL     1      16.542  -0.197  26.252  0.00  0.00    +0.000 A 
ATOM     12  C   UNL     1      17.175  -1.337  25.921  0.00  0.00    +0.000 A 
ATOM     13  C   UNL     1      18.373  -1.399  25.223  0.00  0.00    +0.000 A 
BRANCH   8  14
ATOM     14  O   UNL     1      20.185  -0.185  24.124  0.00  0.00    +0.000 OA
BRANCH  14  16
ATOM     15  C   UNL     1      20.957  -1.251  22.160  0.00  0.00    +0.000 C 
ATOM     16  C   UNL     1      20.281  -0.049  22.740  0.00  0.00    +0.000 C 
ENDBRANCH  14  16
ENDBRANCH   8  14
ENDBRANCH   1  11
BRANCH   4  17
ATOM     17  N   UNL     1      11.664  -0.314  27.643  0.00  0.00    +0.000 NA
BRANCH  17  18
ATOM     18  C   UNL     1      10.744   0.565  27.021  0.00  0.00    +0.000 A 
ATOM     19  C   UNL     1      10.502   1.832  27.542  0.00  0.00    +0.000 A 
ATOM     20  C   UNL     1       9.594   2.684  26.918  0.00  0.00    +0.000 A 
ATOM     21  C   UNL     1       9.334   4.052  27.480  0.00  0.00    +0.000 C 
ATOM     22  C   UNL     1       8.916   2.323  25.794  0.00  0.00    +0.000 A 
ATOM     23  C   UNL     1       9.145   1.064  25.261  0.00  0.00    +0.000 A 
ATOM     24  C   UNL     1      10.051   0.220  25.889  0.00  0.00    +0.000 A 
ATOM     25  C   UNL     1      10.242  -1.113  25.258  0.00  0.00    +0.000 C 
ENDBRANCH  17  18
ENDBRANCH   4  17
BRANCH   5  26
ATOM     26  S   UNL     1      13.115   0.391  30.331  0.00  0.00    +0.000 S 
BRANCH  26  27
ATOM     27  C   UNL     1      13.758  -0.576  31.642  0.00  0.00    +0.000 A 
ATOM     28  C   UNL     1      13.294  -1.809  31.990  0.00  0.00    +0.000 A 
ATOM     29  C   UNL     1      13.806  -2.540  33.035  0.00  0.00    +0.000 A 
ATOM     30  C   UNL     1      14.853  -2.057  33.823  0.00  0.00    +0.000 A 
ATOM     31  C   UNL     1      15.329  -0.815  33.478  0.00  0.00    +0.000 A 
ATOM     32  C   UNL     1      14.815  -0.090  32.435  0.00  0.00    +0.000 A 
ENDBRANCH  26  27
ENDBRANCH   5  26
TORSDOF 7
ENDMDL
