MODEL 1
REMARK VINA RESULT:      -6.8      0.000      0.000
REMARK  Name = 
REMARK  3 active torsions:
REMARK  status: ('A' for Active; 'I' for Inactive)
REMARK    1  A    between atoms: C_2  and  C_4
REMARK    2  A    between atoms: C_4  and  C_5
REMARK    3  A    between atoms: N_9  and  C_10
REMARK                            x       y       z     vdW  Elec       q    Type
REMARK                         _______ _______ _______ _____ _____    ______ ____
ROOT
ATOM      1  C   UNL     1      29.218  23.984  23.237  0.00  0.00    +0.000 C 
ATOM      2  N   UNL     1      28.055  23.380  22.389  0.00  0.00    +0.000 NA
ATOM      3  C   UNL     1      26.922  23.504  23.206  0.00  0.00    +0.000 C 
ATOM      4  O   UNL     1      25.869  22.835  23.076  0.00  0.00    +0.000 OA
ATOM      5  N   UNL     1      27.082  24.483  24.222  0.00  0.00    +0.000 N 
ATOM      6  C   UNL     1      28.347  25.021  24.076  0.00  0.00    +0.000 C 
ATOM      7  O   UNL     1      28.822  26.075  24.468  0.00  0.00    +0.000 OA
ENDROOT
BRANCH   5   8
ATOM      8  C   UNL     1      26.161  24.884  25.227  0.00  0.00    +0.000 A 
ATOM      9  C   UNL     1      25.140  25.795  24.975  0.00  0.00    +0.000 A 
ATOM     10  C   UNL     1      24.257  26.172  25.965  0.00  0.00    +0.000 A 
ATOM     11  C   UNL     1      24.343  25.668  27.244  0.00  0.00    +0.000 A 
ATOM     12  C   UNL     1      25.368  24.750  27.506  0.00  0.00    +0.000 A 
ATOM     13  C   UNL     1      25.524  24.199  28.754  0.00  0.00    +0.000 A 
ATOM     14  C   UNL     1      26.519  23.307  29.009  0.00  0.00    +0.000 A 
ATOM     15  C   UNL     1      27.384  22.952  27.998  0.00  0.00    +0.000 A 
ATOM     16  C   UNL     1      27.271  23.476  26.728  0.00  0.00    +0.000 A 
ATOM     17  C   UNL     1      26.245  24.379  26.511  0.00  0.00    +0.000 A 
ENDBRANCH   5   8
BRANCH   1  18
ATOM     18  C   UNL     1      29.180  22.811  24.402  0.00  0.00    +0.000 C 
BRANCH  18  20
ATOM     19  C   UNL     1      31.592  23.548  24.347  0.00  0.00    +0.000 C 
ATOM     20  C   UNL     1      30.582  22.524  24.788  0.00  0.00    +0.000 C 
ATOM     21  C   UNL     1      30.651  22.341  26.282  0.00  0.00    +0.000 C 
ENDBRANCH  18  20
ENDBRANCH   1  18
TORSDOF 3
ENDMDL
MODEL 2
REMARK VINA RESULT:      -6.3      3.093      6.335
REMARK  Name = 
REMARK  3 active torsions:
REMARK  status: ('A' for Active; 'I' for Inactive)
REMARK    1  A    between atoms: C_2  and  C_4
REMARK    2  A    between atoms: C_4  and  C_5
REMARK    3  A    between atoms: N_9  and  C_10
REMARK                            x       y       z     vdW  Elec       q    Type
REMARK                         _______ _______ _______ _____ _____    ______ ____
ROOT
ATOM      1  C   UNL     1      25.998  24.817  29.845  0.00  0.00    +0.000 C 
ATOM      2  N   UNL     1      25.820  23.434  30.545  0.00  0.00    +0.000 NA
ATOM      3  C   UNL     1      26.891  22.661  30.073  0.00  0.00    +0.000 C 
ATOM      4  O   UNL     1      26.931  21.407  30.088  0.00  0.00    +0.000 OA
ATOM      5  N   UNL     1      27.955  23.450  29.561  0.00  0.00    +0.000 N 
ATOM      6  C   UNL     1      27.583  24.774  29.697  0.00  0.00    +0.000 C 
ATOM      7  O   UNL     1      28.248  25.798  29.716  0.00  0.00    +0.000 OA
ENDROOT
BRANCH   5   8
ATOM      8  C   UNL     1      29.191  23.027  29.004  0.00  0.00    +0.000 A 
ATOM      9  C   UNL     1      30.306  22.759  29.792  0.00  0.00    +0.000 A 
ATOM     10  C   UNL     1      31.498  22.350  29.231  0.00  0.00    +0.000 A 
ATOM     11  C   UNL     1      31.641  22.189  27.870  0.00  0.00    +0.000 A 
ATOM     12  C   UNL     1      30.524  22.456  27.070  0.00  0.00    +0.000 A 
ATOM     13  C   UNL     1      30.581  22.320  25.705  0.00  0.00    +0.000 A 
ATOM     14  C   UNL     1      29.495  22.580  24.926  0.00  0.00    +0.000 A 
ATOM     15  C   UNL     1      28.321  22.986  25.518  0.00  0.00    +0.000 A 
ATOM     16  C   UNL     1      28.210  23.139  26.884  0.00  0.00    +0.000 A 
ATOM     17  C   UNL     1      29.337  22.864  27.640  0.00  0.00    +0.000 A 
ENDBRANCH   5   8
BRANCH   1  18
ATOM     18  C   UNL     1      25.710  24.253  28.318  0.00  0.00    +0.000 C 
BRANCH  18  20
ATOM     19  C   UNL     1      25.172  25.119  26.011  0.00  0.00    +0.000 C 
ATOM     20  C   UNL     1      25.351  25.417  27.475  0.00  0.00    +0.000 C 
ATOM     21  C   UNL     1      24.103  26.056  28.027  0.00  0.00    +0.000 C 
ENDBRANCH  18  20
ENDBRANCH   1  18
TORSDOF 3
ENDMDL
MODEL 3
REMARK VINA RESULT:      -6.2      2.466      4.703
REMARK  Name = 
REMARK  3 active torsions:
REMARK  status: ('A' for Active; 'I' for Inactive)
REMARK    1  A    between atoms: C_2  and  C_4
REMARK    2  A    between atoms: C_4  and  C_5
REMARK    3  A    between atoms: N_9  and  C_10
REMARK                            x       y       z     vdW  Elec       q    Type
REMARK                         _______ _______ _______ _____ _____    ______ ____
ROOT
ATOM      1  C   UNL     1      27.864  26.603  21.798  0.00  0.00    +0.000 C 
ATOM      2  N   UNL     1      27.155  25.256  21.452  0.00  0.00    +0.000 NA
ATOM      3  C   UNL     1      27.899  24.282  22.133  0.00  0.00    +0.000 C 
ATOM      4  O   UNL     1      27.907  23.060  21.852  0.00  0.00    +0.000 OA
ATOM      5  N   UNL     1      28.664  24.822  23.201  0.00  0.00    +0.000 N 
ATOM      6  C   UNL     1      28.423  26.183  23.230  0.00  0.00    +0.000 C 
ATOM      7  O   UNL     1      28.570  27.007  24.118  0.00  0.00    +0.000 OA
ENDROOT
BRANCH   5   8
ATOM      8  C   UNL     1      29.531  24.152  24.105  0.00  0.00    +0.000 A 
ATOM      9  C   UNL     1      30.910  24.128  23.930  0.00  0.00    +0.000 A 
ATOM     10  C   UNL     1      31.734  23.471  24.820  0.00  0.00    +0.000 A 
ATOM     11  C   UNL     1      31.233  22.808  25.919  0.00  0.00    +0.000 A 
ATOM     12  C   UNL     1      29.845  22.827  26.102  0.00  0.00    +0.000 A 
ATOM     13  C   UNL     1      29.263  22.192  27.172  0.00  0.00    +0.000 A 
ATOM     14  C   UNL     1      27.914  22.210  27.351  0.00  0.00    +0.000 A 
ATOM     15  C   UNL     1      27.121  22.875  26.444  0.00  0.00    +0.000 A 
ATOM     16  C   UNL     1      27.654  23.529  25.353  0.00  0.00    +0.000 A 
ATOM     17  C   UNL     1      29.030  23.486  25.208  0.00  0.00    +0.000 A 
ENDBRANCH   5   8
BRANCH   1  18
ATOM     18  C   UNL     1      29.266  26.245  21.000  0.00  0.00    +0.000 C 
BRANCH  18  20
ATOM     19  C   UNL     1      30.088  27.144  18.792  0.00  0.00    +0.000 C 
ATOM     20  C   UNL     1      29.635  27.434  20.196  0.00  0.00    +0.000 C 
ATOM     21  C   UNL     1      28.471  28.391  20.174  0.00  0.00    +0.000 C 
ENDBRANCH  18  20
ENDBRANCH   1  18
TORSDOF 3
ENDMDL
MODEL 4
REMARK VINA RESULT:      -6.2     33.324     34.590
REMARK  Name = 
REMARK  3 active torsions:
REMARK  status: ('A' for Active; 'I' for Inactive)
REMARK    1  A    between atoms: C_2  and  C_4
REMARK    2  A    between atoms: C_4  and  C_5
REMARK    3  A    between atoms: N_9  and  C_10
REMARK                            x       y       z     vdW  Elec       q    Type
REMARK                         _______ _______ _______ _____ _____    ______ ____
ROOT
ATOM      1  C   UNL     1      18.407 -11.380  28.962  0.00  0.00    +0.000 C 
ATOM      2  N   UNL     1      18.169 -11.829  27.486  0.00  0.00    +0.000 NA
ATOM      3  C   UNL     1      18.151 -10.634  26.753  0.00  0.00    +0.000 C 
ATOM      4  O   UNL     1      17.638 -10.497  25.616  0.00  0.00    +0.000 OA
ATOM      5  N   UNL     1      18.785  -9.561  27.435  0.00  0.00    +0.000 N 
ATOM      6  C   UNL     1      19.233 -10.055  28.646  0.00  0.00    +0.000 C 
ATOM      7  O   UNL     1      20.089  -9.645  29.414  0.00  0.00    +0.000 OA
ENDROOT
BRANCH   5   8
ATOM      8  C   UNL     1      18.961  -8.216  27.013  0.00  0.00    +0.000 A 
ATOM      9  C   UNL     1      18.052  -7.214  27.335  0.00  0.00    +0.000 A 
ATOM     10  C   UNL     1      18.241  -5.913  26.915  0.00  0.00    +0.000 A 
ATOM     11  C   UNL     1      19.334  -5.547  26.160  0.00  0.00    +0.000 A 
ATOM     12  C   UNL     1      20.254  -6.550  25.832  0.00  0.00    +0.000 A 
ATOM     13  C   UNL     1      21.371  -6.270  25.083  0.00  0.00    +0.000 A 
ATOM     14  C   UNL     1      22.266  -7.245  24.765  0.00  0.00    +0.000 A 
ATOM     15  C   UNL     1      22.046  -8.532  25.200  0.00  0.00    +0.000 A 
ATOM     16  C   UNL     1      20.942  -8.867  25.954  0.00  0.00    +0.000 A 
ATOM     17  C   UNL     1      20.056  -7.846  26.256  0.00  0.00    +0.000 A 
ENDBRANCH   5   8
BRANCH   1  18
ATOM     18  C   UNL     1      16.959 -10.596  29.116  0.00  0.00    +0.000 C 
BRANCH  18  20
ATOM     19  C   UNL     1      16.574 -12.464  30.766  0.00  0.00    +0.000 C 
ATOM     20  C   UNL     1      16.360 -11.021  30.403  0.00  0.00    +0.000 C 
ATOM     21  C   UNL     1      16.880 -10.130  31.503  0.00  0.00    +0.000 C 
ENDBRANCH  18  20
ENDBRANCH   1  18
TORSDOF 3
ENDMDL
MODEL 5
REMARK VINA RESULT:      -6.1     32.219     33.294
REMARK  Name = 
REMARK  3 active torsions:
REMARK  status: ('A' for Active; 'I' for Inactive)
REMARK    1  A    between atoms: C_2  and  C_4
REMARK    2  A    between atoms: C_4  and  C_5
REMARK    3  A    between atoms: N_9  and  C_10
REMARK                            x       y       z     vdW  Elec       q    Type
REMARK                         _______ _______ _______ _____ _____    ______ ____
ROOT
ATOM      1  C   UNL     1      22.735  -9.858  24.188  0.00  0.00    +0.000 C 
ATOM      2  N   UNL     1      23.112 -10.668  25.468  0.00  0.00    +0.000 NA
ATOM      3  C   UNL     1      22.167 -10.273  26.425  0.00  0.00    +0.000 C 
ATOM      4  O   UNL     1      22.310 -10.392  27.666  0.00  0.00    +0.000 OA
ATOM      5  N   UNL     1      20.999  -9.710  25.845  0.00  0.00    +0.000 N 
ATOM      6  C   UNL     1      21.173  -9.732  24.474  0.00  0.00    +0.000 C 
ATOM      7  O   UNL     1      20.365  -9.673  23.560  0.00  0.00    +0.000 OA
ENDROOT
BRANCH   5   8
ATOM      8  C   UNL     1      19.839  -9.203  26.489  0.00  0.00    +0.000 A 
ATOM      9  C   UNL     1      18.950 -10.027  27.171  0.00  0.00    +0.000 A 
ATOM     10  C   UNL     1      17.828  -9.515  27.788  0.00  0.00    +0.000 A 
ATOM     11  C   UNL     1      17.535  -8.169  27.760  0.00  0.00    +0.000 A 
ATOM     12  C   UNL     1      18.425  -7.333  27.075  0.00  0.00    +0.000 A 
ATOM     13  C   UNL     1      18.207  -5.978  26.999  0.00  0.00    +0.000 A 
ATOM     14  C   UNL     1      19.072  -5.164  26.334  0.00  0.00    +0.000 A 
ATOM     15  C   UNL     1      20.182  -5.708  25.729  0.00  0.00    +0.000 A 
ATOM     16  C   UNL     1      20.447  -7.061  25.775  0.00  0.00    +0.000 A 
ATOM     17  C   UNL     1      19.543  -7.853  26.461  0.00  0.00    +0.000 A 
ENDBRANCH   5   8
BRANCH   1  18
ATOM     18  C   UNL     1      23.105  -8.380  24.830  0.00  0.00    +0.000 C 
BRANCH  18  20
ATOM     19  C   UNL     1      23.663  -6.046  24.055  0.00  0.00    +0.000 C 
ATOM     20  C   UNL     1      23.528  -7.504  23.713  0.00  0.00    +0.000 C 
ATOM     21  C   UNL     1      24.824  -8.023  23.147  0.00  0.00    +0.000 C 
ENDBRANCH  18  20
ENDBRANCH   1  18
TORSDOF 3
ENDMDL
MODEL 6
REMARK VINA RESULT:      -6.0      3.488      6.591
REMARK  Name = 
REMARK  3 active torsions:
REMARK  status: ('A' for Active; 'I' for Inactive)
REMARK    1  A    between atoms: C_2  and  C_4
REMARK    2  A    between atoms: C_4  and  C_5
REMARK    3  A    between atoms: N_9  and  C_10
REMARK                            x       y       z     vdW  Elec       q    Type
REMARK                         _______ _______ _______ _____ _____    ______ ____
ROOT
ATOM      1  C   UNL     1      26.145  25.032  30.315  0.00  0.00    +0.000 C 
ATOM      2  N   UNL     1      25.993  23.592  30.898  0.00  0.00    +0.000 NA
ATOM      3  C   UNL     1      26.851  22.804  30.116  0.00  0.00    +0.000 C 
ATOM      4  O   UNL     1      26.771  21.558  29.999  0.00  0.00    +0.000 OA
ATOM      5  N   UNL     1      27.846  23.569  29.452  0.00  0.00    +0.000 N 
ATOM      6  C   UNL     1      27.645  24.892  29.799  0.00  0.00    +0.000 C 
ATOM      7  O   UNL     1      28.395  25.855  29.763  0.00  0.00    +0.000 OA
ENDROOT
BRANCH   5   8
ATOM      8  C   UNL     1      28.880  23.125  28.584  0.00  0.00    +0.000 A 
ATOM      9  C   UNL     1      28.743  23.142  27.200  0.00  0.00    +0.000 A 
ATOM     10  C   UNL     1      29.759  22.707  26.375  0.00  0.00    +0.000 A 
ATOM     11  C   UNL     1      30.951  22.235  26.879  0.00  0.00    +0.000 A 
ATOM     12  C   UNL     1      31.097  22.215  28.271  0.00  0.00    +0.000 A 
ATOM     13  C   UNL     1      32.253  21.760  28.857  0.00  0.00    +0.000 A 
ATOM     14  C   UNL     1      32.395  21.741  30.210  0.00  0.00    +0.000 A 
ATOM     15  C   UNL     1      31.362  22.183  31.004  0.00  0.00    +0.000 A 
ATOM     16  C   UNL     1      30.180  22.648  30.468  0.00  0.00    +0.000 A 
ATOM     17  C   UNL     1      30.076  22.652  29.088  0.00  0.00    +0.000 A 
ENDBRANCH   5   8
BRANCH   1  18
ATOM     18  C   UNL     1      25.470  24.673  28.849  0.00  0.00    +0.000 C 
BRANCH  18  20
ATOM     19  C   UNL     1      23.906  25.698  27.156  0.00  0.00    +0.000 C 
ATOM     20  C   UNL     1      24.765  25.888  28.376  0.00  0.00    +0.000 C 
ATOM     21  C   UNL     1      23.938  26.446  29.506  0.00  0.00    +0.000 C 
ENDBRANCH  18  20
ENDBRANCH   1  18
TORSDOF 3
ENDMDL
MODEL 7
REMARK VINA RESULT:      -5.9      3.510      6.531
REMARK  Name = 
REMARK  3 active torsions:
REMARK  status: ('A' for Active; 'I' for Inactive)
REMARK    1  A    between atoms: C_2  and  C_4
REMARK    2  A    between atoms: C_4  and  C_5
REMARK    3  A    between atoms: N_9  and  C_10
REMARK                            x       y       z     vdW  Elec       q    Type
REMARK                         _______ _______ _______ _____ _____    ______ ____
ROOT
ATOM      1  C   UNL     1      26.390  25.940  31.121  0.00  0.00    +0.000 C 
ATOM      2  N   UNL     1      26.354  24.490  31.699  0.00  0.00    +0.000 NA
ATOM      3  C   UNL     1      26.361  23.660  30.568  0.00  0.00    +0.000 C 
ATOM      4  O   UNL     1      25.982  22.465  30.554  0.00  0.00    +0.000 OA
ATOM      5  N   UNL     1      26.852  24.316  29.409  0.00  0.00    +0.000 N 
ATOM      6  C   UNL     1      27.178  25.608  29.777  0.00  0.00    +0.000 C 
ATOM      7  O   UNL     1      27.913  26.432  29.255  0.00  0.00    +0.000 OA
ENDROOT
BRANCH   5   8
ATOM      8  C   UNL     1      27.007  23.804  28.092  0.00  0.00    +0.000 A 
ATOM      9  C   UNL     1      25.975  23.831  27.161  0.00  0.00    +0.000 A 
ATOM     10  C   UNL     1      26.146  23.328  25.888  0.00  0.00    +0.000 A 
ATOM     11  C   UNL     1      27.341  22.777  25.480  0.00  0.00    +0.000 A 
ATOM     12  C   UNL     1      28.385  22.746  26.413  0.00  0.00    +0.000 A 
ATOM     13  C   UNL     1      29.609  22.214  26.088  0.00  0.00    +0.000 A 
ATOM     14  C   UNL     1      30.625  22.184  26.994  0.00  0.00    +0.000 A 
ATOM     15  C   UNL     1      30.421  22.695  28.255  0.00  0.00    +0.000 A 
ATOM     16  C   UNL     1      29.211  23.240  28.632  0.00  0.00    +0.000 A 
ATOM     17  C   UNL     1      28.205  23.251  27.682  0.00  0.00    +0.000 A 
ENDBRANCH   5   8
BRANCH   1  18
ATOM     18  C   UNL     1      24.895  25.859  30.419  0.00  0.00    +0.000 C 
BRANCH  18  20
ATOM     19  C   UNL     1      24.496  27.748  32.042  0.00  0.00    +0.000 C 
ATOM     20  C   UNL     1      23.944  26.549  31.321  0.00  0.00    +0.000 C 
ATOM     21  C   UNL     1      22.718  26.940  30.535  0.00  0.00    +0.000 C 
ENDBRANCH  18  20
ENDBRANCH   1  18
TORSDOF 3
ENDMDL
MODEL 8
REMARK VINA RESULT:      -5.8     33.441     34.621
REMARK  Name = 
REMARK  3 active torsions:
REMARK  status: ('A' for Active; 'I' for Inactive)
REMARK    1  A    between atoms: C_2  and  C_4
REMARK    2  A    between atoms: C_4  and  C_5
REMARK    3  A    between atoms: N_9  and  C_10
REMARK                            x       y       z     vdW  Elec       q    Type
REMARK                         _______ _______ _______ _____ _____    ______ ____
ROOT
ATOM      1  C   UNL     1      17.122 -11.239  27.701  0.00  0.00    +0.000 C 
ATOM      2  N   UNL     1      17.609 -10.823  29.124  0.00  0.00    +0.000 NA
ATOM      3  C   UNL     1      18.314  -9.628  28.920  0.00  0.00    +0.000 C 
ATOM      4  O   UNL     1      19.163  -9.152  29.712  0.00  0.00    +0.000 OA
ATOM      5  N   UNL     1      17.969  -8.989  27.700  0.00  0.00    +0.000 N 
ATOM      6  C   UNL     1      17.015  -9.775  27.081  0.00  0.00    +0.000 C 
ATOM      7  O   UNL     1      16.194  -9.512  26.217  0.00  0.00    +0.000 OA
ENDROOT
BRANCH   5   8
ATOM      8  C   UNL     1      18.468  -7.774  27.158  0.00  0.00    +0.000 A 
ATOM      9  C   UNL     1      17.800  -6.564  27.314  0.00  0.00    +0.000 A 
ATOM     10  C   UNL     1      18.301  -5.395  26.778  0.00  0.00    +0.000 A 
ATOM     11  C   UNL     1      19.480  -5.371  26.067  0.00  0.00    +0.000 A 
ATOM     12  C   UNL     1      20.158  -6.585  25.905  0.00  0.00    +0.000 A 
ATOM     13  C   UNL     1      21.341  -6.648  25.209  0.00  0.00    +0.000 A 
ATOM     14  C   UNL     1      22.001  -7.828  25.052  0.00  0.00    +0.000 A 
ATOM     15  C   UNL     1      21.474  -8.975  25.599  0.00  0.00    +0.000 A 
ATOM     16  C   UNL     1      20.290  -8.967  26.306  0.00  0.00    +0.000 A 
ATOM     17  C   UNL     1      19.650  -7.747  26.443  0.00  0.00    +0.000 A 
ENDBRANCH   5   8
BRANCH   1  18
ATOM     18  C   UNL     1      18.635 -11.524  27.100  0.00  0.00    +0.000 C 
BRANCH  18  20
ATOM     19  C   UNL     1      18.305 -14.024  27.127  0.00  0.00    +0.000 C 
ATOM     20  C   UNL     1      19.081 -12.835  27.625  0.00  0.00    +0.000 C 
ATOM     21  C   UNL     1      20.547 -13.013  27.322  0.00  0.00    +0.000 C 
ENDBRANCH  18  20
ENDBRANCH   1  18
TORSDOF 3
ENDMDL
MODEL 9
REMARK VINA RESULT:      -5.7     20.590     22.379
REMARK  Name = 
REMARK  3 active torsions:
REMARK  status: ('A' for Active; 'I' for Inactive)
REMARK    1  A    between atoms: C_2  and  C_4
REMARK    2  A    between atoms: C_4  and  C_5
REMARK    3  A    between atoms: N_9  and  C_10
REMARK                            x       y       z     vdW  Elec       q    Type
REMARK                         _______ _______ _______ _____ _____    ______ ____
ROOT
ATOM      1  C   UNL     1      23.418   1.907  17.693  0.00  0.00    +0.000 C 
ATOM      2  N   UNL     1      24.815   1.213  17.753  0.00  0.00    +0.000 NA
ATOM      3  C   UNL     1      25.682   2.112  17.115  0.00  0.00    +0.000 C 
ATOM      4  O   UNL     1      26.797   1.809  16.626  0.00  0.00    +0.000 OA
ATOM      5  N   UNL     1      25.168   3.435  17.073  0.00  0.00    +0.000 N 
ATOM      6  C   UNL     1      23.934   3.414  17.696  0.00  0.00    +0.000 C 
ATOM      7  O   UNL     1      23.268   4.309  18.191  0.00  0.00    +0.000 OA
ENDROOT
BRANCH   5   8
ATOM      8  C   UNL     1      25.754   4.603  16.515  0.00  0.00    +0.000 A 
ATOM      9  C   UNL     1      25.567   4.964  15.185  0.00  0.00    +0.000 A 
ATOM     10  C   UNL     1      26.146   6.101  14.663  0.00  0.00    +0.000 A 
ATOM     11  C   UNL     1      26.934   6.931  15.431  0.00  0.00    +0.000 A 
ATOM     12  C   UNL     1      27.128   6.575  16.771  0.00  0.00    +0.000 A 
ATOM     13  C   UNL     1      27.899   7.347  17.605  0.00  0.00    +0.000 A 
ATOM     14  C   UNL     1      28.087   7.002  18.908  0.00  0.00    +0.000 A 
ATOM     15  C   UNL     1      27.495   5.860  19.396  0.00  0.00    +0.000 A 
ATOM     16  C   UNL     1      26.711   5.050  18.602  0.00  0.00    +0.000 A 
ATOM     17  C   UNL     1      26.545   5.437  17.283  0.00  0.00    +0.000 A 
ENDBRANCH   5   8
BRANCH   1  18
ATOM     18  C   UNL     1      23.277   1.821  16.048  0.00  0.00    +0.000 C 
BRANCH  18  20
ATOM     19  C   UNL     1      21.734   3.135  14.547  0.00  0.00    +0.000 C 
ATOM     20  C   UNL     1      21.883   2.183  15.703  0.00  0.00    +0.000 C 
ATOM     21  C   UNL     1      21.100   0.923  15.437  0.00  0.00    +0.000 C 
ENDBRANCH  18  20
ENDBRANCH   1  18
TORSDOF 3
ENDMDL
MODEL 10
REMARK VINA RESULT:      -5.7     20.085     22.322
REMARK  Name = 
REMARK  3 active torsions:
REMARK  status: ('A' for Active; 'I' for Inactive)
REMARK    1  A    between atoms: C_2  and  C_4
REMARK    2  A    between atoms: C_4  and  C_5
REMARK    3  A    between atoms: N_9  and  C_10
REMARK                            x       y       z     vdW  Elec       q    Type
REMARK                         _______ _______ _______ _____ _____    ______ ____
ROOT
ATOM      1  C   UNL     1      21.384  10.852  38.731  0.00  0.00    +0.000 C 
ATOM      2  N   UNL     1      20.249  10.891  37.661  0.00  0.00    +0.000 NA
ATOM      3  C   UNL     1      19.462   9.764  37.941  0.00  0.00    +0.000 C 
ATOM      4  O   UNL     1      18.678   9.218  37.128  0.00  0.00    +0.000 OA
ATOM      5  N   UNL     1      19.640   9.286  39.266  0.00  0.00    +0.000 N 
ATOM      6  C   UNL     1      20.563  10.112  39.878  0.00  0.00    +0.000 C 
ATOM      7  O   UNL     1      20.798  10.320  41.058  0.00  0.00    +0.000 OA
ENDROOT
BRANCH   5   8
ATOM      8  C   UNL     1      19.020   8.179  39.905  0.00  0.00    +0.000 A 
ATOM      9  C   UNL     1      19.661   6.953  40.051  0.00  0.00    +0.000 A 
ATOM     10  C   UNL     1      19.041   5.890  40.674  0.00  0.00    +0.000 A 
ATOM     11  C   UNL     1      17.764   5.991  41.179  0.00  0.00    +0.000 A 
ATOM     12  C   UNL     1      17.111   7.221  41.037  0.00  0.00    +0.000 A 
ATOM     13  C   UNL     1      15.836   7.406  41.512  0.00  0.00    +0.000 A 
ATOM     14  C   UNL     1      15.201   8.602  41.374  0.00  0.00    +0.000 A 
ATOM     15  C   UNL     1      15.849   9.642  40.747  0.00  0.00    +0.000 A 
ATOM     16  C   UNL     1      17.128   9.510  40.251  0.00  0.00    +0.000 A 
ATOM     17  C   UNL     1      17.738   8.277  40.412  0.00  0.00    +0.000 A 
ENDBRANCH   5   8
BRANCH   1  18
ATOM     18  C   UNL     1      22.084   9.467  38.159  0.00  0.00    +0.000 C 
BRANCH  18  20
ATOM     19  C   UNL     1      23.643   9.471  36.176  0.00  0.00    +0.000 C 
ATOM     20  C   UNL     1      23.413   9.833  37.618  0.00  0.00    +0.000 C 
ATOM     21  C   UNL     1      23.635  11.310  37.819  0.00  0.00    +0.000 C 
ENDBRANCH  18  20
ENDBRANCH   1  18
TORSDOF 3
ENDMDL
