MODEL 1
REMARK VINA RESULT:      -8.1      0.000      0.000
REMARK  Name = 
REMARK  7 active torsions:
REMARK  status: ('A' for Active; 'I' for Inactive)
REMARK    1  A    between atoms: C_2  and  O_3
REMARK    2  A    between atoms: O_3  and  C_4
REMARK    3  A    between atoms: C_9  and  N_10
REMARK    4  A    between atoms: N_10  and  C_11
REMARK    5  A    between atoms: C_12  and  S_13
REMARK    6  A    between atoms: S_13  and  C_14
REMARK    7  A    between atoms: N_22  and  C_23
REMARK                            x       y       z     vdW  Elec       q    Type
REMARK                         _______ _______ _______ _____ _____    ______ ____
ROOT
ATOM      1  C   UNL     1      36.975  -0.377  15.766  0.00  0.00    +0.000 C 
ATOM      2  C   UNL     1      37.658  -0.778  14.672  0.00  0.00    +0.000 C 
ATOM      3  C   UNL     1      37.218  -2.111  14.394  0.00  0.00    +0.000 C 
ATOM      4  O   UNL     1      37.581  -2.889  13.463  0.00  0.00    +0.000 OA
ATOM      5  N   UNL     1      36.224  -2.540  15.364  0.00  0.00    +0.000 N 
ATOM      6  C   UNL     1      36.089  -1.420  16.221  0.00  0.00    +0.000 C 
ATOM      7  O   UNL     1      35.301  -1.386  17.220  0.00  0.00    +0.000 OA
ENDROOT
BRANCH   5   8
ATOM      8  C   UNL     1      35.566  -3.803  15.399  0.00  0.00    +0.000 A 
ATOM      9  C   UNL     1      34.348  -4.011  14.778  0.00  0.00    +0.000 A 
ATOM     10  C   UNL     1      33.716  -5.244  14.820  0.00  0.00    +0.000 A 
ATOM     11  C   UNL     1      34.279  -6.314  15.484  0.00  0.00    +0.000 A 
ATOM     12  C   UNL     1      33.580  -7.630  15.515  0.00  0.00    +0.000 C 
ATOM     13  C   UNL     1      35.492  -6.112  16.104  0.00  0.00    +0.000 A 
ATOM     14  C   UNL     1      36.122  -4.880  16.062  0.00  0.00    +0.000 A 
ATOM     15  C   UNL     1      37.429  -4.657  16.729  0.00  0.00    +0.000 C 
ENDBRANCH   5   8
BRANCH   1  16
ATOM     16  N   UNL     1      37.108   0.895  16.389  0.00  0.00    +0.000 NA
BRANCH  16  22
ATOM     17  C   UNL     1      37.128   3.224  15.655  0.00  0.00    +0.000 A 
ATOM     18  C   UNL     1      36.503   4.317  15.093  0.00  0.00    +0.000 A 
ATOM     19  C   UNL     1      35.186   4.228  14.669  0.00  0.00    +0.000 A 
ATOM     20  C   UNL     1      34.550   3.031  14.831  0.00  0.00    +0.000 A 
ATOM     21  C   UNL     1      35.182   1.932  15.397  0.00  0.00    +0.000 A 
ATOM     22  C   UNL     1      36.488   2.020  15.819  0.00  0.00    +0.000 A 
BRANCH  17  23
ATOM     23  O   UNL     1      38.444   3.374  16.060  0.00  0.00    +0.000 OA
BRANCH  23  25
ATOM     24  C   UNL     1      38.748   4.782  18.000  0.00  0.00    +0.000 C 
ATOM     25  C   UNL     1      38.951   4.590  16.532  0.00  0.00    +0.000 C 
ENDBRANCH  23  25
ENDBRANCH  17  23
ENDBRANCH  16  22
ENDBRANCH   1  16
BRANCH   2  26
ATOM     26  S   UNL     1      38.832   0.234  13.843  0.00  0.00    +0.000 S 
BRANCH  26  27
ATOM     27  C   UNL     1      40.485  -0.249  14.018  0.00  0.00    +0.000 A 
ATOM     28  C   UNL     1      41.583   0.514  13.777  0.00  0.00    +0.000 A 
ATOM     29  C   UNL     1      42.879   0.068  13.936  0.00  0.00    +0.000 A 
ATOM     30  C   UNL     1      43.085  -1.224  14.364  0.00  0.00    +0.000 A 
ATOM     31  C   UNL     1      42.001  -2.013  14.615  0.00  0.00    +0.000 A 
ATOM     32  C   UNL     1      40.730  -1.563  14.454  0.00  0.00    +0.000 A 
ENDBRANCH  26  27
ENDBRANCH   2  26
TORSDOF 7
ENDMDL
MODEL 2
REMARK VINA RESULT:      -8.0      3.858      7.827
REMARK  Name = 
REMARK  7 active torsions:
REMARK  status: ('A' for Active; 'I' for Inactive)
REMARK    1  A    between atoms: C_2  and  O_3
REMARK    2  A    between atoms: O_3  and  C_4
REMARK    3  A    between atoms: C_9  and  N_10
REMARK    4  A    between atoms: N_10  and  C_11
REMARK    5  A    between atoms: C_12  and  S_13
REMARK    6  A    between atoms: S_13  and  C_14
REMARK    7  A    between atoms: N_22  and  C_23
REMARK                            x       y       z     vdW  Elec       q    Type
REMARK                         _______ _______ _______ _____ _____    ______ ____
ROOT
ATOM      1  C   UNL     1      38.118   5.687  16.181  0.00  0.00    +0.000 C 
ATOM      2  C   UNL     1      37.371   5.846  15.066  0.00  0.00    +0.000 C 
ATOM      3  C   UNL     1      36.669   4.613  14.877  0.00  0.00    +0.000 C 
ATOM      4  O   UNL     1      35.852   4.297  13.964  0.00  0.00    +0.000 OA
ATOM      5  N   UNL     1      37.007   3.661  15.923  0.00  0.00    +0.000 N 
ATOM      6  C   UNL     1      37.927   4.370  16.735  0.00  0.00    +0.000 C 
ATOM      7  O   UNL     1      38.471   3.880  17.776  0.00  0.00    +0.000 OA
ENDROOT
BRANCH   5   8
ATOM      8  C   UNL     1      36.501   2.337  16.056  0.00  0.00    +0.000 A 
ATOM      9  C   UNL     1      35.363   2.059  16.792  0.00  0.00    +0.000 A 
ATOM     10  C   UNL     1      34.880   0.765  16.917  0.00  0.00    +0.000 A 
ATOM     11  C   UNL     1      35.517  -0.297  16.309  0.00  0.00    +0.000 A 
ATOM     12  C   UNL     1      34.978  -1.679  16.457  0.00  0.00    +0.000 C 
ATOM     13  C   UNL     1      36.649  -0.025  15.575  0.00  0.00    +0.000 A 
ATOM     14  C   UNL     1      37.131   1.266  15.451  0.00  0.00    +0.000 A 
ATOM     15  C   UNL     1      38.352   1.564  14.661  0.00  0.00    +0.000 C 
ENDBRANCH   5   8
BRANCH   1  16
ATOM     16  N   UNL     1      38.978   6.676  16.733  0.00  0.00    +0.000 NA
BRANCH  16  22
ATOM     17  C   UNL     1      39.324   7.071  19.118  0.00  0.00    +0.000 A 
ATOM     18  C   UNL     1      38.978   7.690  20.301  0.00  0.00    +0.000 A 
ATOM     19  C   UNL     1      37.909   8.572  20.341  0.00  0.00    +0.000 A 
ATOM     20  C   UNL     1      37.229   8.796  19.179  0.00  0.00    +0.000 A 
ATOM     21  C   UNL     1      37.580   8.172  17.990  0.00  0.00    +0.000 A 
ATOM     22  C   UNL     1      38.640   7.296  17.948  0.00  0.00    +0.000 A 
BRANCH  17  23
ATOM     23  O   UNL     1      40.400   6.200  19.139  0.00  0.00    +0.000 OA
BRANCH  23  25
ATOM     24  C   UNL     1      42.330   6.253  20.591  0.00  0.00    +0.000 C 
ATOM     25  C   UNL     1      41.721   6.640  19.283  0.00  0.00    +0.000 C 
ENDBRANCH  23  25
ENDBRANCH  17  23
ENDBRANCH  16  22
ENDBRANCH   1  16
BRANCH   2  26
ATOM     26  S   UNL     1      37.352   7.329  14.121  0.00  0.00    +0.000 S 
BRANCH  26  27
ATOM     27  C   UNL     1      36.154   8.488  14.582  0.00  0.00    +0.000 A 
ATOM     28  C   UNL     1      36.366   9.792  14.903  0.00  0.00    +0.000 A 
ATOM     29  C   UNL     1      35.364  10.669  15.263  0.00  0.00    +0.000 A 
ATOM     30  C   UNL     1      34.068  10.208  15.304  0.00  0.00    +0.000 A 
ATOM     31  C   UNL     1      33.822   8.905  14.986  0.00  0.00    +0.000 A 
ATOM     32  C   UNL     1      34.818   8.051  14.633  0.00  0.00    +0.000 A 
ENDBRANCH  26  27
ENDBRANCH   2  26
TORSDOF 7
ENDMDL
MODEL 3
REMARK VINA RESULT:      -8.0      3.220      8.643
REMARK  Name = 
REMARK  7 active torsions:
REMARK  status: ('A' for Active; 'I' for Inactive)
REMARK    1  A    between atoms: C_2  and  O_3
REMARK    2  A    between atoms: O_3  and  C_4
REMARK    3  A    between atoms: C_9  and  N_10
REMARK    4  A    between atoms: N_10  and  C_11
REMARK    5  A    between atoms: C_12  and  S_13
REMARK    6  A    between atoms: S_13  and  C_14
REMARK    7  A    between atoms: N_22  and  C_23
REMARK                            x       y       z     vdW  Elec       q    Type
REMARK                         _______ _______ _______ _____ _____    ______ ____
ROOT
ATOM      1  C   UNL     1      36.703   3.776  16.019  0.00  0.00    +0.000 C 
ATOM      2  C   UNL     1      37.674   4.716  16.026  0.00  0.00    +0.000 C 
ATOM      3  C   UNL     1      37.449   5.529  14.869  0.00  0.00    +0.000 C 
ATOM      4  O   UNL     1      38.106   6.532  14.465  0.00  0.00    +0.000 OA
ATOM      5  N   UNL     1      36.291   5.060  14.126  0.00  0.00    +0.000 N 
ATOM      6  C   UNL     1      35.838   3.948  14.879  0.00  0.00    +0.000 C 
ATOM      7  O   UNL     1      34.826   3.245  14.560  0.00  0.00    +0.000 OA
ENDROOT
BRANCH   5   8
ATOM      8  C   UNL     1      35.772   5.624  12.926  0.00  0.00    +0.000 A 
ATOM      9  C   UNL     1      36.334   5.361  11.690  0.00  0.00    +0.000 A 
ATOM     10  C   UNL     1      35.822   5.917  10.528  0.00  0.00    +0.000 A 
ATOM     11  C   UNL     1      34.728   6.757  10.560  0.00  0.00    +0.000 A 
ATOM     12  C   UNL     1      34.195   7.342   9.297  0.00  0.00    +0.000 C 
ATOM     13  C   UNL     1      34.164   7.022  11.787  0.00  0.00    +0.000 A 
ATOM     14  C   UNL     1      34.676   6.467  12.947  0.00  0.00    +0.000 A 
ATOM     15  C   UNL     1      34.072   6.751  14.273  0.00  0.00    +0.000 C 
ENDBRANCH   5   8
BRANCH   1  16
ATOM     16  N   UNL     1      36.553   2.754  16.997  0.00  0.00    +0.000 NA
BRANCH  16  22
ATOM     17  C   UNL     1      37.221   0.707  15.845  0.00  0.00    +0.000 A 
ATOM     18  C   UNL     1      36.978  -0.593  15.458  0.00  0.00    +0.000 A 
ATOM     19  C   UNL     1      35.796  -1.221  15.822  0.00  0.00    +0.000 A 
ATOM     20  C   UNL     1      34.903  -0.505  16.566  0.00  0.00    +0.000 A 
ATOM     21  C   UNL     1      35.151   0.804  16.954  0.00  0.00    +0.000 A 
ATOM     22  C   UNL     1      36.323   1.428  16.593  0.00  0.00    +0.000 A 
BRANCH  17  23
ATOM     23  O   UNL     1      38.418   1.282  15.451  0.00  0.00    +0.000 OA
BRANCH  23  25
ATOM     24  C   UNL     1      40.325   0.493  14.195  0.00  0.00    +0.000 C 
ATOM     25  C   UNL     1      38.958   1.093  14.173  0.00  0.00    +0.000 C 
ENDBRANCH  23  25
ENDBRANCH  17  23
ENDBRANCH  16  22
ENDBRANCH   1  16
BRANCH   2  26
ATOM     26  S   UNL     1      38.913   4.814  17.269  0.00  0.00    +0.000 S 
BRANCH  26  27
ATOM     27  C   UNL     1      38.783   6.164  18.343  0.00  0.00    +0.000 A 
ATOM     28  C   UNL     1      37.898   7.191  18.253  0.00  0.00    +0.000 A 
ATOM     29  C   UNL     1      37.845   8.242  19.145  0.00  0.00    +0.000 A 
ATOM     30  C   UNL     1      38.737   8.263  20.194  0.00  0.00    +0.000 A 
ATOM     31  C   UNL     1      39.637   7.245  20.311  0.00  0.00    +0.000 A 
ATOM     32  C   UNL     1      39.679   6.216  19.426  0.00  0.00    +0.000 A 
ENDBRANCH  26  27
ENDBRANCH   2  26
TORSDOF 7
ENDMDL
MODEL 4
REMARK VINA RESULT:      -7.9      3.279      5.887
REMARK  Name = 
REMARK  7 active torsions:
REMARK  status: ('A' for Active; 'I' for Inactive)
REMARK    1  A    between atoms: C_2  and  O_3
REMARK    2  A    between atoms: O_3  and  C_4
REMARK    3  A    between atoms: C_9  and  N_10
REMARK    4  A    between atoms: N_10  and  C_11
REMARK    5  A    between atoms: C_12  and  S_13
REMARK    6  A    between atoms: S_13  and  C_14
REMARK    7  A    between atoms: N_22  and  C_23
REMARK                            x       y       z     vdW  Elec       q    Type
REMARK                         _______ _______ _______ _____ _____    ______ ____
ROOT
ATOM      1  C   UNL     1      36.808   4.502  14.753  0.00  0.00    +0.000 C 
ATOM      2  C   UNL     1      38.120   4.261  14.972  0.00  0.00    +0.000 C 
ATOM      3  C   UNL     1      38.255   2.838  15.049  0.00  0.00    +0.000 C 
ATOM      4  O   UNL     1      39.300   2.150  15.242  0.00  0.00    +0.000 OA
ATOM      5  N   UNL     1      36.969   2.186  14.870  0.00  0.00    +0.000 N 
ATOM      6  C   UNL     1      36.070   3.266  14.684  0.00  0.00    +0.000 C 
ATOM      7  O   UNL     1      34.821   3.119  14.491  0.00  0.00    +0.000 OA
ENDROOT
BRANCH   5   8
ATOM      8  C   UNL     1      36.722   0.784  14.886  0.00  0.00    +0.000 A 
ATOM      9  C   UNL     1      37.084  -0.035  13.831  0.00  0.00    +0.000 A 
ATOM     10  C   UNL     1      36.838  -1.399  13.856  0.00  0.00    +0.000 A 
ATOM     11  C   UNL     1      36.221  -1.994  14.937  0.00  0.00    +0.000 A 
ATOM     12  C   UNL     1      35.968  -3.463  14.940  0.00  0.00    +0.000 C 
ATOM     13  C   UNL     1      35.859  -1.184  15.989  0.00  0.00    +0.000 A 
ATOM     14  C   UNL     1      36.105   0.177  15.963  0.00  0.00    +0.000 A 
ATOM     15  C   UNL     1      35.716   1.055  17.096  0.00  0.00    +0.000 C 
ENDBRANCH   5   8
BRANCH   1  16
ATOM     16  N   UNL     1      36.231   5.794  14.612  0.00  0.00    +0.000 NA
BRANCH  16  22
ATOM     17  C   UNL     1      34.415   6.803  13.328  0.00  0.00    +0.000 A 
ATOM     18  C   UNL     1      33.838   7.155  12.126  0.00  0.00    +0.000 A 
ATOM     19  C   UNL     1      34.478   6.864  10.932  0.00  0.00    +0.000 A 
ATOM     20  C   UNL     1      35.683   6.225  11.000  0.00  0.00    +0.000 A 
ATOM     21  C   UNL     1      36.261   5.872  12.211  0.00  0.00    +0.000 A 
ATOM     22  C   UNL     1      35.626   6.160  13.397  0.00  0.00    +0.000 A 
BRANCH  17  23
ATOM     23  O   UNL     1      33.728   7.120  14.489  0.00  0.00    +0.000 OA
BRANCH  23  25
ATOM     24  C   UNL     1      34.830   9.032  15.470  0.00  0.00    +0.000 C 
ATOM     25  C   UNL     1      33.570   8.439  14.932  0.00  0.00    +0.000 C 
ENDBRANCH  23  25
ENDBRANCH  17  23
ENDBRANCH  16  22
ENDBRANCH   1  16
BRANCH   2  26
ATOM     26  S   UNL     1      39.324   5.533  15.115  0.00  0.00    +0.000 S 
BRANCH  26  27
ATOM     27  C   UNL     1      39.906   5.829  16.718  0.00  0.00    +0.000 A 
ATOM     28  C   UNL     1      41.140   6.279  17.063  0.00  0.00    +0.000 A 
ATOM     29  C   UNL     1      41.545   6.495  18.364  0.00  0.00    +0.000 A 
ATOM     30  C   UNL     1      40.653   6.243  19.383  0.00  0.00    +0.000 A 
ATOM     31  C   UNL     1      39.405   5.792  19.067  0.00  0.00    +0.000 A 
ATOM     32  C   UNL     1      39.019   5.582  17.782  0.00  0.00    +0.000 A 
ENDBRANCH  26  27
ENDBRANCH   2  26
TORSDOF 7
ENDMDL
MODEL 5
REMARK VINA RESULT:      -7.8      2.406      7.408
REMARK  Name = 
REMARK  7 active torsions:
REMARK  status: ('A' for Active; 'I' for Inactive)
REMARK    1  A    between atoms: C_2  and  O_3
REMARK    2  A    between atoms: O_3  and  C_4
REMARK    3  A    between atoms: C_9  and  N_10
REMARK    4  A    between atoms: N_10  and  C_11
REMARK    5  A    between atoms: C_12  and  S_13
REMARK    6  A    between atoms: S_13  and  C_14
REMARK    7  A    between atoms: N_22  and  C_23
REMARK                            x       y       z     vdW  Elec       q    Type
REMARK                         _______ _______ _______ _____ _____    ______ ____
ROOT
ATOM      1  C   UNL     1      37.014   1.432  15.264  0.00  0.00    +0.000 C 
ATOM      2  C   UNL     1      38.050   1.706  14.441  0.00  0.00    +0.000 C 
ATOM      3  C   UNL     1      38.629   2.923  14.921  0.00  0.00    +0.000 C 
ATOM      4  O   UNL     1      39.623   3.562  14.467  0.00  0.00    +0.000 OA
ATOM      5  N   UNL     1      37.912   3.411  16.088  0.00  0.00    +0.000 N 
ATOM      6  C   UNL     1      36.893   2.446  16.282  0.00  0.00    +0.000 C 
ATOM      7  O   UNL     1      36.034   2.506  17.218  0.00  0.00    +0.000 OA
ENDROOT
BRANCH   5   8
ATOM      8  C   UNL     1      38.207   4.591  16.828  0.00  0.00    +0.000 A 
ATOM      9  C   UNL     1      38.814   4.543  18.071  0.00  0.00    +0.000 A 
ATOM     10  C   UNL     1      39.095   5.698  18.784  0.00  0.00    +0.000 A 
ATOM     11  C   UNL     1      38.779   6.943  18.281  0.00  0.00    +0.000 A 
ATOM     12  C   UNL     1      39.092   8.171  19.067  0.00  0.00    +0.000 C 
ATOM     13  C   UNL     1      38.175   6.997  17.045  0.00  0.00    +0.000 A 
ATOM     14  C   UNL     1      37.895   5.843  16.334  0.00  0.00    +0.000 A 
ATOM     15  C   UNL     1      37.243   5.895  15.001  0.00  0.00    +0.000 C 
ENDBRANCH   5   8
BRANCH   1  16
ATOM     16  N   UNL     1      36.156   0.304  15.145  0.00  0.00    +0.000 NA
BRANCH  16  22
ATOM     17  C   UNL     1      37.249  -1.356  16.565  0.00  0.00    +0.000 A 
ATOM     18  C   UNL     1      37.739  -2.627  16.777  0.00  0.00    +0.000 A 
ATOM     19  C   UNL     1      37.649  -3.585  15.779  0.00  0.00    +0.000 A 
ATOM     20  C   UNL     1      37.065  -3.219  14.600  0.00  0.00    +0.000 A 
ATOM     21  C   UNL     1      36.573  -1.938  14.390  0.00  0.00    +0.000 A 
ATOM     22  C   UNL     1      36.662  -0.986  15.380  0.00  0.00    +0.000 A 
BRANCH  17  23
ATOM     23  O   UNL     1      37.367  -0.441  17.598  0.00  0.00    +0.000 OA
BRANCH  23  25
ATOM     24  C   UNL     1      35.478  -0.384  19.103  0.00  0.00    +0.000 C 
ATOM     25  C   UNL     1      36.920  -0.713  18.897  0.00  0.00    +0.000 C 
ENDBRANCH  23  25
ENDBRANCH  17  23
ENDBRANCH  16  22
ENDBRANCH   1  16
BRANCH   2  26
ATOM     26  S   UNL     1      38.496   0.686  13.080  0.00  0.00    +0.000 S 
BRANCH  26  27
ATOM     27  C   UNL     1      39.545  -0.637  13.455  0.00  0.00    +0.000 A 
ATOM     28  C   UNL     1      40.268  -0.802  14.594  0.00  0.00    +0.000 A 
ATOM     29  C   UNL     1      41.090  -1.884  14.833  0.00  0.00    +0.000 A 
ATOM     30  C   UNL     1      41.192  -2.861  13.868  0.00  0.00    +0.000 A 
ATOM     31  C   UNL     1      40.478  -2.723  12.715  0.00  0.00    +0.000 A 
ATOM     32  C   UNL     1      39.673  -1.653  12.491  0.00  0.00    +0.000 A 
ENDBRANCH  26  27
ENDBRANCH   2  26
TORSDOF 7
ENDMDL
MODEL 6
REMARK VINA RESULT:      -7.7      3.798      9.292
REMARK  Name = 
REMARK  7 active torsions:
REMARK  status: ('A' for Active; 'I' for Inactive)
REMARK    1  A    between atoms: C_2  and  O_3
REMARK    2  A    between atoms: O_3  and  C_4
REMARK    3  A    between atoms: C_9  and  N_10
REMARK    4  A    between atoms: N_10  and  C_11
REMARK    5  A    between atoms: C_12  and  S_13
REMARK    6  A    between atoms: S_13  and  C_14
REMARK    7  A    between atoms: N_22  and  C_23
REMARK                            x       y       z     vdW  Elec       q    Type
REMARK                         _______ _______ _______ _____ _____    ______ ____
ROOT
ATOM      1  C   UNL     1      36.976   4.200  14.678  0.00  0.00    +0.000 C 
ATOM      2  C   UNL     1      36.556   5.485  14.691  0.00  0.00    +0.000 C 
ATOM      3  C   UNL     1      37.606   6.240  15.304  0.00  0.00    +0.000 C 
ATOM      4  O   UNL     1      37.659   7.485  15.531  0.00  0.00    +0.000 OA
ATOM      5  N   UNL     1      38.711   5.376  15.683  0.00  0.00    +0.000 N 
ATOM      6  C   UNL     1      38.284   4.089  15.273  0.00  0.00    +0.000 C 
ATOM      7  O   UNL     1      38.978   3.033  15.427  0.00  0.00    +0.000 OA
ENDROOT
BRANCH   5   8
ATOM      8  C   UNL     1      39.922   5.780  16.315  0.00  0.00    +0.000 A 
ATOM      9  C   UNL     1      41.038   6.153  15.587  0.00  0.00    +0.000 A 
ATOM     10  C   UNL     1      42.212   6.542  16.213  0.00  0.00    +0.000 A 
ATOM     11  C   UNL     1      42.313   6.574  17.589  0.00  0.00    +0.000 A 
ATOM     12  C   UNL     1      43.586   6.997  18.238  0.00  0.00    +0.000 C 
ATOM     13  C   UNL     1      41.205   6.204  18.317  0.00  0.00    +0.000 A 
ATOM     14  C   UNL     1      40.033   5.815  17.691  0.00  0.00    +0.000 A 
ATOM     15  C   UNL     1      38.836   5.414  18.473  0.00  0.00    +0.000 C 
ENDBRANCH   5   8
BRANCH   1  16
ATOM     16  N   UNL     1      36.233   3.107  14.155  0.00  0.00    +0.000 NA
BRANCH  16  22
ATOM     17  C   UNL     1      36.230   0.732  14.726  0.00  0.00    +0.000 A 
ATOM     18  C   UNL     1      35.880  -0.307  15.561  0.00  0.00    +0.000 A 
ATOM     19  C   UNL     1      35.153  -0.061  16.716  0.00  0.00    +0.000 A 
ATOM     20  C   UNL     1      34.809   1.233  16.982  0.00  0.00    +0.000 A 
ATOM     21  C   UNL     1      35.164   2.277  16.139  0.00  0.00    +0.000 A 
ATOM     22  C   UNL     1      35.884   2.034  14.993  0.00  0.00    +0.000 A 
BRANCH  17  23
ATOM     23  O   UNL     1      36.956   0.425  13.586  0.00  0.00    +0.000 OA
BRANCH  23  25
ATOM     24  C   UNL     1      39.139   0.832  12.637  0.00  0.00    +0.000 C 
ATOM     25  C   UNL     1      38.313   0.082  13.629  0.00  0.00    +0.000 C 
ENDBRANCH  23  25
ENDBRANCH  17  23
ENDBRANCH  16  22
ENDBRANCH   1  16
BRANCH   2  26
ATOM     26  S   UNL     1      35.003   5.999  14.049  0.00  0.00    +0.000 S 
BRANCH  26  27
ATOM     27  C   UNL     1      34.975   6.337  12.352  0.00  0.00    +0.000 A 
ATOM     28  C   UNL     1      35.878   5.921  11.426  0.00  0.00    +0.000 A 
ATOM     29  C   UNL     1      35.800   6.226  10.083  0.00  0.00    +0.000 A 
ATOM     30  C   UNL     1      34.749   6.998   9.642  0.00  0.00    +0.000 A 
ATOM     31  C   UNL     1      33.826   7.430  10.548  0.00  0.00    +0.000 A 
ATOM     32  C   UNL     1      33.914   7.124  11.868  0.00  0.00    +0.000 A 
ENDBRANCH  26  27
ENDBRANCH   2  26
TORSDOF 7
ENDMDL
MODEL 7
REMARK VINA RESULT:      -7.6      3.335      7.064
REMARK  Name = 
REMARK  7 active torsions:
REMARK  status: ('A' for Active; 'I' for Inactive)
REMARK    1  A    between atoms: C_2  and  O_3
REMARK    2  A    between atoms: O_3  and  C_4
REMARK    3  A    between atoms: C_9  and  N_10
REMARK    4  A    between atoms: N_10  and  C_11
REMARK    5  A    between atoms: C_12  and  S_13
REMARK    6  A    between atoms: S_13  and  C_14
REMARK    7  A    between atoms: N_22  and  C_23
REMARK                            x       y       z     vdW  Elec       q    Type
REMARK                         _______ _______ _______ _____ _____    ______ ____
ROOT
ATOM      1  C   UNL     1      37.740   5.119  15.959  0.00  0.00    +0.000 C 
ATOM      2  C   UNL     1      37.344   5.062  14.668  0.00  0.00    +0.000 C 
ATOM      3  C   UNL     1      36.861   3.731  14.458  0.00  0.00    +0.000 C 
ATOM      4  O   UNL     1      36.388   3.216  13.403  0.00  0.00    +0.000 OA
ATOM      5  N   UNL     1      36.969   2.944  15.675  0.00  0.00    +0.000 N 
ATOM      6  C   UNL     1      37.529   3.850  16.610  0.00  0.00    +0.000 C 
ATOM      7  O   UNL     1      37.787   3.546  17.819  0.00  0.00    +0.000 OA
ENDROOT
BRANCH   5   8
ATOM      8  C   UNL     1      36.585   1.582  15.838  0.00  0.00    +0.000 A 
ATOM      9  C   UNL     1      35.392   1.225  16.441  0.00  0.00    +0.000 A 
ATOM     10  C   UNL     1      35.029  -0.104  16.596  0.00  0.00    +0.000 A 
ATOM     11  C   UNL     1      35.846  -1.124  16.153  0.00  0.00    +0.000 A 
ATOM     12  C   UNL     1      35.433  -2.545  16.331  0.00  0.00    +0.000 C 
ATOM     13  C   UNL     1      37.033  -0.774  15.552  0.00  0.00    +0.000 A 
ATOM     14  C   UNL     1      37.395   0.553  15.398  0.00  0.00    +0.000 A 
ATOM     15  C   UNL     1      38.675   0.935  14.751  0.00  0.00    +0.000 C 
ENDBRANCH   5   8
BRANCH   1  16
ATOM     16  N   UNL     1      38.290   6.267  16.592  0.00  0.00    +0.000 NA
BRANCH  16  22
ATOM     17  C   UNL     1      40.203   6.326  18.110  0.00  0.00    +0.000 A 
ATOM     18  C   UNL     1      41.561   6.388  18.337  0.00  0.00    +0.000 A 
ATOM     19  C   UNL     1      42.445   6.460  17.272  0.00  0.00    +0.000 A 
ATOM     20  C   UNL     1      41.918   6.465  16.012  0.00  0.00    +0.000 A 
ATOM     21  C   UNL     1      40.550   6.402  15.787  0.00  0.00    +0.000 A 
ATOM     22  C   UNL     1      39.672   6.331  16.844  0.00  0.00    +0.000 A 
BRANCH  17  23
ATOM     23  O   UNL     1      39.368   6.256  19.214  0.00  0.00    +0.000 OA
BRANCH  23  25
ATOM     24  C   UNL     1      38.550   8.398  19.975  0.00  0.00    +0.000 C 
ATOM     25  C   UNL     1      39.406   7.204  20.244  0.00  0.00    +0.000 C 
ENDBRANCH  23  25
ENDBRANCH  17  23
ENDBRANCH  16  22
ENDBRANCH   1  16
BRANCH   2  26
ATOM     26  S   UNL     1      37.454   6.426  13.564  0.00  0.00    +0.000 S 
BRANCH  26  27
ATOM     27  C   UNL     1      36.022   6.764  12.655  0.00  0.00    +0.000 A 
ATOM     28  C   UNL     1      35.955   7.096  11.339  0.00  0.00    +0.000 A 
ATOM     29  C   UNL     1      34.777   7.354  10.670  0.00  0.00    +0.000 A 
ATOM     30  C   UNL     1      33.591   7.274  11.365  0.00  0.00    +0.000 A 
ATOM     31  C   UNL     1      33.626   6.942  12.687  0.00  0.00    +0.000 A 
ATOM     32  C   UNL     1      34.793   6.690  13.336  0.00  0.00    +0.000 A 
ENDBRANCH  26  27
ENDBRANCH   2  26
TORSDOF 7
ENDMDL
MODEL 8
REMARK VINA RESULT:      -7.6      3.730      9.617
REMARK  Name = 
REMARK  7 active torsions:
REMARK  status: ('A' for Active; 'I' for Inactive)
REMARK    1  A    between atoms: C_2  and  O_3
REMARK    2  A    between atoms: O_3  and  C_4
REMARK    3  A    between atoms: C_9  and  N_10
REMARK    4  A    between atoms: N_10  and  C_11
REMARK    5  A    between atoms: C_12  and  S_13
REMARK    6  A    between atoms: S_13  and  C_14
REMARK    7  A    between atoms: N_22  and  C_23
REMARK                            x       y       z     vdW  Elec       q    Type
REMARK                         _______ _______ _______ _____ _____    ______ ____
ROOT
ATOM      1  C   UNL     1      37.062   4.034  14.627  0.00  0.00    +0.000 C 
ATOM      2  C   UNL     1      36.628   5.313  14.578  0.00  0.00    +0.000 C 
ATOM      3  C   UNL     1      37.653   6.105  15.185  0.00  0.00    +0.000 C 
ATOM      4  O   UNL     1      37.687   7.358  15.362  0.00  0.00    +0.000 OA
ATOM      5  N   UNL     1      38.759   5.271  15.625  0.00  0.00    +0.000 N 
ATOM      6  C   UNL     1      38.357   3.963  15.257  0.00  0.00    +0.000 C 
ATOM      7  O   UNL     1      39.059   2.923  15.470  0.00  0.00    +0.000 OA
ENDROOT
BRANCH   5   8
ATOM      8  C   UNL     1      39.949   5.714  16.268  0.00  0.00    +0.000 A 
ATOM      9  C   UNL     1      41.070   6.098  15.552  0.00  0.00    +0.000 A 
ATOM     10  C   UNL     1      42.224   6.527  16.190  0.00  0.00    +0.000 A 
ATOM     11  C   UNL     1      42.300   6.588  17.566  0.00  0.00    +0.000 A 
ATOM     12  C   UNL     1      43.552   7.053  18.228  0.00  0.00    +0.000 C 
ATOM     13  C   UNL     1      41.188   6.208  18.283  0.00  0.00    +0.000 A 
ATOM     14  C   UNL     1      40.036   5.779  17.646  0.00  0.00    +0.000 A 
ATOM     15  C   UNL     1      38.835   5.367  18.415  0.00  0.00    +0.000 C 
ENDBRANCH   5   8
BRANCH   1  16
ATOM     16  N   UNL     1      36.345   2.911  14.131  0.00  0.00    +0.000 NA
BRANCH  16  22
ATOM     17  C   UNL     1      36.314   0.582  14.865  0.00  0.00    +0.000 A 
ATOM     18  C   UNL     1      35.907  -0.401  15.742  0.00  0.00    +0.000 A 
ATOM     19  C   UNL     1      35.091  -0.083  16.818  0.00  0.00    +0.000 A 
ATOM     20  C   UNL     1      34.719   1.222  16.966  0.00  0.00    +0.000 A 
ATOM     21  C   UNL     1      35.131   2.209  16.081  0.00  0.00    +0.000 A 
ATOM     22  C   UNL     1      35.939   1.895  15.013  0.00  0.00    +0.000 A 
BRANCH  17  23
ATOM     23  O   UNL     1      37.127   0.205  13.809  0.00  0.00    +0.000 OA
BRANCH  23  25
ATOM     24  C   UNL     1      38.394  -1.707  13.050  0.00  0.00    +0.000 C 
ATOM     25  C   UNL     1      38.291  -0.551  13.991  0.00  0.00    +0.000 C 
ENDBRANCH  23  25
ENDBRANCH  17  23
ENDBRANCH  16  22
ENDBRANCH   1  16
BRANCH   2  26
ATOM     26  S   UNL     1      35.085   5.781  13.878  0.00  0.00    +0.000 S 
BRANCH  26  27
ATOM     27  C   UNL     1      34.807   7.485  13.765  0.00  0.00    +0.000 A 
ATOM     28  C   UNL     1      35.207   8.308  12.760  0.00  0.00    +0.000 A 
ATOM     29  C   UNL     1      34.953   9.664  12.729  0.00  0.00    +0.000 A 
ATOM     30  C   UNL     1      34.252  10.228  13.771  0.00  0.00    +0.000 A 
ATOM     31  C   UNL     1      33.837   9.427  14.793  0.00  0.00    +0.000 A 
ATOM     32  C   UNL     1      34.094   8.094  14.813  0.00  0.00    +0.000 A 
ENDBRANCH  26  27
ENDBRANCH   2  26
TORSDOF 7
ENDMDL
MODEL 9
REMARK VINA RESULT:      -7.6      3.673      7.854
REMARK  Name = 
REMARK  7 active torsions:
REMARK  status: ('A' for Active; 'I' for Inactive)
REMARK    1  A    between atoms: C_2  and  O_3
REMARK    2  A    between atoms: O_3  and  C_4
REMARK    3  A    between atoms: C_9  and  N_10
REMARK    4  A    between atoms: N_10  and  C_11
REMARK    5  A    between atoms: C_12  and  S_13
REMARK    6  A    between atoms: S_13  and  C_14
REMARK    7  A    between atoms: N_22  and  C_23
REMARK                            x       y       z     vdW  Elec       q    Type
REMARK                         _______ _______ _______ _____ _____    ______ ____
ROOT
ATOM      1  C   UNL     1      37.882   5.570  16.107  0.00  0.00    +0.000 C 
ATOM      2  C   UNL     1      37.383   5.715  14.860  0.00  0.00    +0.000 C 
ATOM      3  C   UNL     1      36.985   4.407  14.436  0.00  0.00    +0.000 C 
ATOM      4  O   UNL     1      36.464   4.054  13.338  0.00  0.00    +0.000 OA
ATOM      5  N   UNL     1      37.255   3.424  15.472  0.00  0.00    +0.000 N 
ATOM      6  C   UNL     1      37.823   4.190  16.520  0.00  0.00    +0.000 C 
ATOM      7  O   UNL     1      38.205   3.695  17.628  0.00  0.00    +0.000 OA
ENDROOT
BRANCH   5   8
ATOM      8  C   UNL     1      36.989   2.027  15.401  0.00  0.00    +0.000 A 
ATOM      9  C   UNL     1      37.924   1.127  14.920  0.00  0.00    +0.000 A 
ATOM     10  C   UNL     1      37.653  -0.231  14.854  0.00  0.00    +0.000 A 
ATOM     11  C   UNL     1      36.439  -0.739  15.267  0.00  0.00    +0.000 A 
ATOM     12  C   UNL     1      36.173  -2.204  15.186  0.00  0.00    +0.000 C 
ATOM     13  C   UNL     1      35.506   0.152  15.747  0.00  0.00    +0.000 A 
ATOM     14  C   UNL     1      35.776   1.507  15.812  0.00  0.00    +0.000 A 
ATOM     15  C   UNL     1      34.773   2.472  16.328  0.00  0.00    +0.000 C 
ENDBRANCH   5   8
BRANCH   1  16
ATOM     16  N   UNL     1      38.398   6.628  16.906  0.00  0.00    +0.000 NA
BRANCH  16  22
ATOM     17  C   UNL     1      40.122   6.609  18.635  0.00  0.00    +0.000 A 
ATOM     18  C   UNL     1      41.447   6.583  19.018  0.00  0.00    +0.000 A 
ATOM     19  C   UNL     1      42.450   6.551  18.061  0.00  0.00    +0.000 A 
ATOM     20  C   UNL     1      42.072   6.545  16.749  0.00  0.00    +0.000 A 
ATOM     21  C   UNL     1      40.738   6.571  16.367  0.00  0.00    +0.000 A 
ATOM     22  C   UNL     1      39.742   6.603  17.316  0.00  0.00    +0.000 A 
BRANCH  17  23
ATOM     23  O   UNL     1      39.164   6.641  19.636  0.00  0.00    +0.000 OA
BRANCH  23  25
ATOM     24  C   UNL     1      37.917   8.658  20.094  0.00  0.00    +0.000 C 
ATOM     25  C   UNL     1      39.017   7.733  20.499  0.00  0.00    +0.000 C 
ENDBRANCH  23  25
ENDBRANCH  17  23
ENDBRANCH  16  22
ENDBRANCH   1  16
BRANCH   2  26
ATOM     26  S   UNL     1      37.297   7.262  14.029  0.00  0.00    +0.000 S 
BRANCH  26  27
ATOM     27  C   UNL     1      36.086   8.351  14.611  0.00  0.00    +0.000 A 
ATOM     28  C   UNL     1      34.746   8.262  14.404  0.00  0.00    +0.000 A 
ATOM     29  C   UNL     1      33.829   9.167  14.897  0.00  0.00    +0.000 A 
ATOM     30  C   UNL     1      34.286  10.228  15.646  0.00  0.00    +0.000 A 
ATOM     31  C   UNL     1      35.626  10.344  15.872  0.00  0.00    +0.000 A 
ATOM     32  C   UNL     1      36.519   9.447  15.380  0.00  0.00    +0.000 A 
ENDBRANCH  26  27
ENDBRANCH   2  26
TORSDOF 7
ENDMDL
MODEL 10
REMARK VINA RESULT:      -7.5      4.629      9.178
REMARK  Name = 
REMARK  7 active torsions:
REMARK  status: ('A' for Active; 'I' for Inactive)
REMARK    1  A    between atoms: C_2  and  O_3
REMARK    2  A    between atoms: O_3  and  C_4
REMARK    3  A    between atoms: C_9  and  N_10
REMARK    4  A    between atoms: N_10  and  C_11
REMARK    5  A    between atoms: C_12  and  S_13
REMARK    6  A    between atoms: S_13  and  C_14
REMARK    7  A    between atoms: N_22  and  C_23
REMARK                            x       y       z     vdW  Elec       q    Type
REMARK                         _______ _______ _______ _____ _____    ______ ____
ROOT
ATOM      1  C   UNL     1      37.104   6.149  14.737  0.00  0.00    +0.000 C 
ATOM      2  C   UNL     1      37.043   4.845  15.089  0.00  0.00    +0.000 C 
ATOM      3  C   UNL     1      37.944   4.688  16.190  0.00  0.00    +0.000 C 
ATOM      4  O   UNL     1      38.216   3.641  16.848  0.00  0.00    +0.000 OA
ATOM      5  N   UNL     1      38.582   5.951  16.521  0.00  0.00    +0.000 N 
ATOM      6  C   UNL     1      38.030   6.859  15.584  0.00  0.00    +0.000 C 
ATOM      7  O   UNL     1      38.334   8.094  15.535  0.00  0.00    +0.000 OA
ENDROOT
BRANCH   5   8
ATOM      8  C   UNL     1      39.534   6.172  17.557  0.00  0.00    +0.000 A 
ATOM      9  C   UNL     1      39.157   6.290  18.883  0.00  0.00    +0.000 A 
ATOM     10  C   UNL     1      40.092   6.506  19.884  0.00  0.00    +0.000 A 
ATOM     11  C   UNL     1      41.437   6.612  19.595  0.00  0.00    +0.000 A 
ATOM     12  C   UNL     1      42.423   6.844  20.689  0.00  0.00    +0.000 C 
ATOM     13  C   UNL     1      41.816   6.494  18.278  0.00  0.00    +0.000 A 
ATOM     14  C   UNL     1      40.883   6.279  17.279  0.00  0.00    +0.000 A 
ATOM     15  C   UNL     1      41.287   6.152  15.856  0.00  0.00    +0.000 C 
ENDBRANCH   5   8
BRANCH   1  16
ATOM     16  N   UNL     1      36.363   6.742  13.679  0.00  0.00    +0.000 NA
BRANCH  16  22
ATOM     17  C   UNL     1      35.815   9.099  13.349  0.00  0.00    +0.000 A 
ATOM     18  C   UNL     1      35.029  10.203  13.606  0.00  0.00    +0.000 A 
ATOM     19  C   UNL     1      33.953  10.107  14.475  0.00  0.00    +0.000 A 
ATOM     20  C   UNL     1      33.713   8.893  15.052  0.00  0.00    +0.000 A 
ATOM     21  C   UNL     1      34.506   7.784  14.791  0.00  0.00    +0.000 A 
ATOM     22  C   UNL     1      35.574   7.878  13.929  0.00  0.00    +0.000 A 
BRANCH  17  23
ATOM     23  O   UNL     1      36.876   9.256  12.472  0.00  0.00    +0.000 OA
BRANCH  23  25
ATOM     24  C   UNL     1      36.320   8.292  10.328  0.00  0.00    +0.000 C 
ATOM     25  C   UNL     1      36.692   9.510  11.108  0.00  0.00    +0.000 C 
ENDBRANCH  23  25
ENDBRANCH  17  23
ENDBRANCH  16  22
ENDBRANCH   1  16
BRANCH   2  26
ATOM     26  S   UNL     1      36.017   3.674  14.274  0.00  0.00    +0.000 S 
BRANCH  26  27
ATOM     27  C   UNL     1      35.833   2.156  15.084  0.00  0.00    +0.000 A 
ATOM     28  C   UNL     1      36.393   0.971  14.726  0.00  0.00    +0.000 A 
ATOM     29  C   UNL     1      36.207  -0.208  15.417  0.00  0.00    +0.000 A 
ATOM     30  C   UNL     1      35.408  -0.197  16.538  0.00  0.00    +0.000 A 
ATOM     31  C   UNL     1      34.833   0.977  16.923  0.00  0.00    +0.000 A 
ATOM     32  C   UNL     1      35.023   2.133  16.234  0.00  0.00    +0.000 A 
ENDBRANCH  26  27
ENDBRANCH   2  26
TORSDOF 7
ENDMDL
