MODEL 1
REMARK VINA RESULT:      -7.8      0.000      0.000
REMARK  Name = 
REMARK  2 active torsions:
REMARK  status: ('A' for Active; 'I' for Inactive)
REMARK    1  A    between atoms: N_11  and  C_12
REMARK    2  A    between atoms: C_12  and  C_13
REMARK                            x       y       z     vdW  Elec       q    Type
REMARK                         _______ _______ _______ _____ _____    ______ ____
ROOT
ATOM      1  C   UNL     1      33.419  21.471   7.996  0.00  0.00    +0.000 C 
ATOM      2  C   UNL     1      33.167  20.132   8.939  0.00  0.00    +0.000 C 
ATOM      3  C   UNL     1      34.571  20.213   9.757  0.00  0.00    +0.000 C 
ATOM      4  C   UNL     1      35.044  21.597   9.821  0.00  0.00    +0.000 C 
ATOM      5  C   UNL     1      34.183  22.381  10.781  0.00  0.00    +0.000 C 
ATOM      6  C   UNL     1      32.773  22.306  10.215  0.00  0.00    +0.000 C 
ATOM      7  C   UNL     1      32.324  20.963  10.100  0.00  0.00    +0.000 C 
ATOM      8  N   UNL     1      32.263  20.135  11.273  0.00  0.00    +0.000 NA
ATOM      9  C   UNL     1      31.039  20.625  11.924  0.00  0.00    +0.000 C 
ATOM     10  O   UNL     1      30.806  20.613  13.176  0.00  0.00    +0.000 OA
ATOM     11  N   UNL     1      30.168  21.063  10.948  0.00  0.00    +0.000 N 
ATOM     12  C   UNL     1      30.917  20.839   9.656  0.00  0.00    +0.000 C 
ATOM     13  O   UNL     1      30.367  20.613   8.596  0.00  0.00    +0.000 OA
ENDROOT
BRANCH  11  14
ATOM     14  C   UNL     1      28.908  21.704  10.775  0.00  0.00    +0.000 C 
BRANCH  14  15
ATOM     15  C   UNL     1      28.627  22.684  11.905  0.00  0.00    +0.000 A 
ATOM     16  C   UNL     1      29.488  23.343  12.657  0.00  0.00    +0.000 A 
ATOM     17  C   UNL     1      29.211  24.192  13.748  0.00  0.00    +0.000 A 
ATOM     18  C   UNL     1      27.786  24.319  13.972  0.00  0.00    +0.000 A 
ATOM     19  C   UNL     1      26.923  23.685  13.212  0.00  0.00    +0.000 A 
ATOM     20  C   UNL     1      27.243  22.831  12.158  0.00  0.00    +0.000 A 
ATOM     21 CL   UNL     1      26.087  22.003  11.272  0.00  0.00    +0.000 Cl
ENDBRANCH  14  15
ENDBRANCH  11  14
TORSDOF 2
ENDMDL
MODEL 2
REMARK VINA RESULT:      -6.9     11.825     14.258
REMARK  Name = 
REMARK  2 active torsions:
REMARK  status: ('A' for Active; 'I' for Inactive)
REMARK    1  A    between atoms: N_11  and  C_12
REMARK    2  A    between atoms: C_12  and  C_13
REMARK                            x       y       z     vdW  Elec       q    Type
REMARK                         _______ _______ _______ _____ _____    ______ ____
ROOT
ATOM      1  C   UNL     1      29.284  27.220  23.187  0.00  0.00    +0.000 C 
ATOM      2  C   UNL     1      27.729  27.123  22.624  0.00  0.00    +0.000 C 
ATOM      3  C   UNL     1      28.110  27.007  21.046  0.00  0.00    +0.000 C 
ATOM      4  C   UNL     1      29.436  26.407  20.885  0.00  0.00    +0.000 C 
ATOM      5  C   UNL     1      29.364  24.933  21.205  0.00  0.00    +0.000 C 
ATOM      6  C   UNL     1      28.895  24.854  22.649  0.00  0.00    +0.000 C 
ATOM      7  C   UNL     1      27.632  25.480  22.827  0.00  0.00    +0.000 C 
ATOM      8  N   UNL     1      26.501  25.013  22.076  0.00  0.00    +0.000 NA
ATOM      9  C   UNL     1      26.140  23.789  22.806  0.00  0.00    +0.000 C 
ATOM     10  O   UNL     1      25.579  22.761  22.305  0.00  0.00    +0.000 OA
ATOM     11  N   UNL     1      26.475  23.954  24.134  0.00  0.00    +0.000 N 
ATOM     12  C   UNL     1      27.080  25.337  24.192  0.00  0.00    +0.000 C 
ATOM     13  O   UNL     1      27.037  26.043  25.181  0.00  0.00    +0.000 OA
ENDROOT
BRANCH  11  14
ATOM     14  C   UNL     1      26.522  23.256  25.374  0.00  0.00    +0.000 C 
BRANCH  14  15
ATOM     15  C   UNL     1      27.953  22.921  25.767  0.00  0.00    +0.000 A 
ATOM     16  C   UNL     1      28.985  22.669  24.984  0.00  0.00    +0.000 A 
ATOM     17  C   UNL     1      30.287  22.289  25.365  0.00  0.00    +0.000 A 
ATOM     18  C   UNL     1      30.421  22.226  26.806  0.00  0.00    +0.000 A 
ATOM     19  C   UNL     1      29.405  22.498  27.591  0.00  0.00    +0.000 A 
ATOM     20  C   UNL     1      28.122  22.845  27.170  0.00  0.00    +0.000 A 
ATOM     21 CL   UNL     1      26.855  23.115  28.232  0.00  0.00    +0.000 Cl
ENDBRANCH  14  15
ENDBRANCH  11  14
TORSDOF 2
ENDMDL
MODEL 3
REMARK VINA RESULT:      -6.9     11.731     14.139
REMARK  Name = 
REMARK  2 active torsions:
REMARK  status: ('A' for Active; 'I' for Inactive)
REMARK    1  A    between atoms: N_11  and  C_12
REMARK    2  A    between atoms: C_12  and  C_13
REMARK                            x       y       z     vdW  Elec       q    Type
REMARK                         _______ _______ _______ _____ _____    ______ ____
ROOT
ATOM      1  C   UNL     1      26.909  27.989  24.570  0.00  0.00    +0.000 C 
ATOM      2  C   UNL     1      26.650  27.627  22.974  0.00  0.00    +0.000 C 
ATOM      3  C   UNL     1      27.500  28.872  22.361  0.00  0.00    +0.000 C 
ATOM      4  C   UNL     1      28.549  29.282  23.295  0.00  0.00    +0.000 C 
ATOM      5  C   UNL     1      29.649  28.247  23.305  0.00  0.00    +0.000 C 
ATOM      6  C   UNL     1      28.985  26.955  23.755  0.00  0.00    +0.000 C 
ATOM      7  C   UNL     1      27.930  26.575  22.883  0.00  0.00    +0.000 C 
ATOM      8  N   UNL     1      28.209  26.347  21.493  0.00  0.00    +0.000 NA
ATOM      9  C   UNL     1      28.833  25.016  21.526  0.00  0.00    +0.000 C 
ATOM     10  O   UNL     1      29.697  24.578  20.699  0.00  0.00    +0.000 OA
ATOM     11  N   UNL     1      28.298  24.306  22.580  0.00  0.00    +0.000 N 
ATOM     12  C   UNL     1      27.321  25.267  23.215  0.00  0.00    +0.000 C 
ATOM     13  O   UNL     1      26.322  24.909  23.809  0.00  0.00    +0.000 OA
ENDROOT
BRANCH  11  14
ATOM     14  C   UNL     1      28.424  23.073  23.281  0.00  0.00    +0.000 C 
BRANCH  14  15
ATOM     15  C   UNL     1      29.504  23.152  24.350  0.00  0.00    +0.000 A 
ATOM     16  C   UNL     1      30.784  23.438  24.208  0.00  0.00    +0.000 A 
ATOM     17  C   UNL     1      31.787  23.436  25.199  0.00  0.00    +0.000 A 
ATOM     18  C   UNL     1      31.245  23.100  26.500  0.00  0.00    +0.000 A 
ATOM     19  C   UNL     1      29.968  22.837  26.652  0.00  0.00    +0.000 A 
ATOM     20  C   UNL     1      29.014  22.824  25.636  0.00  0.00    +0.000 A 
ATOM     21 CL   UNL     1      27.411  22.414  25.896  0.00  0.00    +0.000 Cl
ENDBRANCH  14  15
ENDBRANCH  11  14
TORSDOF 2
ENDMDL
MODEL 4
REMARK VINA RESULT:      -6.8     13.184     15.897
REMARK  Name = 
REMARK  2 active torsions:
REMARK  status: ('A' for Active; 'I' for Inactive)
REMARK    1  A    between atoms: N_11  and  C_12
REMARK    2  A    between atoms: C_12  and  C_13
REMARK                            x       y       z     vdW  Elec       q    Type
REMARK                         _______ _______ _______ _____ _____    ______ ____
ROOT
ATOM      1  C   UNL     1      30.183  23.966  23.581  0.00  0.00    +0.000 C 
ATOM      2  C   UNL     1      29.529  25.439  23.968  0.00  0.00    +0.000 C 
ATOM      3  C   UNL     1      29.272  25.935  22.439  0.00  0.00    +0.000 C 
ATOM      4  C   UNL     1      29.082  24.784  21.554  0.00  0.00    +0.000 C 
ATOM      5  C   UNL     1      27.730  24.165  21.816  0.00  0.00    +0.000 C 
ATOM      6  C   UNL     1      27.755  23.741  23.276  0.00  0.00    +0.000 C 
ATOM      7  C   UNL     1      27.991  24.843  24.140  0.00  0.00    +0.000 C 
ATOM      8  N   UNL     1      27.086  25.958  24.126  0.00  0.00    +0.000 NA
ATOM      9  C   UNL     1      25.949  25.433  24.897  0.00  0.00    +0.000 C 
ATOM     10  O   UNL     1      24.731  25.781  24.758  0.00  0.00    +0.000 OA
ATOM     11  N   UNL     1      26.426  24.529  25.822  0.00  0.00    +0.000 N 
ATOM     12  C   UNL     1      27.916  24.502  25.579  0.00  0.00    +0.000 C 
ATOM     13  O   UNL     1      28.730  24.256  26.447  0.00  0.00    +0.000 OA
ENDROOT
BRANCH  11  14
ATOM     14  C   UNL     1      25.991  23.598  26.808  0.00  0.00    +0.000 C 
BRANCH  14  15
ATOM     15  C   UNL     1      25.709  24.289  28.135  0.00  0.00    +0.000 A 
ATOM     16  C   UNL     1      24.980  25.364  28.364  0.00  0.00    +0.000 A 
ATOM     17  C   UNL     1      24.788  26.034  29.590  0.00  0.00    +0.000 A 
ATOM     18  C   UNL     1      25.486  25.370  30.671  0.00  0.00    +0.000 A 
ATOM     19  C   UNL     1      26.194  24.286  30.454  0.00  0.00    +0.000 A 
ATOM     20  C   UNL     1      26.379  23.671  29.216  0.00  0.00    +0.000 A 
ATOM     21 CL   UNL     1      27.353  22.325  29.004  0.00  0.00    +0.000 Cl
ENDBRANCH  14  15
ENDBRANCH  11  14
TORSDOF 2
ENDMDL
MODEL 5
REMARK VINA RESULT:      -6.7     33.760     35.178
REMARK  Name = 
REMARK  2 active torsions:
REMARK  status: ('A' for Active; 'I' for Inactive)
REMARK    1  A    between atoms: N_11  and  C_12
REMARK    2  A    between atoms: C_12  and  C_13
REMARK                            x       y       z     vdW  Elec       q    Type
REMARK                         _______ _______ _______ _____ _____    ______ ____
ROOT
ATOM      1  C   UNL     1      32.095  -7.404  29.765  0.00  0.00    +0.000 C 
ATOM      2  C   UNL     1      33.479  -8.230  30.149  0.00  0.00    +0.000 C 
ATOM      3  C   UNL     1      34.317  -7.819  28.815  0.00  0.00    +0.000 C 
ATOM      4  C   UNL     1      33.846  -6.534  28.294  0.00  0.00    +0.000 C 
ATOM      5  C   UNL     1      34.312  -5.421  29.200  0.00  0.00    +0.000 C 
ATOM      6  C   UNL     1      33.701  -5.722  30.560  0.00  0.00    +0.000 C 
ATOM      7  C   UNL     1      34.110  -6.990  31.051  0.00  0.00    +0.000 C 
ATOM      8  N   UNL     1      35.509  -7.256  31.242  0.00  0.00    +0.000 NA
ATOM      9  C   UNL     1      35.783  -6.538  32.496  0.00  0.00    +0.000 C 
ATOM     10  O   UNL     1      36.901  -6.028  32.832  0.00  0.00    +0.000 OA
ATOM     11  N   UNL     1      34.638  -6.544  33.264  0.00  0.00    +0.000 N 
ATOM     12  C   UNL     1      33.630  -7.285  32.420  0.00  0.00    +0.000 C 
ATOM     13  O   UNL     1      32.711  -7.930  32.889  0.00  0.00    +0.000 OA
ENDROOT
BRANCH  11  14
ATOM     14  C   UNL     1      34.100  -6.029  34.479  0.00  0.00    +0.000 C 
BRANCH  14  15
ATOM     15  C   UNL     1      34.089  -4.507  34.478  0.00  0.00    +0.000 A 
ATOM     16  C   UNL     1      33.452  -3.689  33.663  0.00  0.00    +0.000 A 
ATOM     17  C   UNL     1      33.511  -2.281  33.631  0.00  0.00    +0.000 A 
ATOM     18  C   UNL     1      34.371  -1.763  34.675  0.00  0.00    +0.000 A 
ATOM     19  C   UNL     1      34.989  -2.571  35.505  0.00  0.00    +0.000 A 
ATOM     20  C   UNL     1      34.924  -3.963  35.482  0.00  0.00    +0.000 A 
ATOM     21 CL   UNL     1      35.794  -4.934  36.534  0.00  0.00    +0.000 Cl
ENDBRANCH  14  15
ENDBRANCH  11  14
TORSDOF 2
ENDMDL
MODEL 6
REMARK VINA RESULT:      -6.7     12.320     14.769
REMARK  Name = 
REMARK  2 active torsions:
REMARK  status: ('A' for Active; 'I' for Inactive)
REMARK    1  A    between atoms: N_11  and  C_12
REMARK    2  A    between atoms: C_12  and  C_13
REMARK                            x       y       z     vdW  Elec       q    Type
REMARK                         _______ _______ _______ _____ _____    ______ ____
ROOT
ATOM      1  C   UNL     1      27.131  25.962  21.479  0.00  0.00    +0.000 C 
ATOM      2  C   UNL     1      28.450  24.975  21.652  0.00  0.00    +0.000 C 
ATOM      3  C   UNL     1      29.562  26.162  21.719  0.00  0.00    +0.000 C 
ATOM      4  C   UNL     1      28.964  27.392  22.241  0.00  0.00    +0.000 C 
ATOM      5  C   UNL     1      28.712  27.241  23.722  0.00  0.00    +0.000 C 
ATOM      6  C   UNL     1      27.757  26.064  23.853  0.00  0.00    +0.000 C 
ATOM      7  C   UNL     1      28.307  24.876  23.302  0.00  0.00    +0.000 C 
ATOM      8  N   UNL     1      29.547  24.366  23.818  0.00  0.00    +0.000 NA
ATOM      9  C   UNL     1      29.112  23.735  25.073  0.00  0.00    +0.000 C 
ATOM     10  O   UNL     1      29.822  23.598  26.122  0.00  0.00    +0.000 OA
ATOM     11  N   UNL     1      27.820  23.282  24.913  0.00  0.00    +0.000 N 
ATOM     12  C   UNL     1      27.462  23.678  23.500  0.00  0.00    +0.000 C 
ATOM     13  O   UNL     1      26.668  23.062  22.815  0.00  0.00    +0.000 OA
ENDROOT
BRANCH  11  14
ATOM     14  C   UNL     1      26.744  22.684  25.629  0.00  0.00    +0.000 C 
BRANCH  14  15
ATOM     15  C   UNL     1      26.089  23.678  26.577  0.00  0.00    +0.000 A 
ATOM     16  C   UNL     1      25.250  24.656  26.293  0.00  0.00    +0.000 A 
ATOM     17  C   UNL     1      24.709  25.614  27.174  0.00  0.00    +0.000 A 
ATOM     18  C   UNL     1      25.159  25.399  28.533  0.00  0.00    +0.000 A 
ATOM     19  C   UNL     1      25.976  24.414  28.826  0.00  0.00    +0.000 A 
ATOM     20  C   UNL     1      26.510  23.503  27.916  0.00  0.00    +0.000 A 
ATOM     21 CL   UNL     1      27.600  22.309  28.354  0.00  0.00    +0.000 Cl
ENDBRANCH  14  15
ENDBRANCH  11  14
TORSDOF 2
ENDMDL
MODEL 7
REMARK VINA RESULT:      -6.6      3.282      6.046
REMARK  Name = 
REMARK  2 active torsions:
REMARK  status: ('A' for Active; 'I' for Inactive)
REMARK    1  A    between atoms: N_11  and  C_12
REMARK    2  A    between atoms: C_12  and  C_13
REMARK                            x       y       z     vdW  Elec       q    Type
REMARK                         _______ _______ _______ _____ _____    ______ ____
ROOT
ATOM      1  C   UNL     1      30.646  22.889  10.799  0.00  0.00    +0.000 C 
ATOM      2  C   UNL     1      32.252  22.506  10.935  0.00  0.00    +0.000 C 
ATOM      3  C   UNL     1      32.105  21.547  12.242  0.00  0.00    +0.000 C 
ATOM      4  C   UNL     1      30.768  20.952  12.290  0.00  0.00    +0.000 C 
ATOM      5  C   UNL     1      30.651  19.891  11.223  0.00  0.00    +0.000 C 
ATOM      6  C   UNL     1      30.887  20.612   9.905  0.00  0.00    +0.000 C 
ATOM      7  C   UNL     1      32.161  21.238   9.869  0.00  0.00    +0.000 C 
ATOM      8  N   UNL     1      33.345  20.441  10.036  0.00  0.00    +0.000 NA
ATOM      9  C   UNL     1      33.473  19.813   8.713  0.00  0.00    +0.000 C 
ATOM     10  O   UNL     1      34.004  18.679   8.475  0.00  0.00    +0.000 OA
ATOM     11  N   UNL     1      32.958  20.673   7.766  0.00  0.00    +0.000 N 
ATOM     12  C   UNL     1      32.485  21.863   8.567  0.00  0.00    +0.000 C 
ATOM     13  O   UNL     1      32.444  22.994   8.122  0.00  0.00    +0.000 OA
ENDROOT
BRANCH  11  14
ATOM     14  C   UNL     1      32.659  20.763   6.377  0.00  0.00    +0.000 C 
BRANCH  14  15
ATOM     15  C   UNL     1      31.561  19.785   5.983  0.00  0.00    +0.000 A 
ATOM     16  C   UNL     1      31.612  18.467   5.933  0.00  0.00    +0.000 A 
ATOM     17  C   UNL     1      30.608  17.580   5.495  0.00  0.00    +0.000 A 
ATOM     18  C   UNL     1      29.406  18.288   5.108  0.00  0.00    +0.000 A 
ATOM     19  C   UNL     1      29.341  19.598   5.177  0.00  0.00    +0.000 A 
ATOM     20  C   UNL     1      30.371  20.441   5.591  0.00  0.00    +0.000 A 
ATOM     21 CL   UNL     1      30.237  22.111   5.592  0.00  0.00    +0.000 Cl
ENDBRANCH  14  15
ENDBRANCH  11  14
TORSDOF 2
ENDMDL
MODEL 8
REMARK VINA RESULT:      -6.6     14.057     16.350
REMARK  Name = 
REMARK  2 active torsions:
REMARK  status: ('A' for Active; 'I' for Inactive)
REMARK    1  A    between atoms: N_11  and  C_12
REMARK    2  A    between atoms: C_12  and  C_13
REMARK                            x       y       z     vdW  Elec       q    Type
REMARK                         _______ _______ _______ _____ _____    ______ ____
ROOT
ATOM      1  C   UNL     1      25.225  26.766  27.401  0.00  0.00    +0.000 C 
ATOM      2  C   UNL     1      24.373  25.721  26.437  0.00  0.00    +0.000 C 
ATOM      3  C   UNL     1      24.105  26.767  25.220  0.00  0.00    +0.000 C 
ATOM      4  C   UNL     1      25.164  27.777  25.173  0.00  0.00    +0.000 C 
ATOM      5  C   UNL     1      26.435  27.151  24.652  0.00  0.00    +0.000 C 
ATOM      6  C   UNL     1      26.774  26.042  25.635  0.00  0.00    +0.000 C 
ATOM      7  C   UNL     1      25.730  25.084  25.727  0.00  0.00    +0.000 C 
ATOM      8  N   UNL     1      25.314  24.377  24.547  0.00  0.00    +0.000 NA
ATOM      9  C   UNL     1      26.387  23.382  24.399  0.00  0.00    +0.000 C 
ATOM     10  O   UNL     1      26.782  22.872  23.301  0.00  0.00    +0.000 OA
ATOM     11  N   UNL     1      26.869  23.065  25.652  0.00  0.00    +0.000 N 
ATOM     12  C   UNL     1      26.054  23.925  26.589  0.00  0.00    +0.000 C 
ATOM     13  O   UNL     1      25.802  23.609  27.736  0.00  0.00    +0.000 OA
ENDROOT
BRANCH  11  14
ATOM     14  C   UNL     1      27.884  22.309  26.305  0.00  0.00    +0.000 C 
BRANCH  14  15
ATOM     15  C   UNL     1      29.272  22.811  25.935  0.00  0.00    +0.000 A 
ATOM     16  C   UNL     1      29.941  22.629  24.813  0.00  0.00    +0.000 A 
ATOM     17  C   UNL     1      31.256  23.039  24.514  0.00  0.00    +0.000 A 
ATOM     18  C   UNL     1      31.848  23.767  25.618  0.00  0.00    +0.000 A 
ATOM     19  C   UNL     1      31.179  23.972  26.729  0.00  0.00    +0.000 A 
ATOM     20  C   UNL     1      29.886  23.523  26.993  0.00  0.00    +0.000 A 
ATOM     21 CL   UNL     1      29.118  23.767  28.461  0.00  0.00    +0.000 Cl
ENDBRANCH  14  15
ENDBRANCH  11  14
TORSDOF 2
ENDMDL
MODEL 9
REMARK VINA RESULT:      -6.5     13.351     15.440
REMARK  Name = 
REMARK  2 active torsions:
REMARK  status: ('A' for Active; 'I' for Inactive)
REMARK    1  A    between atoms: N_11  and  C_12
REMARK    2  A    between atoms: C_12  and  C_13
REMARK                            x       y       z     vdW  Elec       q    Type
REMARK                         _______ _______ _______ _____ _____    ______ ____
ROOT
ATOM      1  C   UNL     1      29.846  25.771  23.424  0.00  0.00    +0.000 C 
ATOM      2  C   UNL     1      30.019  24.125  23.516  0.00  0.00    +0.000 C 
ATOM      3  C   UNL     1      31.459  24.132  24.274  0.00  0.00    +0.000 C 
ATOM      4  C   UNL     1      31.613  25.355  25.064  0.00  0.00    +0.000 C 
ATOM      5  C   UNL     1      30.722  25.284  26.281  0.00  0.00    +0.000 C 
ATOM      6  C   UNL     1      29.307  25.152  25.740  0.00  0.00    +0.000 C 
ATOM      7  C   UNL     1      29.161  23.995  24.928  0.00  0.00    +0.000 C 
ATOM      8  N   UNL     1      29.433  22.701  25.488  0.00  0.00    +0.000 NA
ATOM      9  C   UNL     1      28.220  22.454  26.281  0.00  0.00    +0.000 C 
ATOM     10  O   UNL     1      28.151  21.743  27.335  0.00  0.00    +0.000 OA
ATOM     11  N   UNL     1      27.159  23.090  25.670  0.00  0.00    +0.000 N 
ATOM     12  C   UNL     1      27.775  23.761  24.465  0.00  0.00    +0.000 C 
ATOM     13  O   UNL     1      27.163  23.979  23.437  0.00  0.00    +0.000 OA
ENDROOT
BRANCH  11  14
ATOM     14  C   UNL     1      25.776  23.382  25.843  0.00  0.00    +0.000 C 
BRANCH  14  15
ATOM     15  C   UNL     1      25.549  24.297  27.038  0.00  0.00    +0.000 A 
ATOM     16  C   UNL     1      25.814  24.070  28.310  0.00  0.00    +0.000 A 
ATOM     17  C   UNL     1      25.530  24.900  29.414  0.00  0.00    +0.000 A 
ATOM     18  C   UNL     1      24.904  26.138  28.999  0.00  0.00    +0.000 A 
ATOM     19  C   UNL     1      24.658  26.380  27.732  0.00  0.00    +0.000 A 
ATOM     20  C   UNL     1      24.932  25.516  26.672  0.00  0.00    +0.000 A 
ATOM     21 CL   UNL     1      24.530  25.866  25.084  0.00  0.00    +0.000 Cl
ENDBRANCH  14  15
ENDBRANCH  11  14
TORSDOF 2
ENDMDL
MODEL 10
REMARK VINA RESULT:      -6.5     12.472     15.268
REMARK  Name = 
REMARK  2 active torsions:
REMARK  status: ('A' for Active; 'I' for Inactive)
REMARK    1  A    between atoms: N_11  and  C_12
REMARK    2  A    between atoms: C_12  and  C_13
REMARK                            x       y       z     vdW  Elec       q    Type
REMARK                         _______ _______ _______ _____ _____    ______ ____
ROOT
ATOM      1  C   UNL     1      28.595  24.060  28.308  0.00  0.00    +0.000 C 
ATOM      2  C   UNL     1      27.572  22.856  27.809  0.00  0.00    +0.000 C 
ATOM      3  C   UNL     1      26.231  23.447  28.517  0.00  0.00    +0.000 C 
ATOM      4  C   UNL     1      26.324  24.902  28.650  0.00  0.00    +0.000 C 
ATOM      5  C   UNL     1      26.158  25.543  27.293  0.00  0.00    +0.000 C 
ATOM      6  C   UNL     1      27.293  24.994  26.444  0.00  0.00    +0.000 C 
ATOM      7  C   UNL     1      27.243  23.577  26.352  0.00  0.00    +0.000 C 
ATOM      8  N   UNL     1      26.074  22.946  25.806  0.00  0.00    +0.000 NA
ATOM      9  C   UNL     1      26.262  23.161  24.363  0.00  0.00    +0.000 C 
ATOM     10  O   UNL     1      25.333  23.267  23.499  0.00  0.00    +0.000 OA
ATOM     11  N   UNL     1      27.615  23.190  24.096  0.00  0.00    +0.000 N 
ATOM     12  C   UNL     1      28.263  23.000  25.447  0.00  0.00    +0.000 C 
ATOM     13  O   UNL     1      29.350  22.477  25.599  0.00  0.00    +0.000 OA
ENDROOT
BRANCH  11  14
ATOM     14  C   UNL     1      28.546  23.420  23.043  0.00  0.00    +0.000 C 
BRANCH  14  15
ATOM     15  C   UNL     1      28.425  24.835  22.497  0.00  0.00    +0.000 A 
ATOM     16  C   UNL     1      27.540  25.316  21.645  0.00  0.00    +0.000 A 
ATOM     17  C   UNL     1      27.486  26.613  21.094  0.00  0.00    +0.000 A 
ATOM     18  C   UNL     1      28.549  27.452  21.608  0.00  0.00    +0.000 A 
ATOM     19  C   UNL     1      29.419  26.986  22.474  0.00  0.00    +0.000 A 
ATOM     20  C   UNL     1      29.451  25.685  22.973  0.00  0.00    +0.000 A 
ATOM     21 CL   UNL     1      30.634  25.142  24.028  0.00  0.00    +0.000 Cl
ENDBRANCH  14  15
ENDBRANCH  11  14
TORSDOF 2
ENDMDL
