MODEL 1
REMARK VINA RESULT:      -7.9      0.000      0.000
REMARK  Name = 
REMARK  2 active torsions:
REMARK  status: ('A' for Active; 'I' for Inactive)
REMARK    1  A    between atoms: C_6  and  C_8
REMARK    2  A    between atoms: C_16  and  C_17
REMARK                            x       y       z     vdW  Elec       q    Type
REMARK                         _______ _______ _______ _____ _____    ______ ____
ROOT
ATOM      1  C   UNL     1      13.477  14.437  33.556  0.00  0.00    +0.000 C 
ATOM      2  C   UNL     1      14.360  13.289  34.007  0.00  0.00    +0.000 A 
ATOM      3  N   UNL     1      14.604  13.090  35.270  0.00  0.00    +0.000 NA
ATOM      4  C   UNL     1      15.373  12.086  35.644  0.00  0.00    +0.000 A 
ATOM      5  N   UNL     1      15.766  11.692  36.978  0.00  0.00    +0.000 NA
ATOM      6  C   UNL     1      16.602  10.582  37.196  0.00  0.00    +0.000 C 
ATOM      7  O   UNL     1      16.996   9.942  36.182  0.00  0.00    +0.000 OA
ATOM      8  S   UNL     1      15.779  11.380  34.143  0.00  0.00    +0.000 S 
ATOM      9  C   UNL     1      14.923  12.433  33.107  0.00  0.00    +0.000 A 
ENDROOT
BRANCH   6  10
ATOM     10  C   UNL     1      16.973  10.220  38.549  0.00  0.00    +0.000 A 
ATOM     11  C   UNL     1      16.012   9.891  39.503  0.00  0.00    +0.000 A 
ATOM     12  C   UNL     1      16.426   9.556  40.772  0.00  0.00    +0.000 A 
ATOM     13  C   UNL     1      17.764   9.544  41.096  0.00  0.00    +0.000 A 
ATOM     14  C   UNL     1      18.719   9.866  40.165  0.00  0.00    +0.000 A 
ATOM     15  C   UNL     1      18.307  10.204  38.890  0.00  0.00    +0.000 A 
ATOM     16  O   UNL     1      19.263  10.539  37.916  0.00  0.00    +0.000 OA
ENDBRANCH   6  10
BRANCH   9  17
ATOM     17  C   UNL     1      14.779  12.471  31.612  0.00  0.00    +0.000 C 
ATOM     18  C   UNL     1      16.114  12.904  30.995  0.00  0.00    +0.000 C 
ATOM     19  C   UNL     1      13.678  13.421  31.198  0.00  0.00    +0.000 C 
ATOM     20  C   UNL     1      14.467  11.083  31.067  0.00  0.00    +0.000 C 
ENDBRANCH   9  17
TORSDOF 2
ENDMDL
MODEL 2
REMARK VINA RESULT:      -7.8      1.439      2.107
REMARK  Name = 
REMARK  2 active torsions:
REMARK  status: ('A' for Active; 'I' for Inactive)
REMARK    1  A    between atoms: C_6  and  C_8
REMARK    2  A    between atoms: C_16  and  C_17
REMARK                            x       y       z     vdW  Elec       q    Type
REMARK                         _______ _______ _______ _____ _____    ______ ____
ROOT
ATOM      1  C   UNL     1      16.260  10.440  31.138  0.00  0.00    +0.000 C 
ATOM      2  C   UNL     1      16.018  10.976  32.536  0.00  0.00    +0.000 A 
ATOM      3  N   UNL     1      16.516  10.376  33.577  0.00  0.00    +0.000 NA
ATOM      4  C   UNL     1      16.295  10.858  34.785  0.00  0.00    +0.000 A 
ATOM      5  N   UNL     1      16.750  10.351  36.061  0.00  0.00    +0.000 NA
ATOM      6  C   UNL     1      16.417  10.997  37.265  0.00  0.00    +0.000 C 
ATOM      7  O   UNL     1      15.706  12.038  37.190  0.00  0.00    +0.000 OA
ATOM      8  S   UNL     1      15.336  12.228  34.445  0.00  0.00    +0.000 S 
ATOM      9  C   UNL     1      15.273  12.100  32.743  0.00  0.00    +0.000 A 
ENDROOT
BRANCH   6  10
ATOM     10  C   UNL     1      16.893  10.458  38.522  0.00  0.00    +0.000 A 
ATOM     11  C   UNL     1      16.013   9.952  39.476  0.00  0.00    +0.000 A 
ATOM     12  C   UNL     1      16.525   9.453  40.652  0.00  0.00    +0.000 A 
ATOM     13  C   UNL     1      17.881   9.452  40.885  0.00  0.00    +0.000 A 
ATOM     14  C   UNL     1      18.759   9.947  39.952  0.00  0.00    +0.000 A 
ATOM     15  C   UNL     1      18.248  10.449  38.771  0.00  0.00    +0.000 A 
ATOM     16  O   UNL     1      19.122  10.963  37.797  0.00  0.00    +0.000 OA
ENDBRANCH   6  10
BRANCH   9  17
ATOM     17  C   UNL     1      14.607  12.949  31.698  0.00  0.00    +0.000 C 
ATOM     18  C   UNL     1      13.753  14.016  32.394  0.00  0.00    +0.000 C 
ATOM     19  C   UNL     1      13.747  12.105  30.784  0.00  0.00    +0.000 C 
ATOM     20  C   UNL     1      15.645  13.686  30.862  0.00  0.00    +0.000 C 
ENDBRANCH   9  17
TORSDOF 2
ENDMDL
MODEL 3
REMARK VINA RESULT:      -6.7     20.166     22.267
REMARK  Name = 
REMARK  2 active torsions:
REMARK  status: ('A' for Active; 'I' for Inactive)
REMARK    1  A    between atoms: C_6  and  C_8
REMARK    2  A    between atoms: C_16  and  C_17
REMARK                            x       y       z     vdW  Elec       q    Type
REMARK                         _______ _______ _______ _____ _____    ______ ____
ROOT
ATOM      1  C   UNL     1      33.965  -5.288  32.161  0.00  0.00    +0.000 C 
ATOM      2  C   UNL     1      33.444  -4.203  33.086  0.00  0.00    +0.000 A 
ATOM      3  N   UNL     1      33.856  -2.974  32.971  0.00  0.00    +0.000 NA
ATOM      4  C   UNL     1      33.392  -2.044  33.783  0.00  0.00    +0.000 A 
ATOM      5  N   UNL     1      33.713  -0.635  33.826  0.00  0.00    +0.000 NA
ATOM      6  C   UNL     1      33.118   0.221  34.770  0.00  0.00    +0.000 C 
ATOM      7  O   UNL     1      32.292  -0.286  35.579  0.00  0.00    +0.000 OA
ATOM      8  S   UNL     1      32.320  -2.940  34.764  0.00  0.00    +0.000 S 
ATOM      9  C   UNL     1      32.534  -4.482  34.062  0.00  0.00    +0.000 A 
ENDROOT
BRANCH   6  10
ATOM     10  C   UNL     1      33.467   1.628  34.780  0.00  0.00    +0.000 A 
ATOM     11  C   UNL     1      33.355   2.413  33.634  0.00  0.00    +0.000 A 
ATOM     12  C   UNL     1      33.701   3.743  33.706  0.00  0.00    +0.000 A 
ATOM     13  C   UNL     1      34.149   4.291  34.886  0.00  0.00    +0.000 A 
ATOM     14  C   UNL     1      34.263   3.528  36.022  0.00  0.00    +0.000 A 
ATOM     15  C   UNL     1      33.916   2.192  35.953  0.00  0.00    +0.000 A 
ATOM     16  O   UNL     1      34.023   1.386  37.099  0.00  0.00    +0.000 OA
ENDBRANCH   6  10
BRANCH   9  17
ATOM     17  C   UNL     1      31.924  -5.819  34.375  0.00  0.00    +0.000 C 
ATOM     18  C   UNL     1      31.048  -5.687  35.626  0.00  0.00    +0.000 C 
ATOM     19  C   UNL     1      32.996  -6.864  34.595  0.00  0.00    +0.000 C 
ATOM     20  C   UNL     1      31.014  -6.274  33.240  0.00  0.00    +0.000 C 
ENDBRANCH   9  17
TORSDOF 2
ENDMDL
MODEL 4
REMARK VINA RESULT:      -6.4     22.679     25.244
REMARK  Name = 
REMARK  2 active torsions:
REMARK  status: ('A' for Active; 'I' for Inactive)
REMARK    1  A    between atoms: C_6  and  C_8
REMARK    2  A    between atoms: C_16  and  C_17
REMARK                            x       y       z     vdW  Elec       q    Type
REMARK                         _______ _______ _______ _____ _____    ______ ____
ROOT
ATOM      1  C   UNL     1      29.115  30.621  19.191  0.00  0.00    +0.000 C 
ATOM      2  C   UNL     1      29.326  29.127  19.356  0.00  0.00    +0.000 A 
ATOM      3  N   UNL     1      29.145  28.550  20.508  0.00  0.00    +0.000 NA
ATOM      4  C   UNL     1      29.333  27.251  20.632  0.00  0.00    +0.000 A 
ATOM      5  N   UNL     1      29.188  26.422  21.808  0.00  0.00    +0.000 NA
ATOM      6  C   UNL     1      29.433  25.037  21.760  0.00  0.00    +0.000 C 
ATOM      7  O   UNL     1      29.783  24.545  20.652  0.00  0.00    +0.000 OA
ATOM      8  S   UNL     1      29.790  26.811  19.048  0.00  0.00    +0.000 S 
ATOM      9  C   UNL     1      29.712  28.347  18.306  0.00  0.00    +0.000 A 
ENDROOT
BRANCH   6  10
ATOM     10  C   UNL     1      29.276  24.241  22.961  0.00  0.00    +0.000 A 
ATOM     11  C   UNL     1      30.366  23.921  23.768  0.00  0.00    +0.000 A 
ATOM     12  C   UNL     1      30.154  23.161  24.895  0.00  0.00    +0.000 A 
ATOM     13  C   UNL     1      28.891  22.724  25.223  0.00  0.00    +0.000 A 
ATOM     14  C   UNL     1      27.810  23.034  24.436  0.00  0.00    +0.000 A 
ATOM     15  C   UNL     1      28.019  23.796  23.303  0.00  0.00    +0.000 A 
ATOM     16  O   UNL     1      26.931  24.129  22.478  0.00  0.00    +0.000 OA
ENDBRANCH   6  10
BRANCH   9  17
ATOM     17  C   UNL     1      29.977  28.795  16.896  0.00  0.00    +0.000 C 
ATOM     18  C   UNL     1      30.385  27.579  16.057  0.00  0.00    +0.000 C 
ATOM     19  C   UNL     1      31.063  29.846  16.858  0.00  0.00    +0.000 C 
ATOM     20  C   UNL     1      28.712  29.365  16.267  0.00  0.00    +0.000 C 
ENDBRANCH   9  17
TORSDOF 2
ENDMDL
MODEL 5
REMARK VINA RESULT:      -6.3      6.444      8.624
REMARK  Name = 
REMARK  2 active torsions:
REMARK  status: ('A' for Active; 'I' for Inactive)
REMARK    1  A    between atoms: C_6  and  C_8
REMARK    2  A    between atoms: C_16  and  C_17
REMARK                            x       y       z     vdW  Elec       q    Type
REMARK                         _______ _______ _______ _____ _____    ______ ____
ROOT
ATOM      1  C   UNL     1      18.647   7.212  42.904  0.00  0.00    +0.000 C 
ATOM      2  C   UNL     1      18.843   8.102  41.691  0.00  0.00    +0.000 A 
ATOM      3  N   UNL     1      20.006   8.199  41.116  0.00  0.00    +0.000 NA
ATOM      4  C   UNL     1      20.159   8.977  40.062  0.00  0.00    +0.000 A 
ATOM      5  N   UNL     1      21.351   9.225  39.282  0.00  0.00    +0.000 NA
ATOM      6  C   UNL     1      21.333  10.096  38.178  0.00  0.00    +0.000 C 
ATOM      7  O   UNL     1      20.237  10.653  37.892  0.00  0.00    +0.000 OA
ATOM      8  S   UNL     1      18.586   9.611  39.866  0.00  0.00    +0.000 S 
ATOM      9  C   UNL     1      17.812   8.826  41.170  0.00  0.00    +0.000 A 
ENDROOT
BRANCH   6  10
ATOM     10  C   UNL     1      22.549  10.317  37.422  0.00  0.00    +0.000 A 
ATOM     11  C   UNL     1      22.942   9.449  36.405  0.00  0.00    +0.000 A 
ATOM     12  C   UNL     1      24.107   9.713  35.722  0.00  0.00    +0.000 A 
ATOM     13  C   UNL     1      24.873  10.812  36.035  0.00  0.00    +0.000 A 
ATOM     14  C   UNL     1      24.497  11.675  37.033  0.00  0.00    +0.000 A 
ATOM     15  C   UNL     1      23.327  11.414  37.721  0.00  0.00    +0.000 A 
ATOM     16  O   UNL     1      22.916  12.280  38.749  0.00  0.00    +0.000 OA
ENDBRANCH   6  10
BRANCH   9  17
ATOM     17  C   UNL     1      16.394   8.867  41.666  0.00  0.00    +0.000 C 
ATOM     18  C   UNL     1      15.871   7.433  41.801  0.00  0.00    +0.000 C 
ATOM     19  C   UNL     1      15.515   9.659  40.724  0.00  0.00    +0.000 C 
ATOM     20  C   UNL     1      16.329   9.497  43.052  0.00  0.00    +0.000 C 
ENDBRANCH   9  17
TORSDOF 2
ENDMDL
MODEL 6
REMARK VINA RESULT:      -6.2     22.756     25.349
REMARK  Name = 
REMARK  2 active torsions:
REMARK  status: ('A' for Active; 'I' for Inactive)
REMARK    1  A    between atoms: C_6  and  C_8
REMARK    2  A    between atoms: C_16  and  C_17
REMARK                            x       y       z     vdW  Elec       q    Type
REMARK                         _______ _______ _______ _____ _____    ______ ____
ROOT
ATOM      1  C   UNL     1      29.860  30.714  19.378  0.00  0.00    +0.000 C 
ATOM      2  C   UNL     1      29.868  29.203  19.514  0.00  0.00    +0.000 A 
ATOM      3  N   UNL     1      29.417  28.628  20.591  0.00  0.00    +0.000 NA
ATOM      4  C   UNL     1      29.432  27.313  20.692  0.00  0.00    +0.000 A 
ATOM      5  N   UNL     1      28.984  26.482  21.788  0.00  0.00    +0.000 NA
ATOM      6  C   UNL     1      29.075  25.080  21.726  0.00  0.00    +0.000 C 
ATOM      7  O   UNL     1      29.562  24.573  20.677  0.00  0.00    +0.000 OA
ATOM      8  S   UNL     1      30.115  26.855  19.196  0.00  0.00    +0.000 S 
ATOM      9  C   UNL     1      30.346  28.405  18.518  0.00  0.00    +0.000 A 
ENDROOT
BRANCH   6  10
ATOM     10  C   UNL     1      28.615  24.283  22.846  0.00  0.00    +0.000 A 
ATOM     11  C   UNL     1      27.259  24.048  23.062  0.00  0.00    +0.000 A 
ATOM     12  C   UNL     1      26.884  23.283  24.143  0.00  0.00    +0.000 A 
ATOM     13  C   UNL     1      27.827  22.759  24.996  0.00  0.00    +0.000 A 
ATOM     14  C   UNL     1      29.166  22.983  24.793  0.00  0.00    +0.000 A 
ATOM     15  C   UNL     1      29.546  23.750  23.709  0.00  0.00    +0.000 A 
ATOM     16  O   UNL     1      30.910  23.998  23.476  0.00  0.00    +0.000 OA
ENDBRANCH   6  10
BRANCH   9  17
ATOM     17  C   UNL     1      30.911  28.847  17.197  0.00  0.00    +0.000 C 
ATOM     18  C   UNL     1      29.910  29.789  16.518  0.00  0.00    +0.000 C 
ATOM     19  C   UNL     1      31.197  27.658  16.307  0.00  0.00    +0.000 C 
ATOM     20  C   UNL     1      32.198  29.636  17.400  0.00  0.00    +0.000 C 
ENDBRANCH   9  17
TORSDOF 2
ENDMDL
MODEL 7
REMARK VINA RESULT:      -6.2     19.316     21.492
REMARK  Name = 
REMARK  2 active torsions:
REMARK  status: ('A' for Active; 'I' for Inactive)
REMARK    1  A    between atoms: C_6  and  C_8
REMARK    2  A    between atoms: C_16  and  C_17
REMARK                            x       y       z     vdW  Elec       q    Type
REMARK                         _______ _______ _______ _____ _____    ______ ____
ROOT
ATOM      1  C   UNL     1      30.185  24.243  31.356  0.00  0.00    +0.000 C 
ATOM      2  C   UNL     1      30.311  23.648  29.966  0.00  0.00    +0.000 A 
ATOM      3  N   UNL     1      29.490  23.989  29.016  0.00  0.00    +0.000 NA
ATOM      4  C   UNL     1      29.615  23.461  27.815  0.00  0.00    +0.000 A 
ATOM      5  N   UNL     1      28.818  23.700  26.632  0.00  0.00    +0.000 NA
ATOM      6  C   UNL     1      29.094  23.043  25.419  0.00  0.00    +0.000 C 
ATOM      7  O   UNL     1      30.066  22.236  25.402  0.00  0.00    +0.000 OA
ATOM      8  S   UNL     1      30.957  22.428  28.025  0.00  0.00    +0.000 S 
ATOM      9  C   UNL     1      31.285  22.739  29.671  0.00  0.00    +0.000 A 
ENDROOT
BRANCH   6  10
ATOM     10  C   UNL     1      28.272  23.310  24.257  0.00  0.00    +0.000 A 
ATOM     11  C   UNL     1      26.891  23.135  24.287  0.00  0.00    +0.000 A 
ATOM     12  C   UNL     1      26.163  23.405  23.151  0.00  0.00    +0.000 A 
ATOM     13  C   UNL     1      26.786  23.840  22.003  0.00  0.00    +0.000 A 
ATOM     14  C   UNL     1      28.146  24.017  21.961  0.00  0.00    +0.000 A 
ATOM     15  C   UNL     1      28.880  23.746  23.100  0.00  0.00    +0.000 A 
ATOM     16  O   UNL     1      30.275  23.917  23.087  0.00  0.00    +0.000 OA
ENDBRANCH   6  10
BRANCH   9  17
ATOM     17  C   UNL     1      32.334  22.204  30.603  0.00  0.00    +0.000 C 
ATOM     18  C   UNL     1      33.369  21.419  29.789  0.00  0.00    +0.000 C 
ATOM     19  C   UNL     1      31.717  21.315  31.660  0.00  0.00    +0.000 C 
ATOM     20  C   UNL     1      33.078  23.344  31.287  0.00  0.00    +0.000 C 
ENDBRANCH   9  17
TORSDOF 2
ENDMDL
MODEL 8
REMARK VINA RESULT:      -6.0      5.902      8.282
REMARK  Name = 
REMARK  2 active torsions:
REMARK  status: ('A' for Active; 'I' for Inactive)
REMARK    1  A    between atoms: C_6  and  C_8
REMARK    2  A    between atoms: C_16  and  C_17
REMARK                            x       y       z     vdW  Elec       q    Type
REMARK                         _______ _______ _______ _____ _____    ______ ____
ROOT
ATOM      1  C   UNL     1      15.575   9.968  39.936  0.00  0.00    +0.000 C 
ATOM      2  C   UNL     1      17.055   9.652  40.048  0.00  0.00    +0.000 A 
ATOM      3  N   UNL     1      17.894  10.047  39.135  0.00  0.00    +0.000 NA
ATOM      4  C   UNL     1      19.176   9.763  39.249  0.00  0.00    +0.000 A 
ATOM      5  N   UNL     1      20.263  10.103  38.359  0.00  0.00    +0.000 NA
ATOM      6  C   UNL     1      21.586   9.714  38.638  0.00  0.00    +0.000 C 
ATOM      7  O   UNL     1      21.789   9.057  39.697  0.00  0.00    +0.000 OA
ATOM      8  S   UNL     1      19.212   8.892  40.717  0.00  0.00    +0.000 S 
ATOM      9  C   UNL     1      17.549   8.945  41.104  0.00  0.00    +0.000 A 
ENDROOT
BRANCH   6  10
ATOM     10  C   UNL     1      22.647  10.075  37.720  0.00  0.00    +0.000 A 
ATOM     11  C   UNL     1      23.036   9.225  36.688  0.00  0.00    +0.000 A 
ATOM     12  C   UNL     1      24.051   9.623  35.848  0.00  0.00    +0.000 A 
ATOM     13  C   UNL     1      24.673  10.838  36.022  0.00  0.00    +0.000 A 
ATOM     14  C   UNL     1      24.298  11.685  37.035  0.00  0.00    +0.000 A 
ATOM     15  C   UNL     1      23.279  11.288  37.880  0.00  0.00    +0.000 A 
ATOM     16  O   UNL     1      22.874  12.134  38.927  0.00  0.00    +0.000 OA
ENDBRANCH   6  10
BRANCH   9  17
ATOM     17  C   UNL     1      16.773   8.393  42.266  0.00  0.00    +0.000 C 
ATOM     18  C   UNL     1      16.498   9.524  43.264  0.00  0.00    +0.000 C 
ATOM     19  C   UNL     1      17.533   7.273  42.941  0.00  0.00    +0.000 C 
ATOM     20  C   UNL     1      15.419   7.867  41.806  0.00  0.00    +0.000 C 
ENDBRANCH   9  17
TORSDOF 2
ENDMDL
MODEL 9
REMARK VINA RESULT:      -6.0     21.789     24.493
REMARK  Name = 
REMARK  2 active torsions:
REMARK  status: ('A' for Active; 'I' for Inactive)
REMARK    1  A    between atoms: C_6  and  C_8
REMARK    2  A    between atoms: C_16  and  C_17
REMARK                            x       y       z     vdW  Elec       q    Type
REMARK                         _______ _______ _______ _____ _____    ______ ____
ROOT
ATOM      1  C   UNL     1      34.940  27.650  25.694  0.00  0.00    +0.000 C 
ATOM      2  C   UNL     1      34.192  26.389  25.303  0.00  0.00    +0.000 A 
ATOM      3  N   UNL     1      32.917  26.421  25.046  0.00  0.00    +0.000 NA
ATOM      4  C   UNL     1      32.284  25.315  24.708  0.00  0.00    +0.000 A 
ATOM      5  N   UNL     1      30.886  25.131  24.386  0.00  0.00    +0.000 NA
ATOM      6  C   UNL     1      30.375  23.867  24.043  0.00  0.00    +0.000 C 
ATOM      7  O   UNL     1      31.183  22.896  24.026  0.00  0.00    +0.000 OA
ATOM      8  S   UNL     1      33.544  24.164  24.751  0.00  0.00    +0.000 S 
ATOM      9  C   UNL     1      34.832  25.188  25.209  0.00  0.00    +0.000 A 
ENDROOT
BRANCH   6  10
ATOM     10  C   UNL     1      28.968  23.725  23.727  0.00  0.00    +0.000 A 
ATOM     11  C   UNL     1      28.027  23.437  24.712  0.00  0.00    +0.000 A 
ATOM     12  C   UNL     1      26.705  23.315  24.350  0.00  0.00    +0.000 A 
ATOM     13  C   UNL     1      26.316  23.473  23.040  0.00  0.00    +0.000 A 
ATOM     14  C   UNL     1      27.234  23.758  22.060  0.00  0.00    +0.000 A 
ATOM     15  C   UNL     1      28.562  23.882  22.420  0.00  0.00    +0.000 A 
ATOM     16  O   UNL     1      29.525  24.172  21.438  0.00  0.00    +0.000 OA
ENDBRANCH   6  10
BRANCH   9  17
ATOM     17  C   UNL     1      36.288  24.917  25.457  0.00  0.00    +0.000 C 
ATOM     18  C   UNL     1      36.608  23.480  25.028  0.00  0.00    +0.000 C 
ATOM     19  C   UNL     1      36.635  25.117  26.916  0.00  0.00    +0.000 C 
ATOM     20  C   UNL     1      37.158  25.838  24.611  0.00  0.00    +0.000 C 
ENDBRANCH   9  17
TORSDOF 2
ENDMDL
MODEL 10
REMARK VINA RESULT:      -6.0     22.628     24.266
REMARK  Name = 
REMARK  2 active torsions:
REMARK  status: ('A' for Active; 'I' for Inactive)
REMARK    1  A    between atoms: C_6  and  C_8
REMARK    2  A    between atoms: C_16  and  C_17
REMARK                            x       y       z     vdW  Elec       q    Type
REMARK                         _______ _______ _______ _____ _____    ______ ____
ROOT
ATOM      1  C   UNL     1      26.904  -7.369  22.654  0.00  0.00    +0.000 C 
ATOM      2  C   UNL     1      25.547  -7.921  23.049  0.00  0.00    +0.000 A 
ATOM      3  N   UNL     1      24.701  -7.195  23.721  0.00  0.00    +0.000 NA
ATOM      4  C   UNL     1      23.526  -7.691  24.055  0.00  0.00    +0.000 A 
ATOM      5  N   UNL     1      22.452  -7.063  24.793  0.00  0.00    +0.000 NA
ATOM      6  C   UNL     1      21.254  -7.747  25.063  0.00  0.00    +0.000 C 
ATOM      7  O   UNL     1      21.149  -8.931  24.638  0.00  0.00    +0.000 OA
ATOM      8  S   UNL     1      23.609  -9.262  23.393  0.00  0.00    +0.000 S 
ATOM      9  C   UNL     1      25.174  -9.189  22.713  0.00  0.00    +0.000 A 
ENDROOT
BRANCH   6  10
ATOM     10  C   UNL     1      20.202  -7.082  25.805  0.00  0.00    +0.000 A 
ATOM     11  C   UNL     1      20.009  -5.705  25.717  0.00  0.00    +0.000 A 
ATOM     12  C   UNL     1      18.993  -5.130  26.445  0.00  0.00    +0.000 A 
ATOM     13  C   UNL     1      18.179  -5.898  27.247  0.00  0.00    +0.000 A 
ATOM     14  C   UNL     1      18.358  -7.256  27.341  0.00  0.00    +0.000 A 
ATOM     15  C   UNL     1      19.378  -7.836  26.611  0.00  0.00    +0.000 A 
ATOM     16  O   UNL     1      19.586  -9.224  26.688  0.00  0.00    +0.000 OA
ENDBRANCH   6  10
BRANCH   9  17
ATOM     17  C   UNL     1      25.982 -10.196  21.945  0.00  0.00    +0.000 C 
ATOM     18  C   UNL     1      26.183  -9.686  20.514  0.00  0.00    +0.000 C 
ATOM     19  C   UNL     1      25.293 -11.542  21.929  0.00  0.00    +0.000 C 
ATOM     20  C   UNL     1      27.367 -10.355  22.560  0.00  0.00    +0.000 C 
ENDBRANCH   9  17
TORSDOF 2
ENDMDL
