MODEL 1
REMARK VINA RESULT:      -8.3      0.000      0.000
REMARK  Name = 
REMARK  7 active torsions:
REMARK  status: ('A' for Active; 'I' for Inactive)
REMARK    1  A    between atoms: C_2  and  C_3
REMARK    2  A    between atoms: C_8  and  N_9
REMARK    3  A    between atoms: N_9  and  C_10
REMARK    4  A    between atoms: C_11  and  S_12
REMARK    5  A    between atoms: S_12  and  C_13
REMARK    6  A    between atoms: N_21  and  C_22
REMARK    7  A    between atoms: C_25  and  C_26
REMARK                            x       y       z     vdW  Elec       q    Type
REMARK                         _______ _______ _______ _____ _____    ______ ____
ROOT
ATOM      1  C   UNL     1      38.153   5.694  16.191  0.00  0.00    +0.000 C 
ATOM      2  C   UNL     1      37.421   5.801  15.098  0.00  0.00    +0.000 C 
ATOM      3  C   UNL     1      36.673   4.565  14.863  0.00  0.00    +0.000 C 
ATOM      4  O   UNL     1      35.876   4.354  13.883  0.00  0.00    +0.000 OA
ATOM      5  N   UNL     1      36.989   3.654  15.902  0.00  0.00    +0.000 N 
ATOM      6  C   UNL     1      37.919   4.363  16.737  0.00  0.00    +0.000 C 
ATOM      7  O   UNL     1      38.419   3.860  17.769  0.00  0.00    +0.000 OA
ENDROOT
BRANCH   5   8
ATOM      8  C   UNL     1      36.497   2.338  16.069  0.00  0.00    +0.000 A 
ATOM      9  C   UNL     1      37.090   1.289  15.411  0.00  0.00    +0.000 A 
ATOM     10  C   UNL     1      36.612   0.003  15.575  0.00  0.00    +0.000 A 
ATOM     11  C   UNL     1      35.549  -0.238  16.391  0.00  0.00    +0.000 A 
ATOM     12  C   UNL     1      34.947   0.801  17.056  0.00  0.00    +0.000 A 
ATOM     13  C   UNL     1      35.425   2.105  16.895  0.00  0.00    +0.000 A 
BRANCH  11  14
ATOM     14  C   UNL     1      35.034  -1.619  16.575  0.00  0.00    +0.000 C 
ATOM     15  C   UNL     1      33.761  -1.597  17.388  0.00  0.00    +0.000 C 
ATOM     16  C   UNL     1      36.035  -2.458  17.311  0.00  0.00    +0.000 C 
ENDBRANCH  11  14
ENDBRANCH   5   8
BRANCH   1  17
ATOM     17  N   UNL     1      39.025   6.703  16.743  0.00  0.00    +0.000 NA
BRANCH  17  23
ATOM     18  C   UNL     1      39.360   7.099  19.122  0.00  0.00    +0.000 A 
ATOM     19  C   UNL     1      38.979   7.698  20.290  0.00  0.00    +0.000 A 
ATOM     20  C   UNL     1      37.890   8.534  20.379  0.00  0.00    +0.000 A 
ATOM     21  C   UNL     1      37.182   8.746  19.209  0.00  0.00    +0.000 A 
ATOM     22  C   UNL     1      37.542   8.156  18.017  0.00  0.00    +0.000 A 
ATOM     23  C   UNL     1      38.652   7.312  17.963  0.00  0.00    +0.000 A 
BRANCH  18  25
ATOM     24  C   UNL     1      41.394   6.448  20.283  0.00  0.00    +0.000 C 
ATOM     25  C   UNL     1      40.547   6.193  19.050  0.00  0.00    +0.000 C 
ENDBRANCH  18  25
ENDBRANCH  17  23
ENDBRANCH   1  17
BRANCH   2  26
ATOM     26  S   UNL     1      37.319   7.225  14.014  0.00  0.00    +0.000 S 
BRANCH  26  27
ATOM     27  C   UNL     1      36.062   8.365  14.549  0.00  0.00    +0.000 A 
ATOM     28  C   UNL     1      36.307   9.671  14.922  0.00  0.00    +0.000 A 
ATOM     29  C   UNL     1      35.287  10.497  15.328  0.00  0.00    +0.000 A 
ATOM     30  C   UNL     1      33.988  10.025  15.368  0.00  0.00    +0.000 A 
ATOM     31  C   UNL     1      33.739   8.727  14.999  0.00  0.00    +0.000 A 
ATOM     32  C   UNL     1      34.751   7.911  14.597  0.00  0.00    +0.000 A 
ENDBRANCH  26  27
ENDBRANCH   2  26
TORSDOF 7
ENDMDL
MODEL 2
REMARK VINA RESULT:      -8.0      2.876      8.860
REMARK  Name = 
REMARK  7 active torsions:
REMARK  status: ('A' for Active; 'I' for Inactive)
REMARK    1  A    between atoms: C_2  and  C_3
REMARK    2  A    between atoms: C_8  and  N_9
REMARK    3  A    between atoms: N_9  and  C_10
REMARK    4  A    between atoms: C_11  and  S_12
REMARK    5  A    between atoms: S_12  and  C_13
REMARK    6  A    between atoms: N_21  and  C_22
REMARK    7  A    between atoms: C_25  and  C_26
REMARK                            x       y       z     vdW  Elec       q    Type
REMARK                         _______ _______ _______ _____ _____    ______ ____
ROOT
ATOM      1  C   UNL     1      37.510   1.484  15.207  0.00  0.00    +0.000 C 
ATOM      2  C   UNL     1      38.413   1.968  14.375  0.00  0.00    +0.000 C 
ATOM      3  C   UNL     1      38.879   3.277  14.834  0.00  0.00    +0.000 C 
ATOM      4  O   UNL     1      39.753   4.004  14.243  0.00  0.00    +0.000 OA
ATOM      5  N   UNL     1      38.196   3.592  16.035  0.00  0.00    +0.000 N 
ATOM      6  C   UNL     1      37.335   2.465  16.271  0.00  0.00    +0.000 C 
ATOM      7  O   UNL     1      36.571   2.394  17.260  0.00  0.00    +0.000 OA
ENDROOT
BRANCH   5   8
ATOM      8  C   UNL     1      38.333   4.761  16.820  0.00  0.00    +0.000 A 
ATOM      9  C   UNL     1      38.852   4.686  18.088  0.00  0.00    +0.000 A 
ATOM     10  C   UNL     1      38.990   5.828  18.855  0.00  0.00    +0.000 A 
ATOM     11  C   UNL     1      38.611   7.039  18.360  0.00  0.00    +0.000 A 
ATOM     12  C   UNL     1      38.090   7.129  17.094  0.00  0.00    +0.000 A 
ATOM     13  C   UNL     1      37.949   5.979  16.312  0.00  0.00    +0.000 A 
BRANCH  11  14
ATOM     14  C   UNL     1      38.760   8.270  19.178  0.00  0.00    +0.000 C 
ATOM     15  C   UNL     1      39.511   7.962  20.452  0.00  0.00    +0.000 C 
ATOM     16  C   UNL     1      37.415   8.812  19.558  0.00  0.00    +0.000 C 
ENDBRANCH  11  14
ENDBRANCH   5   8
BRANCH   1  17
ATOM     17  N   UNL     1      36.820   0.222  15.087  0.00  0.00    +0.000 NA
BRANCH  17  23
ATOM     18  C   UNL     1      36.193  -1.230  16.939  0.00  0.00    +0.000 A 
ATOM     19  C   UNL     1      36.508  -2.213  17.834  0.00  0.00    +0.000 A 
ATOM     20  C   UNL     1      37.745  -2.816  17.875  0.00  0.00    +0.000 A 
ATOM     21  C   UNL     1      38.674  -2.374  16.950  0.00  0.00    +0.000 A 
ATOM     22  C   UNL     1      38.385  -1.385  16.036  0.00  0.00    +0.000 A 
ATOM     23  C   UNL     1      37.121  -0.794  16.022  0.00  0.00    +0.000 A 
BRANCH  18  25
ATOM     24  C   UNL     1      33.833  -1.628  17.361  0.00  0.00    +0.000 C 
ATOM     25  C   UNL     1      34.843  -0.589  16.913  0.00  0.00    +0.000 C 
ENDBRANCH  18  25
ENDBRANCH  17  23
ENDBRANCH   1  17
BRANCH   2  26
ATOM     26  S   UNL     1      39.017   1.186  12.880  0.00  0.00    +0.000 S 
BRANCH  26  27
ATOM     27  C   UNL     1      40.074  -0.198  13.248  0.00  0.00    +0.000 A 
ATOM     28  C   UNL     1      41.186  -0.130  14.063  0.00  0.00    +0.000 A 
ATOM     29  C   UNL     1      41.960  -1.240  14.302  0.00  0.00    +0.000 A 
ATOM     30  C   UNL     1      41.631  -2.452  13.725  0.00  0.00    +0.000 A 
ATOM     31  C   UNL     1      40.527  -2.525  12.914  0.00  0.00    +0.000 A 
ATOM     32  C   UNL     1      39.761  -1.424  12.678  0.00  0.00    +0.000 A 
ENDBRANCH  26  27
ENDBRANCH   2  26
TORSDOF 7
ENDMDL
MODEL 3
REMARK VINA RESULT:      -7.9      3.153      8.893
REMARK  Name = 
REMARK  7 active torsions:
REMARK  status: ('A' for Active; 'I' for Inactive)
REMARK    1  A    between atoms: C_2  and  C_3
REMARK    2  A    between atoms: C_8  and  N_9
REMARK    3  A    between atoms: N_9  and  C_10
REMARK    4  A    between atoms: C_11  and  S_12
REMARK    5  A    between atoms: S_12  and  C_13
REMARK    6  A    between atoms: N_21  and  C_22
REMARK    7  A    between atoms: C_25  and  C_26
REMARK                            x       y       z     vdW  Elec       q    Type
REMARK                         _______ _______ _______ _____ _____    ______ ____
ROOT
ATOM      1  C   UNL     1      38.560   2.766  14.248  0.00  0.00    +0.000 C 
ATOM      2  C   UNL     1      37.509   2.344  14.926  0.00  0.00    +0.000 C 
ATOM      3  C   UNL     1      37.297   3.181  16.108  0.00  0.00    +0.000 C 
ATOM      4  O   UNL     1      36.360   3.028  16.969  0.00  0.00    +0.000 OA
ATOM      5  N   UNL     1      38.304   4.178  16.129  0.00  0.00    +0.000 N 
ATOM      6  C   UNL     1      39.098   3.918  14.960  0.00  0.00    +0.000 C 
ATOM      7  O   UNL     1      40.092   4.612  14.650  0.00  0.00    +0.000 OA
ENDROOT
BRANCH   5   8
ATOM      8  C   UNL     1      38.484   5.197  17.094  0.00  0.00    +0.000 A 
ATOM      9  C   UNL     1      39.130   4.926  18.274  0.00  0.00    +0.000 A 
ATOM     10  C   UNL     1      39.309   5.921  19.216  0.00  0.00    +0.000 A 
ATOM     11  C   UNL     1      38.846   7.181  18.984  0.00  0.00    +0.000 A 
ATOM     12  C   UNL     1      38.198   7.466  17.808  0.00  0.00    +0.000 A 
ATOM     13  C   UNL     1      38.014   6.465  16.850  0.00  0.00    +0.000 A 
BRANCH  11  14
ATOM     14  C   UNL     1      39.038   8.255  19.991  0.00  0.00    +0.000 C 
ATOM     15  C   UNL     1      37.704   8.836  20.396  0.00  0.00    +0.000 C 
ATOM     16  C   UNL     1      39.869   9.365  19.421  0.00  0.00    +0.000 C 
ENDBRANCH  11  14
ENDBRANCH   5   8
BRANCH   1  17
ATOM     17  N   UNL     1      39.082   2.193  13.031  0.00  0.00    +0.000 NA
BRANCH  17  23
ATOM     18  C   UNL     1      39.542  -0.048  12.194  0.00  0.00    +0.000 A 
ATOM     19  C   UNL     1      40.204  -1.239  12.296  0.00  0.00    +0.000 A 
ATOM     20  C   UNL     1      41.106  -1.508  13.299  0.00  0.00    +0.000 A 
ATOM     21  C   UNL     1      41.318  -0.498  14.221  0.00  0.00    +0.000 A 
ATOM     22  C   UNL     1      40.665   0.713  14.144  0.00  0.00    +0.000 A 
ATOM     23  C   UNL     1      39.756   0.953  13.113  0.00  0.00    +0.000 A 
BRANCH  18  25
ATOM     24  C   UNL     1      39.361   0.560   9.848  0.00  0.00    +0.000 C 
ATOM     25  C   UNL     1      38.565   0.222  11.095  0.00  0.00    +0.000 C 
ENDBRANCH  18  25
ENDBRANCH  17  23
ENDBRANCH   1  17
BRANCH   2  26
ATOM     26  S   UNL     1      36.458   0.952  14.515  0.00  0.00    +0.000 S 
BRANCH  26  27
ATOM     27  C   UNL     1      37.223  -0.595  14.950  0.00  0.00    +0.000 A 
ATOM     28  C   UNL     1      38.024  -0.779  16.058  0.00  0.00    +0.000 A 
ATOM     29  C   UNL     1      38.586  -2.003  16.332  0.00  0.00    +0.000 A 
ATOM     30  C   UNL     1      38.353  -3.077  15.493  0.00  0.00    +0.000 A 
ATOM     31  C   UNL     1      37.556  -2.899  14.390  0.00  0.00    +0.000 A 
ATOM     32  C   UNL     1      37.001  -1.685  14.120  0.00  0.00    +0.000 A 
ENDBRANCH  26  27
ENDBRANCH   2  26
TORSDOF 7
ENDMDL
MODEL 4
REMARK VINA RESULT:      -7.8      1.871      2.787
REMARK  Name = 
REMARK  7 active torsions:
REMARK  status: ('A' for Active; 'I' for Inactive)
REMARK    1  A    between atoms: C_2  and  C_3
REMARK    2  A    between atoms: C_8  and  N_9
REMARK    3  A    between atoms: N_9  and  C_10
REMARK    4  A    between atoms: C_11  and  S_12
REMARK    5  A    between atoms: S_12  and  C_13
REMARK    6  A    between atoms: N_21  and  C_22
REMARK    7  A    between atoms: C_25  and  C_26
REMARK                            x       y       z     vdW  Elec       q    Type
REMARK                         _______ _______ _______ _____ _____    ______ ____
ROOT
ATOM      1  C   UNL     1      37.742   4.969  15.979  0.00  0.00    +0.000 C 
ATOM      2  C   UNL     1      37.415   4.839  14.707  0.00  0.00    +0.000 C 
ATOM      3  C   UNL     1      36.932   3.484  14.441  0.00  0.00    +0.000 C 
ATOM      4  O   UNL     1      36.540   3.044  13.304  0.00  0.00    +0.000 OA
ATOM      5  N   UNL     1      36.976   2.754  15.656  0.00  0.00    +0.000 N 
ATOM      6  C   UNL     1      37.485   3.688  16.623  0.00  0.00    +0.000 C 
ATOM      7  O   UNL     1      37.660   3.387  17.825  0.00  0.00    +0.000 OA
ENDROOT
BRANCH   5   8
ATOM      8  C   UNL     1      36.605   1.405  15.861  0.00  0.00    +0.000 A 
ATOM      9  C   UNL     1      37.447   0.390  15.481  0.00  0.00    +0.000 A 
ATOM     10  C   UNL     1      37.087  -0.929  15.683  0.00  0.00    +0.000 A 
ATOM     11  C   UNL     1      35.893  -1.236  16.261  0.00  0.00    +0.000 A 
ATOM     12  C   UNL     1      35.040  -0.232  16.647  0.00  0.00    +0.000 A 
ATOM     13  C   UNL     1      35.398   1.105  16.446  0.00  0.00    +0.000 A 
BRANCH  11  14
ATOM     14  C   UNL     1      35.502  -2.651  16.484  0.00  0.00    +0.000 C 
ATOM     15  C   UNL     1      36.690  -3.450  16.967  0.00  0.00    +0.000 C 
ATOM     16  C   UNL     1      35.022  -3.270  15.206  0.00  0.00    +0.000 C 
ENDBRANCH  11  14
ENDBRANCH   5   8
BRANCH   1  17
ATOM     17  N   UNL     1      38.260   6.157  16.615  0.00  0.00    +0.000 NA
BRANCH  17  23
ATOM     18  C   UNL     1      40.216   6.233  18.065  0.00  0.00    +0.000 A 
ATOM     19  C   UNL     1      41.569   6.330  18.227  0.00  0.00    +0.000 A 
ATOM     20  C   UNL     1      42.440   6.451  17.168  0.00  0.00    +0.000 A 
ATOM     21  C   UNL     1      41.873   6.470  15.906  0.00  0.00    +0.000 A 
ATOM     22  C   UNL     1      40.512   6.375  15.712  0.00  0.00    +0.000 A 
ATOM     23  C   UNL     1      39.657   6.254  16.808  0.00  0.00    +0.000 A 
BRANCH  18  25
ATOM     24  C   UNL     1      39.440   7.353  20.078  0.00  0.00    +0.000 C 
ATOM     25  C   UNL     1      39.288   6.104  19.231  0.00  0.00    +0.000 C 
ENDBRANCH  18  25
ENDBRANCH  17  23
ENDBRANCH   1  17
BRANCH   2  26
ATOM     26  S   UNL     1      37.530   6.100  13.438  0.00  0.00    +0.000 S 
BRANCH  26  27
ATOM     27  C   UNL     1      35.927   6.524  12.792  0.00  0.00    +0.000 A 
ATOM     28  C   UNL     1      34.791   6.663  13.564  0.00  0.00    +0.000 A 
ATOM     29  C   UNL     1      33.583   6.990  12.996  0.00  0.00    +0.000 A 
ATOM     30  C   UNL     1      33.489   7.187  11.632  0.00  0.00    +0.000 A 
ATOM     31  C   UNL     1      34.615   7.050  10.859  0.00  0.00    +0.000 A 
ATOM     32  C   UNL     1      35.811   6.726  11.424  0.00  0.00    +0.000 A 
ENDBRANCH  26  27
ENDBRANCH   2  26
TORSDOF 7
ENDMDL
MODEL 5
REMARK VINA RESULT:      -7.5      2.211      7.164
REMARK  Name = 
REMARK  7 active torsions:
REMARK  status: ('A' for Active; 'I' for Inactive)
REMARK    1  A    between atoms: C_2  and  C_3
REMARK    2  A    between atoms: C_8  and  N_9
REMARK    3  A    between atoms: N_9  and  C_10
REMARK    4  A    between atoms: C_11  and  S_12
REMARK    5  A    between atoms: S_12  and  C_13
REMARK    6  A    between atoms: N_21  and  C_22
REMARK    7  A    between atoms: C_25  and  C_26
REMARK                            x       y       z     vdW  Elec       q    Type
REMARK                         _______ _______ _______ _____ _____    ______ ____
ROOT
ATOM      1  C   UNL     1      37.195   3.162  15.195  0.00  0.00    +0.000 C 
ATOM      2  C   UNL     1      37.548   4.108  14.344  0.00  0.00    +0.000 C 
ATOM      3  C   UNL     1      38.068   5.271  15.063  0.00  0.00    +0.000 C 
ATOM      4  O   UNL     1      38.491   6.352  14.521  0.00  0.00    +0.000 OA
ATOM      5  N   UNL     1      38.019   4.989  16.452  0.00  0.00    +0.000 N 
ATOM      6  C   UNL     1      37.470   3.664  16.535  0.00  0.00    +0.000 C 
ATOM      7  O   UNL     1      37.281   3.078  17.625  0.00  0.00    +0.000 OA
ENDROOT
BRANCH   5   8
ATOM      8  C   UNL     1      38.418   5.834  17.514  0.00  0.00    +0.000 A 
ATOM      9  C   UNL     1      39.353   5.407  18.423  0.00  0.00    +0.000 A 
ATOM     10  C   UNL     1      39.747   6.232  19.460  0.00  0.00    +0.000 A 
ATOM     11  C   UNL     1      39.211   7.478  19.590  0.00  0.00    +0.000 A 
ATOM     12  C   UNL     1      38.275   7.918  18.687  0.00  0.00    +0.000 A 
ATOM     13  C   UNL     1      37.873   7.089  17.636  0.00  0.00    +0.000 A 
BRANCH  11  14
ATOM     14  C   UNL     1      39.633   8.370  20.699  0.00  0.00    +0.000 C 
ATOM     15  C   UNL     1      38.582   9.426  20.948  0.00  0.00    +0.000 C 
ATOM     16  C   UNL     1      40.913   9.069  20.352  0.00  0.00    +0.000 C 
ENDBRANCH  11  14
ENDBRANCH   5   8
BRANCH   1  17
ATOM     17  N   UNL     1      36.637   1.873  14.862  0.00  0.00    +0.000 NA
BRANCH  17  23
ATOM     18  C   UNL     1      36.876  -0.212  16.098  0.00  0.00    +0.000 A 
ATOM     19  C   UNL     1      37.606  -1.321  16.424  0.00  0.00    +0.000 A 
ATOM     20  C   UNL     1      38.854  -1.573  15.901  0.00  0.00    +0.000 A 
ATOM     21  C   UNL     1      39.347  -0.635  15.011  0.00  0.00    +0.000 A 
ATOM     22  C   UNL     1      38.635   0.493  14.664  0.00  0.00    +0.000 A 
ATOM     23  C   UNL     1      37.372   0.718  15.214  0.00  0.00    +0.000 A 
BRANCH  18  25
ATOM     24  C   UNL     1      35.618  -0.180  18.177  0.00  0.00    +0.000 C 
ATOM     25  C   UNL     1      35.522   0.041  16.679  0.00  0.00    +0.000 C 
ENDBRANCH  18  25
ENDBRANCH  17  23
ENDBRANCH   1  17
BRANCH   2  26
ATOM     26  S   UNL     1      37.426   4.039  12.557  0.00  0.00    +0.000 S 
BRANCH  26  27
ATOM     27  C   UNL     1      36.272   5.242  11.934  0.00  0.00    +0.000 A 
ATOM     28  C   UNL     1      36.224   5.665  10.622  0.00  0.00    +0.000 A 
ATOM     29  C   UNL     1      35.306   6.601  10.210  0.00  0.00    +0.000 A 
ATOM     30  C   UNL     1      34.408   7.136  11.114  0.00  0.00    +0.000 A 
ATOM     31  C   UNL     1      34.451   6.719  12.421  0.00  0.00    +0.000 A 
ATOM     32  C   UNL     1      35.362   5.791  12.827  0.00  0.00    +0.000 A 
ENDBRANCH  26  27
ENDBRANCH   2  26
TORSDOF 7
ENDMDL
MODEL 6
REMARK VINA RESULT:      -7.5      2.257      7.892
REMARK  Name = 
REMARK  7 active torsions:
REMARK  status: ('A' for Active; 'I' for Inactive)
REMARK    1  A    between atoms: C_2  and  C_3
REMARK    2  A    between atoms: C_8  and  N_9
REMARK    3  A    between atoms: N_9  and  C_10
REMARK    4  A    between atoms: C_11  and  S_12
REMARK    5  A    between atoms: S_12  and  C_13
REMARK    6  A    between atoms: N_21  and  C_22
REMARK    7  A    between atoms: C_25  and  C_26
REMARK                            x       y       z     vdW  Elec       q    Type
REMARK                         _______ _______ _______ _____ _____    ______ ____
ROOT
ATOM      1  C   UNL     1      36.640   4.632  14.141  0.00  0.00    +0.000 C 
ATOM      2  C   UNL     1      37.293   3.486  14.192  0.00  0.00    +0.000 C 
ATOM      3  C   UNL     1      38.371   3.558  15.178  0.00  0.00    +0.000 C 
ATOM      4  O   UNL     1      39.185   2.609  15.460  0.00  0.00    +0.000 OA
ATOM      5  N   UNL     1      38.355   4.852  15.757  0.00  0.00    +0.000 N 
ATOM      6  C   UNL     1      37.266   5.528  15.105  0.00  0.00    +0.000 C 
ATOM      7  O   UNL     1      36.950   6.710  15.369  0.00  0.00    +0.000 OA
ENDROOT
BRANCH   5   8
ATOM      8  C   UNL     1      39.223   5.359  16.751  0.00  0.00    +0.000 A 
ATOM      9  C   UNL     1      38.872   5.293  18.076  0.00  0.00    +0.000 A 
ATOM     10  C   UNL     1      39.722   5.785  19.049  0.00  0.00    +0.000 A 
ATOM     11  C   UNL     1      40.915   6.342  18.703  0.00  0.00    +0.000 A 
ATOM     12  C   UNL     1      41.280   6.415  17.382  0.00  0.00    +0.000 A 
ATOM     13  C   UNL     1      40.426   5.919  16.393  0.00  0.00    +0.000 A 
BRANCH  11  14
ATOM     14  C   UNL     1      41.833   6.870  19.745  0.00  0.00    +0.000 C 
ATOM     15  C   UNL     1      41.488   8.305  20.067  0.00  0.00    +0.000 C 
ATOM     16  C   UNL     1      43.251   6.837  19.259  0.00  0.00    +0.000 C 
ENDBRANCH  11  14
ENDBRANCH   5   8
BRANCH   1  17
ATOM     17  N   UNL     1      35.518   4.945  13.288  0.00  0.00    +0.000 NA
BRANCH  17  23
ATOM     18  C   UNL     1      34.669   7.154  12.716  0.00  0.00    +0.000 A 
ATOM     19  C   UNL     1      34.740   8.295  11.965  0.00  0.00    +0.000 A 
ATOM     20  C   UNL     1      35.695   8.491  10.995  0.00  0.00    +0.000 A 
ATOM     21  C   UNL     1      36.601   7.461  10.808  0.00  0.00    +0.000 A 
ATOM     22  C   UNL     1      36.554   6.300  11.549  0.00  0.00    +0.000 A 
ATOM     23  C   UNL     1      35.572   6.134  12.525  0.00  0.00    +0.000 A 
BRANCH  18  25
ATOM     24  C   UNL     1      33.732   8.121  14.740  0.00  0.00    +0.000 C 
ATOM     25  C   UNL     1      33.622   6.963  13.765  0.00  0.00    +0.000 C 
ENDBRANCH  18  25
ENDBRANCH  17  23
ENDBRANCH   1  17
BRANCH   2  26
ATOM     26  S   UNL     1      36.958   2.020  13.217  0.00  0.00    +0.000 S 
BRANCH  26  27
ATOM     27  C   UNL     1      36.508   0.640  14.246  0.00  0.00    +0.000 A 
ATOM     28  C   UNL     1      36.868  -0.668  13.991  0.00  0.00    +0.000 A 
ATOM     29  C   UNL     1      36.483  -1.687  14.828  0.00  0.00    +0.000 A 
ATOM     30  C   UNL     1      35.723  -1.412  15.950  0.00  0.00    +0.000 A 
ATOM     31  C   UNL     1      35.363  -0.114  16.209  0.00  0.00    +0.000 A 
ATOM     32  C   UNL     1      35.745   0.894  15.377  0.00  0.00    +0.000 A 
ENDBRANCH  26  27
ENDBRANCH   2  26
TORSDOF 7
ENDMDL
MODEL 7
REMARK VINA RESULT:      -7.5      2.299      8.085
REMARK  Name = 
REMARK  7 active torsions:
REMARK  status: ('A' for Active; 'I' for Inactive)
REMARK    1  A    between atoms: C_2  and  C_3
REMARK    2  A    between atoms: C_8  and  N_9
REMARK    3  A    between atoms: N_9  and  C_10
REMARK    4  A    between atoms: C_11  and  S_12
REMARK    5  A    between atoms: S_12  and  C_13
REMARK    6  A    between atoms: N_21  and  C_22
REMARK    7  A    between atoms: C_25  and  C_26
REMARK                            x       y       z     vdW  Elec       q    Type
REMARK                         _______ _______ _______ _____ _____    ______ ____
ROOT
ATOM      1  C   UNL     1      36.788   4.372  14.702  0.00  0.00    +0.000 C 
ATOM      2  C   UNL     1      36.523   3.517  15.673  0.00  0.00    +0.000 C 
ATOM      3  C   UNL     1      37.407   3.754  16.815  0.00  0.00    +0.000 C 
ATOM      4  O   UNL     1      37.400   3.091  17.911  0.00  0.00    +0.000 OA
ATOM      5  N   UNL     1      38.264   4.837  16.493  0.00  0.00    +0.000 N 
ATOM      6  C   UNL     1      37.874   5.226  15.165  0.00  0.00    +0.000 C 
ATOM      7  O   UNL     1      38.424   6.166  14.548  0.00  0.00    +0.000 OA
ENDROOT
BRANCH   5   8
ATOM      8  C   UNL     1      39.277   5.401  17.302  0.00  0.00    +0.000 A 
ATOM      9  C   UNL     1      39.069   5.579  18.647  0.00  0.00    +0.000 A 
ATOM     10  C   UNL     1      40.060   6.127  19.440  0.00  0.00    +0.000 A 
ATOM     11  C   UNL     1      41.253   6.496  18.896  0.00  0.00    +0.000 A 
ATOM     12  C   UNL     1      41.475   6.323  17.552  0.00  0.00    +0.000 A 
ATOM     13  C   UNL     1      40.478   5.770  16.744  0.00  0.00    +0.000 A 
BRANCH  11  14
ATOM     14  C   UNL     1      42.322   7.082  19.744  0.00  0.00    +0.000 C 
ATOM     15  C   UNL     1      42.630   6.164  20.904  0.00  0.00    +0.000 C 
ATOM     16  C   UNL     1      41.882   8.400  20.306  0.00  0.00    +0.000 C 
ENDBRANCH  11  14
ENDBRANCH   5   8
BRANCH   1  17
ATOM     17  N   UNL     1      36.129   4.446  13.420  0.00  0.00    +0.000 NA
BRANCH  17  23
ATOM     18  C   UNL     1      35.320   6.201  11.939  0.00  0.00    +0.000 A 
ATOM     19  C   UNL     1      34.516   7.282  11.709  0.00  0.00    +0.000 A 
ATOM     20  C   UNL     1      33.660   7.790  12.658  0.00  0.00    +0.000 A 
ATOM     21  C   UNL     1      33.649   7.145  13.882  0.00  0.00    +0.000 A 
ATOM     22  C   UNL     1      34.448   6.054  14.144  0.00  0.00    +0.000 A 
ATOM     23  C   UNL     1      35.306   5.564  13.158  0.00  0.00    +0.000 A 
BRANCH  18  25
ATOM     24  C   UNL     1      35.736   6.148   9.545  0.00  0.00    +0.000 C 
ATOM     25  C   UNL     1      36.243   5.666  10.891  0.00  0.00    +0.000 C 
ENDBRANCH  18  25
ENDBRANCH  17  23
ENDBRANCH   1  17
BRANCH   2  26
ATOM     26  S   UNL     1      35.279   2.228  15.654  0.00  0.00    +0.000 S 
BRANCH  26  27
ATOM     27  C   UNL     1      36.000   0.620  15.908  0.00  0.00    +0.000 A 
ATOM     28  C   UNL     1      37.236   0.239  15.425  0.00  0.00    +0.000 A 
ATOM     29  C   UNL     1      37.730  -1.022  15.657  0.00  0.00    +0.000 A 
ATOM     30  C   UNL     1      36.990  -1.934  16.385  0.00  0.00    +0.000 A 
ATOM     31  C   UNL     1      35.761  -1.560  16.868  0.00  0.00    +0.000 A 
ATOM     32  C   UNL     1      35.273  -0.310  16.637  0.00  0.00    +0.000 A 
ENDBRANCH  26  27
ENDBRANCH   2  26
TORSDOF 7
ENDMDL
MODEL 8
REMARK VINA RESULT:      -7.4      4.457      7.503
REMARK  Name = 
REMARK  7 active torsions:
REMARK  status: ('A' for Active; 'I' for Inactive)
REMARK    1  A    between atoms: C_2  and  C_3
REMARK    2  A    between atoms: C_8  and  N_9
REMARK    3  A    between atoms: N_9  and  C_10
REMARK    4  A    between atoms: C_11  and  S_12
REMARK    5  A    between atoms: S_12  and  C_13
REMARK    6  A    between atoms: N_21  and  C_22
REMARK    7  A    between atoms: C_25  and  C_26
REMARK                            x       y       z     vdW  Elec       q    Type
REMARK                         _______ _______ _______ _____ _____    ______ ____
ROOT
ATOM      1  C   UNL     1      37.277  -0.836  15.797  0.00  0.00    +0.000 C 
ATOM      2  C   UNL     1      36.230  -0.561  16.553  0.00  0.00    +0.000 C 
ATOM      3  C   UNL     1      35.308  -1.697  16.579  0.00  0.00    +0.000 C 
ATOM      4  O   UNL     1      34.201  -1.741  17.222  0.00  0.00    +0.000 OA
ATOM      5  N   UNL     1      35.855  -2.728  15.773  0.00  0.00    +0.000 N 
ATOM      6  C   UNL     1      37.093  -2.187  15.282  0.00  0.00    +0.000 C 
ATOM      7  O   UNL     1      37.857  -2.828  14.526  0.00  0.00    +0.000 OA
ENDROOT
BRANCH   5   8
ATOM      8  C   UNL     1      35.297  -4.001  15.512  0.00  0.00    +0.000 A 
ATOM      9  C   UNL     1      34.284  -4.138  14.596  0.00  0.00    +0.000 A 
ATOM     10  C   UNL     1      33.740  -5.382  14.338  0.00  0.00    +0.000 A 
ATOM     11  C   UNL     1      34.203  -6.484  14.989  0.00  0.00    +0.000 A 
ATOM     12  C   UNL     1      35.215  -6.363  15.907  0.00  0.00    +0.000 A 
ATOM     13  C   UNL     1      35.771  -5.108  16.173  0.00  0.00    +0.000 A 
BRANCH  11  14
ATOM     14  C   UNL     1      33.624  -7.824  14.713  0.00  0.00    +0.000 C 
ATOM     15  C   UNL     1      34.293  -8.869  15.574  0.00  0.00    +0.000 C 
ATOM     16  C   UNL     1      33.842  -8.203  13.278  0.00  0.00    +0.000 C 
ENDBRANCH  11  14
ENDBRANCH   5   8
BRANCH   1  17
ATOM     17  N   UNL     1      38.394   0.037  15.527  0.00  0.00    +0.000 NA
BRANCH  17  23
ATOM     18  C   UNL     1      39.821   0.390  13.586  0.00  0.00    +0.000 A 
ATOM     19  C   UNL     1      39.989   0.820  12.299  0.00  0.00    +0.000 A 
ATOM     20  C   UNL     1      38.964   1.351  11.551  0.00  0.00    +0.000 A 
ATOM     21  C   UNL     1      37.730   1.432  12.170  0.00  0.00    +0.000 A 
ATOM     22  C   UNL     1      37.530   1.007  13.466  0.00  0.00    +0.000 A 
ATOM     23  C   UNL     1      38.592   0.473  14.197  0.00  0.00    +0.000 A 
BRANCH  18  25
ATOM     24  C   UNL     1      41.138  -1.623  13.938  0.00  0.00    +0.000 C 
ATOM     25  C   UNL     1      40.951  -0.184  14.380  0.00  0.00    +0.000 C 
ENDBRANCH  18  25
ENDBRANCH  17  23
ENDBRANCH   1  17
BRANCH   2  26
ATOM     26  S   UNL     1      35.922   0.966  17.440  0.00  0.00    +0.000 S 
BRANCH  26  27
ATOM     27  C   UNL     1      35.906   2.366  16.342  0.00  0.00    +0.000 A 
ATOM     28  C   UNL     1      34.864   2.672  15.489  0.00  0.00    +0.000 A 
ATOM     29  C   UNL     1      34.920   3.770  14.665  0.00  0.00    +0.000 A 
ATOM     30  C   UNL     1      36.031   4.592  14.680  0.00  0.00    +0.000 A 
ATOM     31  C   UNL     1      37.069   4.293  15.526  0.00  0.00    +0.000 A 
ATOM     32  C   UNL     1      37.012   3.205  16.342  0.00  0.00    +0.000 A 
ENDBRANCH  26  27
ENDBRANCH   2  26
TORSDOF 7
ENDMDL
MODEL 9
REMARK VINA RESULT:      -7.2      5.683      9.368
REMARK  Name = 
REMARK  7 active torsions:
REMARK  status: ('A' for Active; 'I' for Inactive)
REMARK    1  A    between atoms: C_2  and  C_3
REMARK    2  A    between atoms: C_8  and  N_9
REMARK    3  A    between atoms: N_9  and  C_10
REMARK    4  A    between atoms: C_11  and  S_12
REMARK    5  A    between atoms: S_12  and  C_13
REMARK    6  A    between atoms: N_21  and  C_22
REMARK    7  A    between atoms: C_25  and  C_26
REMARK                            x       y       z     vdW  Elec       q    Type
REMARK                         _______ _______ _______ _____ _____    ______ ____
ROOT
ATOM      1  C   UNL     1      38.687  -0.596  14.451  0.00  0.00    +0.000 C 
ATOM      2  C   UNL     1      38.709  -1.516  15.398  0.00  0.00    +0.000 C 
ATOM      3  C   UNL     1      39.952  -2.284  15.333  0.00  0.00    +0.000 C 
ATOM      4  O   UNL     1      40.272  -3.248  16.114  0.00  0.00    +0.000 OA
ATOM      5  N   UNL     1      40.729  -1.777  14.260  0.00  0.00    +0.000 N 
ATOM      6  C   UNL     1      39.934  -0.715  13.706  0.00  0.00    +0.000 C 
ATOM      7  O   UNL     1      40.310  -0.030  12.729  0.00  0.00    +0.000 OA
ENDROOT
BRANCH   5   8
ATOM      8  C   UNL     1      42.001  -2.225  13.834  0.00  0.00    +0.000 A 
ATOM      9  C   UNL     1      42.106  -3.154  12.830  0.00  0.00    +0.000 A 
ATOM     10  C   UNL     1      43.349  -3.591  12.410  0.00  0.00    +0.000 A 
ATOM     11  C   UNL     1      44.481  -3.104  12.989  0.00  0.00    +0.000 A 
ATOM     12  C   UNL     1      44.392  -2.174  13.995  0.00  0.00    +0.000 A 
ATOM     13  C   UNL     1      43.138  -1.728  14.424  0.00  0.00    +0.000 A 
BRANCH  11  14
ATOM     14  C   UNL     1      45.819  -3.568  12.540  0.00  0.00    +0.000 C 
ATOM     15  C   UNL     1      45.674  -4.695  11.546  0.00  0.00    +0.000 C 
ATOM     16  C   UNL     1      46.614  -4.081  13.703  0.00  0.00    +0.000 C 
ENDBRANCH  11  14
ENDBRANCH   5   8
BRANCH   1  17
ATOM     17  N   UNL     1      37.627   0.350  14.197  0.00  0.00    +0.000 NA
BRANCH  17  23
ATOM     18  C   UNL     1      36.602   2.037  15.623  0.00  0.00    +0.000 A 
ATOM     19  C   UNL     1      36.661   3.242  16.265  0.00  0.00    +0.000 A 
ATOM     20  C   UNL     1      37.761   4.067  16.203  0.00  0.00    +0.000 A 
ATOM     21  C   UNL     1      38.827   3.613  15.447  0.00  0.00    +0.000 A 
ATOM     22  C   UNL     1      38.796   2.403  14.788  0.00  0.00    +0.000 A 
ATOM     23  C   UNL     1      37.665   1.591  14.871  0.00  0.00    +0.000 A 
BRANCH  18  25
ATOM     24  C   UNL     1      35.007   1.046  17.166  0.00  0.00    +0.000 C 
ATOM     25  C   UNL     1      35.396   1.157  15.704  0.00  0.00    +0.000 C 
ENDBRANCH  18  25
ENDBRANCH  17  23
ENDBRANCH   1  17
BRANCH   2  26
ATOM     26  S   UNL     1      37.429  -1.831  16.612  0.00  0.00    +0.000 S 
BRANCH  26  27
ATOM     27  C   UNL     1      36.099  -2.793  15.925  0.00  0.00    +0.000 A 
ATOM     28  C   UNL     1      36.251  -3.711  14.906  0.00  0.00    +0.000 A 
ATOM     29  C   UNL     1      35.177  -4.418  14.421  0.00  0.00    +0.000 A 
ATOM     30  C   UNL     1      33.917  -4.217  14.952  0.00  0.00    +0.000 A 
ATOM     31  C   UNL     1      33.760  -3.304  15.965  0.00  0.00    +0.000 A 
ATOM     32  C   UNL     1      34.825  -2.605  16.445  0.00  0.00    +0.000 A 
ENDBRANCH  26  27
ENDBRANCH   2  26
TORSDOF 7
ENDMDL
MODEL 10
REMARK VINA RESULT:      -7.2     23.116     26.060
REMARK  Name = 
REMARK  7 active torsions:
REMARK  status: ('A' for Active; 'I' for Inactive)
REMARK    1  A    between atoms: C_2  and  C_3
REMARK    2  A    between atoms: C_8  and  N_9
REMARK    3  A    between atoms: N_9  and  C_10
REMARK    4  A    between atoms: C_11  and  S_12
REMARK    5  A    between atoms: S_12  and  C_13
REMARK    6  A    between atoms: N_21  and  C_22
REMARK    7  A    between atoms: C_25  and  C_26
REMARK                            x       y       z     vdW  Elec       q    Type
REMARK                         _______ _______ _______ _____ _____    ______ ____
ROOT
ATOM      1  C   UNL     1      27.288  15.944  38.717  0.00  0.00    +0.000 C 
ATOM      2  C   UNL     1      26.014  15.830  38.390  0.00  0.00    +0.000 C 
ATOM      3  C   UNL     1      25.390  14.742  39.143  0.00  0.00    +0.000 C 
ATOM      4  O   UNL     1      24.165  14.381  39.050  0.00  0.00    +0.000 OA
ATOM      5  N   UNL     1      26.376  14.166  39.985  0.00  0.00    +0.000 N 
ATOM      6  C   UNL     1      27.569  14.921  39.717  0.00  0.00    +0.000 C 
ATOM      7  O   UNL     1      28.657  14.689  40.289  0.00  0.00    +0.000 OA
ENDROOT
BRANCH   5   8
ATOM      8  C   UNL     1      26.213  13.085  40.881  0.00  0.00    +0.000 A 
ATOM      9  C   UNL     1      26.746  11.855  40.586  0.00  0.00    +0.000 A 
ATOM     10  C   UNL     1      26.591  10.798  41.463  0.00  0.00    +0.000 A 
ATOM     11  C   UNL     1      25.907  10.965  42.629  0.00  0.00    +0.000 A 
ATOM     12  C   UNL     1      25.369  12.189  42.938  0.00  0.00    +0.000 A 
ATOM     13  C   UNL     1      25.522  13.263  42.056  0.00  0.00    +0.000 A 
BRANCH  11  14
ATOM     14  C   UNL     1      25.740   9.834  43.576  0.00  0.00    +0.000 C 
ATOM     15  C   UNL     1      26.291   8.563  42.974  0.00  0.00    +0.000 C 
ATOM     16  C   UNL     1      24.287   9.609  43.873  0.00  0.00    +0.000 C 
ENDBRANCH  11  14
ENDBRANCH   5   8
BRANCH   1  17
ATOM     17  N   UNL     1      28.230  16.898  38.183  0.00  0.00    +0.000 NA
BRANCH  17  23
ATOM     18  C   UNL     1      28.722  17.642  35.917  0.00  0.00    +0.000 A 
ATOM     19  C   UNL     1      29.229  17.396  34.671  0.00  0.00    +0.000 A 
ATOM     20  C   UNL     1      29.788  16.190  34.318  0.00  0.00    +0.000 A 
ATOM     21  C   UNL     1      29.814  15.215  35.300  0.00  0.00    +0.000 A 
ATOM     22  C   UNL     1      29.310  15.433  36.564  0.00  0.00    +0.000 A 
ATOM     23  C   UNL     1      28.750  16.669  36.889  0.00  0.00    +0.000 A 
BRANCH  18  25
ATOM     24  C   UNL     1      27.522  19.554  35.015  0.00  0.00    +0.000 C 
ATOM     25  C   UNL     1      28.118  18.961  36.278  0.00  0.00    +0.000 C 
ENDBRANCH  18  25
ENDBRANCH  17  23
ENDBRANCH   1  17
BRANCH   2  26
ATOM     26  S   UNL     1      25.123  16.830  37.199  0.00  0.00    +0.000 S 
BRANCH  26  27
ATOM     27  C   UNL     1      25.381  16.250  35.536  0.00  0.00    +0.000 A 
ATOM     28  C   UNL     1      25.088  16.983  34.405  0.00  0.00    +0.000 A 
ATOM     29  C   UNL     1      25.311  16.471  33.149  0.00  0.00    +0.000 A 
ATOM     30  C   UNL     1      25.838  15.202  33.002  0.00  0.00    +0.000 A 
ATOM     31  C   UNL     1      26.131  14.468  34.124  0.00  0.00    +0.000 A 
ATOM     32  C   UNL     1      25.910  14.978  35.367  0.00  0.00    +0.000 A 
ENDBRANCH  26  27
ENDBRANCH   2  26
TORSDOF 7
ENDMDL
