MODEL 1
REMARK VINA RESULT:      -8.5      0.000      0.000
REMARK  Name = 
REMARK  7 active torsions:
REMARK  status: ('A' for Active; 'I' for Inactive)
REMARK    1  A    between atoms: C_2  and  C_3
REMARK    2  A    between atoms: C_6  and  C_7
REMARK    3  A    between atoms: C_9  and  C_10
REMARK    4  A    between atoms: N_12  and  C_13
REMARK    5  A    between atoms: C_13  and  C_14
REMARK    6  A    between atoms: C_14  and  C_15
REMARK    7  A    between atoms: C_18  and  O_19
REMARK                            x       y       z     vdW  Elec       q    Type
REMARK                         _______ _______ _______ _____ _____    ______ ____
ROOT
ATOM      1  C   UNL     1      39.141   5.756  17.027  0.00  0.00    +0.000 A 
ATOM      2  C   UNL     1      38.620   4.470  16.946  0.00  0.00    +0.000 A 
ATOM      3  C   UNL     1      37.638   4.215  16.020  0.00  0.00    +0.000 A 
ATOM      4  C   UNL     1      37.202   5.236  15.203  0.00  0.00    +0.000 A 
ATOM      5  C   UNL     1      36.217   5.059  14.245  0.00  0.00    +0.000 A 
ATOM      6  C   UNL     1      35.817   6.119  13.453  0.00  0.00    +0.000 A 
ATOM      7  C   UNL     1      36.376   7.371  13.585  0.00  0.00    +0.000 A 
ATOM      8  C   UNL     1      37.347   7.557  14.525  0.00  0.00    +0.000 A 
ATOM      9  C   UNL     1      37.747   6.512  15.312  0.00  0.00    +0.000 A 
ATOM     10  N   UNL     1      38.691   6.728  16.215  0.00  0.00    +0.000 NA
ENDROOT
BRANCH   1  14
ATOM     11  C   UNL     1      42.243   6.715  19.817  0.00  0.00    +0.000 A 
ATOM     12  C   UNL     1      40.969   6.398  20.238  0.00  0.00    +0.000 A 
ATOM     13  C   UNL     1      39.939   6.082  19.353  0.00  0.00    +0.000 A 
ATOM     14  C   UNL     1      40.190   6.081  17.998  0.00  0.00    +0.000 A 
ATOM     15  C   UNL     1      41.449   6.393  17.565  0.00  0.00    +0.000 A 
ATOM     16  C   UNL     1      42.480   6.710  18.459  0.00  0.00    +0.000 A 
BRANCH  11  18
ATOM     17  C   UNL     1      43.584   5.886  21.712  0.00  0.00    +0.000 C 
ATOM     18  C   UNL     1      43.334   7.050  20.778  0.00  0.00    +0.000 C 
ENDBRANCH  11  18
ENDBRANCH   1  14
BRANCH   3  19
ATOM     19  C   UNL     1      37.057   2.888  15.892  0.00  0.00    +0.000 C 
ATOM     20  O   UNL     1      37.765   1.983  15.387  0.00  0.00    +0.000 OA
ATOM     21  N   UNL     1      35.743   2.540  16.299  0.00  0.00    +0.000 NA
BRANCH  21  22
ATOM     22  C   UNL     1      35.192   1.205  16.158  0.00  0.00    +0.000 C 
BRANCH  22  23
ATOM     23  C   UNL     1      34.988   0.641  17.570  0.00  0.00    +0.000 C 
BRANCH  23  24
ATOM     24  C   UNL     1      36.000  -0.384  17.883  0.00  0.00    +0.000 A 
ATOM     25  C   UNL     1      36.708  -0.952  16.849  0.00  0.00    +0.000 A 
ATOM     26  C   UNL     1      37.674  -1.927  17.132  0.00  0.00    +0.000 A 
ATOM     27  C   UNL     1      37.929  -2.330  18.419  0.00  0.00    +0.000 A 
ATOM     28  C   UNL     1      37.224  -1.764  19.449  0.00  0.00    +0.000 A 
ATOM     29  C   UNL     1      36.279  -0.806  19.158  0.00  0.00    +0.000 A 
BRANCH  27  30
ATOM     30  O   UNL     1      38.880  -3.291  18.709  0.00  0.00    +0.000 OA
ATOM     31  C   UNL     1      38.965  -3.983  19.928  0.00  0.00    +0.000 C 
ENDBRANCH  27  30
ENDBRANCH  23  24
ENDBRANCH  22  23
ENDBRANCH  21  22
ENDBRANCH   3  19
TORSDOF 7
ENDMDL
MODEL 2
REMARK VINA RESULT:      -8.2      2.406      3.297
REMARK  Name = 
REMARK  7 active torsions:
REMARK  status: ('A' for Active; 'I' for Inactive)
REMARK    1  A    between atoms: C_2  and  C_3
REMARK    2  A    between atoms: C_6  and  C_7
REMARK    3  A    between atoms: C_9  and  C_10
REMARK    4  A    between atoms: N_12  and  C_13
REMARK    5  A    between atoms: C_13  and  C_14
REMARK    6  A    between atoms: C_14  and  C_15
REMARK    7  A    between atoms: C_18  and  O_19
REMARK                            x       y       z     vdW  Elec       q    Type
REMARK                         _______ _______ _______ _____ _____    ______ ____
ROOT
ATOM      1  C   UNL     1      38.037   4.424  16.851  0.00  0.00    +0.000 A 
ATOM      2  C   UNL     1      37.095   3.512  17.312  0.00  0.00    +0.000 A 
ATOM      3  C   UNL     1      36.687   2.505  16.469  0.00  0.00    +0.000 A 
ATOM      4  C   UNL     1      37.221   2.431  15.201  0.00  0.00    +0.000 A 
ATOM      5  C   UNL     1      36.862   1.447  14.294  0.00  0.00    +0.000 A 
ATOM      6  C   UNL     1      37.429   1.421  13.034  0.00  0.00    +0.000 A 
ATOM      7  C   UNL     1      38.360   2.358  12.640  0.00  0.00    +0.000 A 
ATOM      8  C   UNL     1      38.721   3.331  13.526  0.00  0.00    +0.000 A 
ATOM      9  C   UNL     1      38.163   3.362  14.773  0.00  0.00    +0.000 A 
ATOM     10  N   UNL     1      38.536   4.322  15.607  0.00  0.00    +0.000 NA
ENDROOT
BRANCH   1  14
ATOM     11  C   UNL     1      39.373   7.653  19.323  0.00  0.00    +0.000 A 
ATOM     12  C   UNL     1      39.775   6.355  19.556  0.00  0.00    +0.000 A 
ATOM     13  C   UNL     1      39.356   5.283  18.768  0.00  0.00    +0.000 A 
ATOM     14  C   UNL     1      38.506   5.516  17.709  0.00  0.00    +0.000 A 
ATOM     15  C   UNL     1      38.099   6.799  17.465  0.00  0.00    +0.000 A 
ATOM     16  C   UNL     1      38.523   7.871  18.260  0.00  0.00    +0.000 A 
BRANCH  11  18
ATOM     17  C   UNL     1      38.652   9.430  20.872  0.00  0.00    +0.000 C 
ATOM     18  C   UNL     1      39.832   8.789  20.176  0.00  0.00    +0.000 C 
ENDBRANCH  11  18
ENDBRANCH   1  14
BRANCH   3  19
ATOM     19  C   UNL     1      35.704   1.523  16.899  0.00  0.00    +0.000 C 
ATOM     20  O   UNL     1      34.495   1.758  16.657  0.00  0.00    +0.000 OA
ATOM     21  N   UNL     1      36.015   0.313  17.573  0.00  0.00    +0.000 NA
BRANCH  21  22
ATOM     22  C   UNL     1      35.010  -0.647  17.989  0.00  0.00    +0.000 C 
BRANCH  22  23
ATOM     23  C   UNL     1      35.040  -1.807  16.985  0.00  0.00    +0.000 C 
BRANCH  23  24
ATOM     24  C   UNL     1      36.426  -2.215  16.687  0.00  0.00    +0.000 A 
ATOM     25  C   UNL     1      36.884  -2.106  15.395  0.00  0.00    +0.000 A 
ATOM     26  C   UNL     1      38.199  -2.490  15.098  0.00  0.00    +0.000 A 
ATOM     27  C   UNL     1      39.041  -2.972  16.068  0.00  0.00    +0.000 A 
ATOM     28  C   UNL     1      38.585  -3.080  17.356  0.00  0.00    +0.000 A 
ATOM     29  C   UNL     1      37.292  -2.699  17.636  0.00  0.00    +0.000 A 
BRANCH  27  30
ATOM     30  O   UNL     1      40.339  -3.353  15.786  0.00  0.00    +0.000 OA
ATOM     31  C   UNL     1      41.130  -2.792  14.770  0.00  0.00    +0.000 C 
ENDBRANCH  27  30
ENDBRANCH  23  24
ENDBRANCH  22  23
ENDBRANCH  21  22
ENDBRANCH   3  19
TORSDOF 7
ENDMDL
MODEL 3
REMARK VINA RESULT:      -8.2      4.154      9.242
REMARK  Name = 
REMARK  7 active torsions:
REMARK  status: ('A' for Active; 'I' for Inactive)
REMARK    1  A    between atoms: C_2  and  C_3
REMARK    2  A    between atoms: C_6  and  C_7
REMARK    3  A    between atoms: C_9  and  C_10
REMARK    4  A    between atoms: N_12  and  C_13
REMARK    5  A    between atoms: C_13  and  C_14
REMARK    6  A    between atoms: C_14  and  C_15
REMARK    7  A    between atoms: C_18  and  O_19
REMARK                            x       y       z     vdW  Elec       q    Type
REMARK                         _______ _______ _______ _____ _____    ______ ____
ROOT
ATOM      1  C   UNL     1      37.706  -0.419  13.989  0.00  0.00    +0.000 A 
ATOM      2  C   UNL     1      37.767   0.929  14.324  0.00  0.00    +0.000 A 
ATOM      3  C   UNL     1      36.973   1.389  15.347  0.00  0.00    +0.000 A 
ATOM      4  C   UNL     1      36.145   0.506  16.006  0.00  0.00    +0.000 A 
ATOM      5  C   UNL     1      35.316   0.893  17.046  0.00  0.00    +0.000 A 
ATOM      6  C   UNL     1      34.504  -0.036  17.671  0.00  0.00    +0.000 A 
ATOM      7  C   UNL     1      34.492  -1.359  17.289  0.00  0.00    +0.000 A 
ATOM      8  C   UNL     1      35.305  -1.751  16.265  0.00  0.00    +0.000 A 
ATOM      9  C   UNL     1      36.110  -0.837  15.643  0.00  0.00    +0.000 A 
ATOM     10  N   UNL     1      36.886  -1.251  14.652  0.00  0.00    +0.000 NA
ENDROOT
BRANCH   1  14
ATOM     11  C   UNL     1      40.117  -1.948  10.800  0.00  0.00    +0.000 A 
ATOM     12  C   UNL     1      39.721  -2.749  11.849  0.00  0.00    +0.000 A 
ATOM     13  C   UNL     1      38.935  -2.279  12.902  0.00  0.00    +0.000 A 
ATOM     14  C   UNL     1      38.532  -0.961  12.906  0.00  0.00    +0.000 A 
ATOM     15  C   UNL     1      38.918  -0.154  11.871  0.00  0.00    +0.000 A 
ATOM     16  C   UNL     1      39.707  -0.632  10.817  0.00  0.00    +0.000 A 
BRANCH  11  18
ATOM     17  C   UNL     1      41.714  -3.701  10.123  0.00  0.00    +0.000 C 
ATOM     18  C   UNL     1      40.957  -2.468   9.681  0.00  0.00    +0.000 C 
ENDBRANCH  11  18
ENDBRANCH   1  14
BRANCH   3  19
ATOM     19  C   UNL     1      36.997   2.789  15.740  0.00  0.00    +0.000 C 
ATOM     20  O   UNL     1      36.108   3.544  15.277  0.00  0.00    +0.000 OA
ATOM     21  N   UNL     1      37.956   3.366  16.612  0.00  0.00    +0.000 NA
BRANCH  21  22
ATOM     22  C   UNL     1      37.953   4.768  16.985  0.00  0.00    +0.000 C 
BRANCH  22  23
ATOM     23  C   UNL     1      39.151   4.997  17.917  0.00  0.00    +0.000 C 
BRANCH  23  24
ATOM     24  C   UNL     1      38.977   6.227  18.712  0.00  0.00    +0.000 A 
ATOM     25  C   UNL     1      39.819   6.451  19.775  0.00  0.00    +0.000 A 
ATOM     26  C   UNL     1      39.665   7.616  20.539  0.00  0.00    +0.000 A 
ATOM     27  C   UNL     1      38.692   8.539  20.250  0.00  0.00    +0.000 A 
ATOM     28  C   UNL     1      37.853   8.316  19.189  0.00  0.00    +0.000 A 
ATOM     29  C   UNL     1      38.015   7.169  18.446  0.00  0.00    +0.000 A 
BRANCH  27  30
ATOM     30  O   UNL     1      38.531   9.692  20.997  0.00  0.00    +0.000 OA
ATOM     31  C   UNL     1      38.199  10.947  20.462  0.00  0.00    +0.000 C 
ENDBRANCH  27  30
ENDBRANCH  23  24
ENDBRANCH  22  23
ENDBRANCH  21  22
ENDBRANCH   3  19
TORSDOF 7
ENDMDL
MODEL 4
REMARK VINA RESULT:      -8.1      3.037      4.724
REMARK  Name = 
REMARK  7 active torsions:
REMARK  status: ('A' for Active; 'I' for Inactive)
REMARK    1  A    between atoms: C_2  and  C_3
REMARK    2  A    between atoms: C_6  and  C_7
REMARK    3  A    between atoms: C_9  and  C_10
REMARK    4  A    between atoms: N_12  and  C_13
REMARK    5  A    between atoms: C_13  and  C_14
REMARK    6  A    between atoms: C_14  and  C_15
REMARK    7  A    between atoms: C_18  and  O_19
REMARK                            x       y       z     vdW  Elec       q    Type
REMARK                         _______ _______ _______ _____ _____    ______ ____
ROOT
ATOM      1  C   UNL     1      38.171   4.258  16.770  0.00  0.00    +0.000 A 
ATOM      2  C   UNL     1      38.943   3.891  15.674  0.00  0.00    +0.000 A 
ATOM      3  C   UNL     1      38.603   2.754  14.982  0.00  0.00    +0.000 A 
ATOM      4  C   UNL     1      37.513   2.016  15.393  0.00  0.00    +0.000 A 
ATOM      5  C   UNL     1      37.107   0.859  14.748  0.00  0.00    +0.000 A 
ATOM      6  C   UNL     1      36.007   0.158  15.204  0.00  0.00    +0.000 A 
ATOM      7  C   UNL     1      35.284   0.578  16.298  0.00  0.00    +0.000 A 
ATOM      8  C   UNL     1      35.676   1.716  16.941  0.00  0.00    +0.000 A 
ATOM      9  C   UNL     1      36.763   2.414  16.495  0.00  0.00    +0.000 A 
ATOM     10  N   UNL     1      37.116   3.514  17.144  0.00  0.00    +0.000 NA
ENDROOT
BRANCH   1  14
ATOM     11  C   UNL     1      39.129   7.739  19.071  0.00  0.00    +0.000 A 
ATOM     12  C   UNL     1      38.485   7.835  17.856  0.00  0.00    +0.000 A 
ATOM     13  C   UNL     1      38.160   6.719  17.085  0.00  0.00    +0.000 A 
ATOM     14  C   UNL     1      38.490   5.462  17.544  0.00  0.00    +0.000 A 
ATOM     15  C   UNL     1      39.129   5.351  18.748  0.00  0.00    +0.000 A 
ATOM     16  C   UNL     1      39.453   6.475  19.518  0.00  0.00    +0.000 A 
BRANCH  11  18
ATOM     17  C   UNL     1      38.293   9.338  20.750  0.00  0.00    +0.000 C 
ATOM     18  C   UNL     1      39.468   8.943  19.884  0.00  0.00    +0.000 C 
ENDBRANCH  11  18
ENDBRANCH   1  14
BRANCH   3  19
ATOM     19  C   UNL     1      39.375   2.322  13.827  0.00  0.00    +0.000 C 
ATOM     20  O   UNL     1      39.073   2.801  12.707  0.00  0.00    +0.000 OA
ATOM     21  N   UNL     1      40.450   1.397  13.876  0.00  0.00    +0.000 NA
BRANCH  21  22
ATOM     22  C   UNL     1      41.202   0.986  12.705  0.00  0.00    +0.000 C 
BRANCH  22  23
ATOM     23  C   UNL     1      41.595  -0.483  12.904  0.00  0.00    +0.000 C 
BRANCH  23  24
ATOM     24  C   UNL     1      40.493  -1.249  13.516  0.00  0.00    +0.000 A 
ATOM     25  C   UNL     1      39.440  -1.639  12.724  0.00  0.00    +0.000 A 
ATOM     26  C   UNL     1      38.386  -2.369  13.292  0.00  0.00    +0.000 A 
ATOM     27  C   UNL     1      38.382  -2.702  14.623  0.00  0.00    +0.000 A 
ATOM     28  C   UNL     1      39.432  -2.313  15.412  0.00  0.00    +0.000 A 
ATOM     29  C   UNL     1      40.462  -1.599  14.843  0.00  0.00    +0.000 A 
BRANCH  27  30
ATOM     30  O   UNL     1      37.348  -3.421  15.193  0.00  0.00    +0.000 OA
ATOM     31  C   UNL     1      36.083  -3.595  14.609  0.00  0.00    +0.000 C 
ENDBRANCH  27  30
ENDBRANCH  23  24
ENDBRANCH  22  23
ENDBRANCH  21  22
ENDBRANCH   3  19
TORSDOF 7
ENDMDL
MODEL 5
REMARK VINA RESULT:      -8.1      3.820      9.634
REMARK  Name = 
REMARK  7 active torsions:
REMARK  status: ('A' for Active; 'I' for Inactive)
REMARK    1  A    between atoms: C_2  and  C_3
REMARK    2  A    between atoms: C_6  and  C_7
REMARK    3  A    between atoms: C_9  and  C_10
REMARK    4  A    between atoms: N_12  and  C_13
REMARK    5  A    between atoms: C_13  and  C_14
REMARK    6  A    between atoms: C_14  and  C_15
REMARK    7  A    between atoms: C_18  and  O_19
REMARK                            x       y       z     vdW  Elec       q    Type
REMARK                         _______ _______ _______ _____ _____    ______ ____
ROOT
ATOM      1  C   UNL     1      37.991  -1.751  14.719  0.00  0.00    +0.000 A 
ATOM      2  C   UNL     1      37.859  -0.371  14.621  0.00  0.00    +0.000 A 
ATOM      3  C   UNL     1      38.993   0.387  14.454  0.00  0.00    +0.000 A 
ATOM      4  C   UNL     1      40.219  -0.240  14.389  0.00  0.00    +0.000 A 
ATOM      5  C   UNL     1      41.406   0.454  14.221  0.00  0.00    +0.000 A 
ATOM      6  C   UNL     1      42.608  -0.227  14.164  0.00  0.00    +0.000 A 
ATOM      7  C   UNL     1      42.668  -1.599  14.267  0.00  0.00    +0.000 A 
ATOM      8  C   UNL     1      41.504  -2.292  14.432  0.00  0.00    +0.000 A 
ATOM      9  C   UNL     1      40.312  -1.625  14.491  0.00  0.00    +0.000 A 
ATOM     10  N   UNL     1      39.202  -2.329  14.652  0.00  0.00    +0.000 NA
ENDROOT
BRANCH   1  14
ATOM     11  C   UNL     1      34.581  -4.292  15.213  0.00  0.00    +0.000 A 
ATOM     12  C   UNL     1      34.597  -3.006  15.707  0.00  0.00    +0.000 A 
ATOM     13  C   UNL     1      35.693  -2.155  15.561  0.00  0.00    +0.000 A 
ATOM     14  C   UNL     1      36.813  -2.606  14.898  0.00  0.00    +0.000 A 
ATOM     15  C   UNL     1      36.812  -3.881  14.402  0.00  0.00    +0.000 A 
ATOM     16  C   UNL     1      35.709  -4.730  14.551  0.00  0.00    +0.000 A 
BRANCH  11  18
ATOM     17  C   UNL     1      33.788  -6.624  15.099  0.00  0.00    +0.000 C 
ATOM     18  C   UNL     1      33.399  -5.189  15.377  0.00  0.00    +0.000 C 
ENDBRANCH  11  18
ENDBRANCH   1  14
BRANCH   3  19
ATOM     19  C   UNL     1      38.915   1.836  14.346  0.00  0.00    +0.000 C 
ATOM     20  O   UNL     1      38.823   2.334  13.198  0.00  0.00    +0.000 OA
ATOM     21  N   UNL     1      38.933   2.729  15.448  0.00  0.00    +0.000 NA
BRANCH  21  22
ATOM     22  C   UNL     1      38.854   4.171  15.307  0.00  0.00    +0.000 C 
BRANCH  22  23
ATOM     23  C   UNL     1      38.275   4.728  16.614  0.00  0.00    +0.000 C 
BRANCH  23  24
ATOM     24  C   UNL     1      39.322   5.383  17.421  0.00  0.00    +0.000 A 
ATOM     25  C   UNL     1      39.119   5.530  18.773  0.00  0.00    +0.000 A 
ATOM     26  C   UNL     1      40.106   6.150  19.552  0.00  0.00    +0.000 A 
ATOM     27  C   UNL     1      41.271   6.615  18.995  0.00  0.00    +0.000 A 
ATOM     28  C   UNL     1      41.473   6.467  17.648  0.00  0.00    +0.000 A 
ATOM     29  C   UNL     1      40.497   5.856  16.894  0.00  0.00    +0.000 A 
BRANCH  27  30
ATOM     30  O   UNL     1      42.250   7.227  19.754  0.00  0.00    +0.000 OA
ATOM     31  C   UNL     1      43.074   6.562  20.677  0.00  0.00    +0.000 C 
ENDBRANCH  27  30
ENDBRANCH  23  24
ENDBRANCH  22  23
ENDBRANCH  21  22
ENDBRANCH   3  19
TORSDOF 7
ENDMDL
MODEL 6
REMARK VINA RESULT:      -8.0      3.719      8.693
REMARK  Name = 
REMARK  7 active torsions:
REMARK  status: ('A' for Active; 'I' for Inactive)
REMARK    1  A    between atoms: C_2  and  C_3
REMARK    2  A    between atoms: C_6  and  C_7
REMARK    3  A    between atoms: C_9  and  C_10
REMARK    4  A    between atoms: N_12  and  C_13
REMARK    5  A    between atoms: C_13  and  C_14
REMARK    6  A    between atoms: C_14  and  C_15
REMARK    7  A    between atoms: C_18  and  O_19
REMARK                            x       y       z     vdW  Elec       q    Type
REMARK                         _______ _______ _______ _____ _____    ______ ____
ROOT
ATOM      1  C   UNL     1      38.502  -1.035  14.570  0.00  0.00    +0.000 A 
ATOM      2  C   UNL     1      38.391   0.348  14.659  0.00  0.00    +0.000 A 
ATOM      3  C   UNL     1      37.328   0.879  15.350  0.00  0.00    +0.000 A 
ATOM      4  C   UNL     1      36.410   0.029  15.930  0.00  0.00    +0.000 A 
ATOM      5  C   UNL     1      35.313   0.487  16.642  0.00  0.00    +0.000 A 
ATOM      6  C   UNL     1      34.423  -0.410  17.202  0.00  0.00    +0.000 A 
ATOM      7  C   UNL     1      34.593  -1.772  17.076  0.00  0.00    +0.000 A 
ATOM      8  C   UNL     1      35.670  -2.233  16.376  0.00  0.00    +0.000 A 
ATOM      9  C   UNL     1      36.553  -1.350  15.820  0.00  0.00    +0.000 A 
ATOM     10  N   UNL     1      37.587  -1.833  15.147  0.00  0.00    +0.000 NA
ENDROOT
BRANCH   1  14
ATOM     11  C   UNL     1      41.717  -2.854  12.407  0.00  0.00    +0.000 A 
ATOM     12  C   UNL     1      41.924  -2.244  13.626  0.00  0.00    +0.000 A 
ATOM     13  C   UNL     1      40.897  -1.644  14.353  0.00  0.00    +0.000 A 
ATOM     14  C   UNL     1      39.616  -1.652  13.844  0.00  0.00    +0.000 A 
ATOM     15  C   UNL     1      39.395  -2.254  12.636  0.00  0.00    +0.000 A 
ATOM     16  C   UNL     1      40.431  -2.855  11.910  0.00  0.00    +0.000 A 
BRANCH  11  18
ATOM     17  C   UNL     1      44.063  -3.605  12.509  0.00  0.00    +0.000 C 
ATOM     18  C   UNL     1      42.828  -3.493  11.643  0.00  0.00    +0.000 C 
ENDBRANCH  11  18
ENDBRANCH   1  14
BRANCH   3  19
ATOM     19  C   UNL     1      37.162   2.318  15.476  0.00  0.00    +0.000 C 
ATOM     20  O   UNL     1      36.288   2.873  14.766  0.00  0.00    +0.000 OA
ATOM     21  N   UNL     1      37.918   3.144  16.348  0.00  0.00    +0.000 NA
BRANCH  21  22
ATOM     22  C   UNL     1      37.729   4.579  16.451  0.00  0.00    +0.000 C 
BRANCH  22  23
ATOM     23  C   UNL     1      39.051   5.246  16.047  0.00  0.00    +0.000 C 
BRANCH  23  24
ATOM     24  C   UNL     1      39.781   5.735  17.231  0.00  0.00    +0.000 A 
ATOM     25  C   UNL     1      39.122   5.797  18.436  0.00  0.00    +0.000 A 
ATOM     26  C   UNL     1      39.805   6.259  19.569  0.00  0.00    +0.000 A 
ATOM     27  C   UNL     1      41.118   6.651  19.504  0.00  0.00    +0.000 A 
ATOM     28  C   UNL     1      41.776   6.589  18.303  0.00  0.00    +0.000 A 
ATOM     29  C   UNL     1      41.095   6.132  17.197  0.00  0.00    +0.000 A 
BRANCH  27  30
ATOM     30  O   UNL     1      41.801   7.108  20.616  0.00  0.00    +0.000 OA
ATOM     31  C   UNL     1      43.058   6.635  21.028  0.00  0.00    +0.000 C 
ENDBRANCH  27  30
ENDBRANCH  23  24
ENDBRANCH  22  23
ENDBRANCH  21  22
ENDBRANCH   3  19
TORSDOF 7
ENDMDL
MODEL 7
REMARK VINA RESULT:      -8.0      3.353      9.334
REMARK  Name = 
REMARK  7 active torsions:
REMARK  status: ('A' for Active; 'I' for Inactive)
REMARK    1  A    between atoms: C_2  and  C_3
REMARK    2  A    between atoms: C_6  and  C_7
REMARK    3  A    between atoms: C_9  and  C_10
REMARK    4  A    between atoms: N_12  and  C_13
REMARK    5  A    between atoms: C_13  and  C_14
REMARK    6  A    between atoms: C_14  and  C_15
REMARK    7  A    between atoms: C_18  and  O_19
REMARK                            x       y       z     vdW  Elec       q    Type
REMARK                         _______ _______ _______ _____ _____    ______ ____
ROOT
ATOM      1  C   UNL     1      36.961  -0.850  15.527  0.00  0.00    +0.000 A 
ATOM      2  C   UNL     1      37.052   0.522  15.323  0.00  0.00    +0.000 A 
ATOM      3  C   UNL     1      38.256   1.049  14.925  0.00  0.00    +0.000 A 
ATOM      4  C   UNL     1      39.332   0.207  14.740  0.00  0.00    +0.000 A 
ATOM      5  C   UNL     1      40.578   0.661  14.339  0.00  0.00    +0.000 A 
ATOM      6  C   UNL     1      41.622  -0.228  14.170  0.00  0.00    +0.000 A 
ATOM      7  C   UNL     1      41.463  -1.580  14.389  0.00  0.00    +0.000 A 
ATOM      8  C   UNL     1      40.240  -2.038  14.784  0.00  0.00    +0.000 A 
ATOM      9  C   UNL     1      39.204  -1.162  14.953  0.00  0.00    +0.000 A 
ATOM     10  N   UNL     1      38.030  -1.641  15.338  0.00  0.00    +0.000 NA
ENDROOT
BRANCH   1  14
ATOM     11  C   UNL     1      33.266  -2.593  16.805  0.00  0.00    +0.000 A 
ATOM     12  C   UNL     1      34.081  -3.225  15.891  0.00  0.00    +0.000 A 
ATOM     13  C   UNL     1      35.290  -2.682  15.456  0.00  0.00    +0.000 A 
ATOM     14  C   UNL     1      35.699  -1.463  15.952  0.00  0.00    +0.000 A 
ATOM     15  C   UNL     1      34.900  -0.824  16.860  0.00  0.00    +0.000 A 
ATOM     16  C   UNL     1      33.687  -1.374  17.293  0.00  0.00    +0.000 A 
BRANCH  11  18
ATOM     17  C   UNL     1      30.984  -2.097  17.598  0.00  0.00    +0.000 C 
ATOM     18  C   UNL     1      31.976  -3.189  17.261  0.00  0.00    +0.000 C 
ENDBRANCH  11  18
ENDBRANCH   1  14
BRANCH   3  19
ATOM     19  C   UNL     1      38.409   2.478  14.697  0.00  0.00    +0.000 C 
ATOM     20  O   UNL     1      38.375   2.890  13.512  0.00  0.00    +0.000 OA
ATOM     21  N   UNL     1      38.592   3.443  15.721  0.00  0.00    +0.000 NA
BRANCH  21  22
ATOM     22  C   UNL     1      38.742   4.862  15.461  0.00  0.00    +0.000 C 
BRANCH  22  23
ATOM     23  C   UNL     1      39.967   5.346  16.247  0.00  0.00    +0.000 C 
BRANCH  23  24
ATOM     24  C   UNL     1      39.564   6.109  17.443  0.00  0.00    +0.000 A 
ATOM     25  C   UNL     1      40.298   5.966  18.597  0.00  0.00    +0.000 A 
ATOM     26  C   UNL     1      39.926   6.685  19.740  0.00  0.00    +0.000 A 
ATOM     27  C   UNL     1      38.845   7.530  19.736  0.00  0.00    +0.000 A 
ATOM     28  C   UNL     1      38.114   7.673  18.585  0.00  0.00    +0.000 A 
ATOM     29  C   UNL     1      38.489   6.962  17.468  0.00  0.00    +0.000 A 
BRANCH  27  30
ATOM     30  O   UNL     1      38.469   8.244  20.858  0.00  0.00    +0.000 OA
ATOM     31  C   UNL     1      38.685   9.620  21.035  0.00  0.00    +0.000 C 
ENDBRANCH  27  30
ENDBRANCH  23  24
ENDBRANCH  22  23
ENDBRANCH  21  22
ENDBRANCH   3  19
TORSDOF 7
ENDMDL
MODEL 8
REMARK VINA RESULT:      -8.0     23.414     27.335
REMARK  Name = 
REMARK  7 active torsions:
REMARK  status: ('A' for Active; 'I' for Inactive)
REMARK    1  A    between atoms: C_2  and  C_3
REMARK    2  A    between atoms: C_6  and  C_7
REMARK    3  A    between atoms: C_9  and  C_10
REMARK    4  A    between atoms: N_12  and  C_13
REMARK    5  A    between atoms: C_13  and  C_14
REMARK    6  A    between atoms: C_14  and  C_15
REMARK    7  A    between atoms: C_18  and  O_19
REMARK                            x       y       z     vdW  Elec       q    Type
REMARK                         _______ _______ _______ _____ _____    ______ ____
ROOT
ATOM      1  C   UNL     1      11.235  -0.885  25.835  0.00  0.00    +0.000 A 
ATOM      2  C   UNL     1      12.475  -0.950  26.461  0.00  0.00    +0.000 A 
ATOM      3  C   UNL     1      12.999   0.200  27.002  0.00  0.00    +0.000 A 
ATOM      4  C   UNL     1      12.285   1.375  26.907  0.00  0.00    +0.000 A 
ATOM      5  C   UNL     1      12.745   2.574  27.427  0.00  0.00    +0.000 A 
ATOM      6  C   UNL     1      11.987   3.723  27.303  0.00  0.00    +0.000 A 
ATOM      7  C   UNL     1      10.763   3.717  26.670  0.00  0.00    +0.000 A 
ATOM      8  C   UNL     1      10.301   2.541  26.154  0.00  0.00    +0.000 A 
ATOM      9  C   UNL     1      11.046   1.402  26.273  0.00  0.00    +0.000 A 
ATOM     10  N   UNL     1      10.567   0.278  25.761  0.00  0.00    +0.000 NA
ENDROOT
BRANCH   1  14
ATOM     11  C   UNL     1       9.516  -4.382  24.062  0.00  0.00    +0.000 A 
ATOM     12  C   UNL     1       8.938  -3.771  25.154  0.00  0.00    +0.000 A 
ATOM     13  C   UNL     1       9.475  -2.631  25.753  0.00  0.00    +0.000 A 
ATOM     14  C   UNL     1      10.631  -2.082  25.242  0.00  0.00    +0.000 A 
ATOM     15  C   UNL     1      11.216  -2.677  24.159  0.00  0.00    +0.000 A 
ATOM     16  C   UNL     1      10.672  -3.822  23.562  0.00  0.00    +0.000 A 
BRANCH  11  18
ATOM     17  C   UNL     1       9.891  -6.761  23.538  0.00  0.00    +0.000 C 
ATOM     18  C   UNL     1       8.927  -5.600  23.433  0.00  0.00    +0.000 C 
ENDBRANCH  11  18
ENDBRANCH   1  14
BRANCH   3  19
ATOM     19  C   UNL     1      14.292   0.190  27.668  0.00  0.00    +0.000 C 
ATOM     20  O   UNL     1      14.306   0.130  28.922  0.00  0.00    +0.000 OA
ATOM     21  N   UNL     1      15.543   0.242  27.001  0.00  0.00    +0.000 NA
BRANCH  21  22
ATOM     22  C   UNL     1      16.818   0.232  27.696  0.00  0.00    +0.000 C 
BRANCH  22  23
ATOM     23  C   UNL     1      17.777   1.135  26.909  0.00  0.00    +0.000 C 
BRANCH  23  24
ATOM     24  C   UNL     1      18.430   0.390  25.816  0.00  0.00    +0.000 A 
ATOM     25  C   UNL     1      19.023   1.097  24.797  0.00  0.00    +0.000 A 
ATOM     26  C   UNL     1      19.649   0.402  23.753  0.00  0.00    +0.000 A 
ATOM     27  C   UNL     1      19.683  -0.969  23.724  0.00  0.00    +0.000 A 
ATOM     28  C   UNL     1      19.092  -1.674  24.740  0.00  0.00    +0.000 A 
ATOM     29  C   UNL     1      18.482  -0.980  25.761  0.00  0.00    +0.000 A 
BRANCH  27  30
ATOM     30  O   UNL     1      20.297  -1.665  22.699  0.00  0.00    +0.000 OA
ATOM     31  C   UNL     1      20.980  -1.065  21.629  0.00  0.00    +0.000 C 
ENDBRANCH  27  30
ENDBRANCH  23  24
ENDBRANCH  22  23
ENDBRANCH  21  22
ENDBRANCH   3  19
TORSDOF 7
ENDMDL
MODEL 9
REMARK VINA RESULT:      -8.0      2.187      2.793
REMARK  Name = 
REMARK  7 active torsions:
REMARK  status: ('A' for Active; 'I' for Inactive)
REMARK    1  A    between atoms: C_2  and  C_3
REMARK    2  A    between atoms: C_6  and  C_7
REMARK    3  A    between atoms: C_9  and  C_10
REMARK    4  A    between atoms: N_12  and  C_13
REMARK    5  A    between atoms: C_13  and  C_14
REMARK    6  A    between atoms: C_14  and  C_15
REMARK    7  A    between atoms: C_18  and  O_19
REMARK                            x       y       z     vdW  Elec       q    Type
REMARK                         _______ _______ _______ _____ _____    ______ ____
ROOT
ATOM      1  C   UNL     1      38.749   5.527  16.716  0.00  0.00    +0.000 A 
ATOM      2  C   UNL     1      38.523   4.188  16.419  0.00  0.00    +0.000 A 
ATOM      3  C   UNL     1      37.570   3.875  15.480  0.00  0.00    +0.000 A 
ATOM      4  C   UNL     1      36.872   4.892  14.864  0.00  0.00    +0.000 A 
ATOM      5  C   UNL     1      35.898   4.657  13.907  0.00  0.00    +0.000 A 
ATOM      6  C   UNL     1      35.229   5.715  13.322  0.00  0.00    +0.000 A 
ATOM      7  C   UNL     1      35.503   7.022  13.662  0.00  0.00    +0.000 A 
ATOM      8  C   UNL     1      36.461   7.264  14.604  0.00  0.00    +0.000 A 
ATOM      9  C   UNL     1      37.126   6.221  15.186  0.00  0.00    +0.000 A 
ATOM     10  N   UNL     1      38.050   6.492  16.097  0.00  0.00    +0.000 NA
ENDROOT
BRANCH   1  14
ATOM     11  C   UNL     1      41.722   6.670  19.576  0.00  0.00    +0.000 A 
ATOM     12  C   UNL     1      40.448   6.318  19.966  0.00  0.00    +0.000 A 
ATOM     13  C   UNL     1      39.458   5.941  19.057  0.00  0.00    +0.000 A 
ATOM     14  C   UNL     1      39.754   5.915  17.711  0.00  0.00    +0.000 A 
ATOM     15  C   UNL     1      41.015   6.261  17.310  0.00  0.00    +0.000 A 
ATOM     16  C   UNL     1      42.004   6.639  18.227  0.00  0.00    +0.000 A 
BRANCH  11  18
ATOM     17  C   UNL     1      43.225   5.866  21.358  0.00  0.00    +0.000 C 
ATOM     18  C   UNL     1      42.769   7.069  20.562  0.00  0.00    +0.000 C 
ENDBRANCH  11  18
ENDBRANCH   1  14
BRANCH   3  19
ATOM     19  C   UNL     1      37.292   2.491  15.130  0.00  0.00    +0.000 C 
ATOM     20  O   UNL     1      37.455   2.143  13.935  0.00  0.00    +0.000 OA
ATOM     21  N   UNL     1      36.849   1.501  16.045  0.00  0.00    +0.000 NA
BRANCH  21  22
ATOM     22  C   UNL     1      36.579   0.127  15.665  0.00  0.00    +0.000 C 
BRANCH  22  23
ATOM     23  C   UNL     1      37.413  -0.776  16.583  0.00  0.00    +0.000 C 
BRANCH  23  24
ATOM     24  C   UNL     1      38.585  -1.318  15.872  0.00  0.00    +0.000 A 
ATOM     25  C   UNL     1      39.078  -2.545  16.248  0.00  0.00    +0.000 A 
ATOM     26  C   UNL     1      40.191  -3.073  15.580  0.00  0.00    +0.000 A 
ATOM     27  C   UNL     1      40.802  -2.392  14.558  0.00  0.00    +0.000 A 
ATOM     28  C   UNL     1      40.311  -1.169  14.182  0.00  0.00    +0.000 A 
ATOM     29  C   UNL     1      39.216  -0.662  14.845  0.00  0.00    +0.000 A 
BRANCH  27  30
ATOM     30  O   UNL     1      41.900  -2.903  13.892  0.00  0.00    +0.000 OA
ATOM     31  C   UNL     1      42.053  -2.910  12.496  0.00  0.00    +0.000 C 
ENDBRANCH  27  30
ENDBRANCH  23  24
ENDBRANCH  22  23
ENDBRANCH  21  22
ENDBRANCH   3  19
TORSDOF 7
ENDMDL
MODEL 10
REMARK VINA RESULT:      -7.9      4.775      6.623
REMARK  Name = 
REMARK  7 active torsions:
REMARK  status: ('A' for Active; 'I' for Inactive)
REMARK    1  A    between atoms: C_2  and  C_3
REMARK    2  A    between atoms: C_6  and  C_7
REMARK    3  A    between atoms: C_9  and  C_10
REMARK    4  A    between atoms: N_12  and  C_13
REMARK    5  A    between atoms: C_13  and  C_14
REMARK    6  A    between atoms: C_14  and  C_15
REMARK    7  A    between atoms: C_18  and  O_19
REMARK                            x       y       z     vdW  Elec       q    Type
REMARK                         _______ _______ _______ _____ _____    ______ ____
ROOT
ATOM      1  C   UNL     1      35.944   3.742  14.035  0.00  0.00    +0.000 A 
ATOM      2  C   UNL     1      37.053   3.074  13.528  0.00  0.00    +0.000 A 
ATOM      3  C   UNL     1      37.409   1.872  14.090  0.00  0.00    +0.000 A 
ATOM      4  C   UNL     1      36.661   1.368  15.133  0.00  0.00    +0.000 A 
ATOM      5  C   UNL     1      36.956   0.163  15.751  0.00  0.00    +0.000 A 
ATOM      6  C   UNL     1      36.172  -0.294  16.793  0.00  0.00    +0.000 A 
ATOM      7  C   UNL     1      35.084   0.419  17.247  0.00  0.00    +0.000 A 
ATOM      8  C   UNL     1      34.785   1.607  16.645  0.00  0.00    +0.000 A 
ATOM      9  C   UNL     1      35.557   2.065  15.614  0.00  0.00    +0.000 A 
ATOM     10  N   UNL     1      35.239   3.222  15.053  0.00  0.00    +0.000 NA
ENDROOT
BRANCH   1  14
ATOM     11  C   UNL     1      34.748   7.489  12.344  0.00  0.00    +0.000 A 
ATOM     12  C   UNL     1      34.205   7.026  13.523  0.00  0.00    +0.000 A 
ATOM     13  C   UNL     1      34.575   5.810  14.098  0.00  0.00    +0.000 A 
ATOM     14  C   UNL     1      35.522   5.028  13.472  0.00  0.00    +0.000 A 
ATOM     15  C   UNL     1      36.070   5.475  12.301  0.00  0.00    +0.000 A 
ATOM     16  C   UNL     1      35.694   6.697  11.729  0.00  0.00    +0.000 A 
BRANCH  11  18
ATOM     17  C   UNL     1      34.531   9.912  12.745  0.00  0.00    +0.000 C 
ATOM     18  C   UNL     1      34.341   8.793  11.744  0.00  0.00    +0.000 C 
ENDBRANCH  11  18
ENDBRANCH   1  14
BRANCH   3  19
ATOM     19  C   UNL     1      38.560   1.129  13.600  0.00  0.00    +0.000 C 
ATOM     20  O   UNL     1      39.677   1.364  14.123  0.00  0.00    +0.000 OA
ATOM     21  N   UNL     1      38.511   0.154  12.570  0.00  0.00    +0.000 NA
BRANCH  21  22
ATOM     22  C   UNL     1      39.678  -0.571  12.103  0.00  0.00    +0.000 C 
BRANCH  22  23
ATOM     23  C   UNL     1      39.345  -2.067  12.165  0.00  0.00    +0.000 C 
BRANCH  23  24
ATOM     24  C   UNL     1      39.034  -2.485  13.545  0.00  0.00    +0.000 A 
ATOM     25  C   UNL     1      37.824  -3.088  13.796  0.00  0.00    +0.000 A 
ATOM     26  C   UNL     1      37.516  -3.490  15.103  0.00  0.00    +0.000 A 
ATOM     27  C   UNL     1      38.395  -3.295  16.139  0.00  0.00    +0.000 A 
ATOM     28  C   UNL     1      39.601  -2.695  15.888  0.00  0.00    +0.000 A 
ATOM     29  C   UNL     1      39.893  -2.305  14.600  0.00  0.00    +0.000 A 
BRANCH  27  30
ATOM     30  O   UNL     1      38.101  -3.689  17.431  0.00  0.00    +0.000 OA
ATOM     31  C   UNL     1      38.408  -2.941  18.579  0.00  0.00    +0.000 C 
ENDBRANCH  27  30
ENDBRANCH  23  24
ENDBRANCH  22  23
ENDBRANCH  21  22
ENDBRANCH   3  19
TORSDOF 7
ENDMDL
