MODEL 1
REMARK VINA RESULT:      -7.3      0.000      0.000
REMARK  Name = 
REMARK  7 active torsions:
REMARK  status: ('A' for Active; 'I' for Inactive)
REMARK    1  A    between atoms: O_2  and  C_3
REMARK    2  A    between atoms: C_6  and  C_7
REMARK    3  A    between atoms: C_7  and  C_8
REMARK    4  A    between atoms: C_8  and  C_9
REMARK    5  A    between atoms: N_11  and  C_12
REMARK    6  A    between atoms: N_17  and  C_18
REMARK    7  A    between atoms: C_18  and  C_19
REMARK                            x       y       z     vdW  Elec       q    Type
REMARK                         _______ _______ _______ _____ _____    ______ ____
ROOT
ATOM      1  C   UNL     1      37.814  -2.090  17.695  0.00  0.00    +0.000 A 
ATOM      2  C   UNL     1      38.044  -2.606  18.973  0.00  0.00    +0.000 A 
ATOM      3  C   UNL     1      38.701  -3.788  18.802  0.00  0.00    +0.000 A 
ATOM      4  C   UNL     1      39.188  -4.754  19.852  0.00  0.00    +0.000 C 
ATOM      5  N   UNL     1      38.844  -3.948  17.492  0.00  0.00    +0.000 NA
ATOM      6  N   UNL     1      38.316  -2.935  16.806  0.00  0.00    +0.000 N 
ENDROOT
BRANCH   1   9
ATOM      7  C   UNL     1      35.731  -0.845  17.184  0.00  0.00    +0.000 C 
ATOM      8  O   UNL     1      35.171  -1.969  17.117  0.00  0.00    +0.000 OA
ATOM      9  N   UNL     1      37.119  -0.868  17.485  0.00  0.00    +0.000 NA
BRANCH   7  10
ATOM     10  C   UNL     1      35.000   0.425  16.963  0.00  0.00    +0.000 C 
BRANCH  10  11
ATOM     11  C   UNL     1      35.797   1.605  17.326  0.00  0.00    +0.000 C 
BRANCH  11  15
ATOM     12  C   UNL     1      36.268   4.654  14.415  0.00  0.00    +0.000 A 
ATOM     13  C   UNL     1      35.051   4.023  14.576  0.00  0.00    +0.000 A 
ATOM     14  C   UNL     1      34.843   3.032  15.509  0.00  0.00    +0.000 A 
ATOM     15  C   UNL     1      35.926   2.668  16.316  0.00  0.00    +0.000 A 
ATOM     16  C   UNL     1      37.128   3.306  16.143  0.00  0.00    +0.000 A 
ATOM     17  C   UNL     1      37.331   4.294  15.210  0.00  0.00    +0.000 A 
BRANCH  12  19
ATOM     18  C   UNL     1      36.195   5.438  12.095  0.00  0.00    +0.000 C 
ATOM     19  O   UNL     1      36.452   5.655  13.461  0.00  0.00    +0.000 OA
ENDBRANCH  12  19
ENDBRANCH  11  15
ENDBRANCH  10  11
ENDBRANCH   7  10
ENDBRANCH   1   9
BRANCH   6  20
ATOM     20  C   UNL     1      38.350  -2.829  15.374  0.00  0.00    +0.000 C 
BRANCH  20  21
ATOM     21  C   UNL     1      39.095  -1.688  14.826  0.00  0.00    +0.000 A 
ATOM     22  C   UNL     1      40.493  -1.638  14.974  0.00  0.00    +0.000 A 
ATOM     23  C   UNL     1      41.245  -0.597  14.505  0.00  0.00    +0.000 A 
ATOM     24  C   UNL     1      40.646   0.461  13.859  0.00  0.00    +0.000 A 
ATOM     25  C   UNL     1      39.291   0.448  13.695  0.00  0.00    +0.000 A 
ATOM     26  C   UNL     1      38.731   1.519  13.034  0.00  0.00    +0.000 A 
ATOM     27  C   UNL     1      37.376   1.555  12.832  0.00  0.00    +0.000 A 
ATOM     28  C   UNL     1      36.607   0.495  13.307  0.00  0.00    +0.000 A 
ATOM     29  C   UNL     1      37.190  -0.560  13.963  0.00  0.00    +0.000 A 
ATOM     30  C   UNL     1      38.534  -0.625  14.181  0.00  0.00    +0.000 A 
ENDBRANCH  20  21
ENDBRANCH   6  20
TORSDOF 7
ENDMDL
MODEL 2
REMARK VINA RESULT:      -7.1      3.118      5.731
REMARK  Name = 
REMARK  7 active torsions:
REMARK  status: ('A' for Active; 'I' for Inactive)
REMARK    1  A    between atoms: O_2  and  C_3
REMARK    2  A    between atoms: C_6  and  C_7
REMARK    3  A    between atoms: C_7  and  C_8
REMARK    4  A    between atoms: C_8  and  C_9
REMARK    5  A    between atoms: N_11  and  C_12
REMARK    6  A    between atoms: N_17  and  C_18
REMARK    7  A    between atoms: C_18  and  C_19
REMARK                            x       y       z     vdW  Elec       q    Type
REMARK                         _______ _______ _______ _____ _____    ______ ____
ROOT
ATOM      1  C   UNL     1      39.266   0.604  14.595  0.00  0.00    +0.000 A 
ATOM      2  C   UNL     1      40.578   0.392  14.163  0.00  0.00    +0.000 A 
ATOM      3  C   UNL     1      40.627  -0.880  13.677  0.00  0.00    +0.000 A 
ATOM      4  C   UNL     1      41.802  -1.616  13.088  0.00  0.00    +0.000 C 
ATOM      5  N   UNL     1      39.405  -1.380  13.820  0.00  0.00    +0.000 NA
ATOM      6  N   UNL     1      38.569  -0.502  14.372  0.00  0.00    +0.000 N 
ENDROOT
BRANCH   1   9
ATOM      7  C   UNL     1      38.140   2.809  14.454  0.00  0.00    +0.000 C 
ATOM      8  O   UNL     1      37.909   2.524  13.251  0.00  0.00    +0.000 OA
ATOM      9  N   UNL     1      38.851   1.825  15.192  0.00  0.00    +0.000 NA
BRANCH   7  10
ATOM     10  C   UNL     1      37.704   4.084  15.070  0.00  0.00    +0.000 C 
BRANCH  10  11
ATOM     11  C   UNL     1      37.814   4.070  16.535  0.00  0.00    +0.000 C 
BRANCH  11  15
ATOM     12  C   UNL     1      40.803   6.456  18.369  0.00  0.00    +0.000 A 
ATOM     13  C   UNL     1      40.773   6.305  16.997  0.00  0.00    +0.000 A 
ATOM     14  C   UNL     1      39.822   5.547  16.351  0.00  0.00    +0.000 A 
ATOM     15  C   UNL     1      38.856   4.915  17.141  0.00  0.00    +0.000 A 
ATOM     16  C   UNL     1      38.900   5.077  18.503  0.00  0.00    +0.000 A 
ATOM     17  C   UNL     1      39.852   5.833  19.143  0.00  0.00    +0.000 A 
BRANCH  12  19
ATOM     18  C   UNL     1      42.095   7.067  20.359  0.00  0.00    +0.000 C 
ATOM     19  O   UNL     1      41.780   7.229  18.998  0.00  0.00    +0.000 OA
ENDBRANCH  12  19
ENDBRANCH  11  15
ENDBRANCH  10  11
ENDBRANCH   7  10
ENDBRANCH   1   9
BRANCH   6  20
ATOM     20  C   UNL     1      37.178  -0.762  14.618  0.00  0.00    +0.000 C 
BRANCH  20  21
ATOM     21  C   UNL     1      36.703  -0.510  15.985  0.00  0.00    +0.000 A 
ATOM     22  C   UNL     1      35.744   0.493  16.211  0.00  0.00    +0.000 A 
ATOM     23  C   UNL     1      35.272   0.791  17.460  0.00  0.00    +0.000 A 
ATOM     24  C   UNL     1      35.732   0.106  18.561  0.00  0.00    +0.000 A 
ATOM     25  C   UNL     1      36.664  -0.877  18.382  0.00  0.00    +0.000 A 
ATOM     26  C   UNL     1      37.091  -1.546  19.507  0.00  0.00    +0.000 A 
ATOM     27  C   UNL     1      38.017  -2.548  19.386  0.00  0.00    +0.000 A 
ATOM     28  C   UNL     1      38.498  -2.856  18.116  0.00  0.00    +0.000 A 
ATOM     29  C   UNL     1      38.056  -2.173  17.011  0.00  0.00    +0.000 A 
ATOM     30  C   UNL     1      37.137  -1.171  17.097  0.00  0.00    +0.000 A 
ENDBRANCH  20  21
ENDBRANCH   6  20
TORSDOF 7
ENDMDL
MODEL 3
REMARK VINA RESULT:      -7.1      2.803      5.014
REMARK  Name = 
REMARK  7 active torsions:
REMARK  status: ('A' for Active; 'I' for Inactive)
REMARK    1  A    between atoms: O_2  and  C_3
REMARK    2  A    between atoms: C_6  and  C_7
REMARK    3  A    between atoms: C_7  and  C_8
REMARK    4  A    between atoms: C_8  and  C_9
REMARK    5  A    between atoms: N_11  and  C_12
REMARK    6  A    between atoms: N_17  and  C_18
REMARK    7  A    between atoms: C_18  and  C_19
REMARK                            x       y       z     vdW  Elec       q    Type
REMARK                         _______ _______ _______ _____ _____    ______ ____
ROOT
ATOM      1  C   UNL     1      40.217  -0.178  14.618  0.00  0.00    +0.000 A 
ATOM      2  C   UNL     1      41.564  -0.191  14.249  0.00  0.00    +0.000 A 
ATOM      3  C   UNL     1      41.917  -1.500  14.113  0.00  0.00    +0.000 A 
ATOM      4  C   UNL     1      43.256  -2.077  13.729  0.00  0.00    +0.000 C 
ATOM      5  N   UNL     1      40.830  -2.210  14.389  0.00  0.00    +0.000 NA
ATOM      6  N   UNL     1      39.793  -1.432  14.696  0.00  0.00    +0.000 N 
ENDROOT
BRANCH   1   9
ATOM      7  C   UNL     1      38.895   1.768  13.833  0.00  0.00    +0.000 C 
ATOM      8  O   UNL     1      39.017   1.283  12.679  0.00  0.00    +0.000 OA
ATOM      9  N   UNL     1      39.512   1.029  14.877  0.00  0.00    +0.000 NA
BRANCH   7  10
ATOM     10  C   UNL     1      38.159   3.026  14.096  0.00  0.00    +0.000 C 
BRANCH  10  11
ATOM     11  C   UNL     1      37.802   3.187  15.512  0.00  0.00    +0.000 C 
BRANCH  11  15
ATOM     12  C   UNL     1      40.049   6.052  17.687  0.00  0.00    +0.000 A 
ATOM     13  C   UNL     1      39.111   5.268  18.327  0.00  0.00    +0.000 A 
ATOM     14  C   UNL     1      38.359   4.319  17.669  0.00  0.00    +0.000 A 
ATOM     15  C   UNL     1      38.575   4.164  16.296  0.00  0.00    +0.000 A 
ATOM     16  C   UNL     1      39.512   4.951  15.677  0.00  0.00    +0.000 A 
ATOM     17  C   UNL     1      40.259   5.897  16.336  0.00  0.00    +0.000 A 
BRANCH  12  19
ATOM     18  C   UNL     1      41.717   6.649  19.378  0.00  0.00    +0.000 C 
ATOM     19  O   UNL     1      40.796   7.007  18.378  0.00  0.00    +0.000 OA
ENDBRANCH  12  19
ENDBRANCH  11  15
ENDBRANCH  10  11
ENDBRANCH   7  10
ENDBRANCH   1   9
BRANCH   6  20
ATOM     20  C   UNL     1      38.482  -1.928  15.010  0.00  0.00    +0.000 C 
BRANCH  20  21
ATOM     21  C   UNL     1      38.022  -1.716  16.389  0.00  0.00    +0.000 A 
ATOM     22  C   UNL     1      38.649  -2.407  17.442  0.00  0.00    +0.000 A 
ATOM     23  C   UNL     1      38.259  -2.271  18.745  0.00  0.00    +0.000 A 
ATOM     24  C   UNL     1      37.216  -1.437  19.078  0.00  0.00    +0.000 A 
ATOM     25  C   UNL     1      36.583  -0.748  18.084  0.00  0.00    +0.000 A 
ATOM     26  C   UNL     1      35.551   0.084  18.459  0.00  0.00    +0.000 A 
ATOM     27  C   UNL     1      34.886   0.808  17.504  0.00  0.00    +0.000 A 
ATOM     28  C   UNL     1      35.282   0.673  16.175  0.00  0.00    +0.000 A 
ATOM     29  C   UNL     1      36.313  -0.163  15.828  0.00  0.00    +0.000 A 
ATOM     30  C   UNL     1      36.994  -0.897  16.753  0.00  0.00    +0.000 A 
ENDBRANCH  20  21
ENDBRANCH   6  20
TORSDOF 7
ENDMDL
MODEL 4
REMARK VINA RESULT:      -6.8      3.616      6.143
REMARK  Name = 
REMARK  7 active torsions:
REMARK  status: ('A' for Active; 'I' for Inactive)
REMARK    1  A    between atoms: O_2  and  C_3
REMARK    2  A    between atoms: C_6  and  C_7
REMARK    3  A    between atoms: C_7  and  C_8
REMARK    4  A    between atoms: C_8  and  C_9
REMARK    5  A    between atoms: N_11  and  C_12
REMARK    6  A    between atoms: N_17  and  C_18
REMARK    7  A    between atoms: C_18  and  C_19
REMARK                            x       y       z     vdW  Elec       q    Type
REMARK                         _______ _______ _______ _____ _____    ______ ____
ROOT
ATOM      1  C   UNL     1      38.229   1.407  14.577  0.00  0.00    +0.000 A 
ATOM      2  C   UNL     1      39.203   1.451  13.577  0.00  0.00    +0.000 A 
ATOM      3  C   UNL     1      38.917   0.440  12.710  0.00  0.00    +0.000 A 
ATOM      4  C   UNL     1      39.650   0.042  11.455  0.00  0.00    +0.000 C 
ATOM      5  N   UNL     1      37.832  -0.161  13.183  0.00  0.00    +0.000 NA
ATOM      6  N   UNL     1      37.400   0.407  14.309  0.00  0.00    +0.000 N 
ENDROOT
BRANCH   1   9
ATOM      7  C   UNL     1      37.470   3.507  15.655  0.00  0.00    +0.000 C 
ATOM      8  O   UNL     1      36.808   3.712  14.606  0.00  0.00    +0.000 OA
ATOM      9  N   UNL     1      38.228   2.306  15.677  0.00  0.00    +0.000 NA
BRANCH   7  10
ATOM     10  C   UNL     1      37.464   4.449  16.799  0.00  0.00    +0.000 C 
BRANCH  10  11
ATOM     11  C   UNL     1      38.819   4.799  17.248  0.00  0.00    +0.000 C 
BRANCH  11  15
ATOM     12  C   UNL     1      39.081   7.951  20.073  0.00  0.00    +0.000 A 
ATOM     13  C   UNL     1      39.974   6.900  20.114  0.00  0.00    +0.000 A 
ATOM     14  C   UNL     1      39.937   5.855  19.218  0.00  0.00    +0.000 A 
ATOM     15  C   UNL     1      38.943   5.885  18.234  0.00  0.00    +0.000 A 
ATOM     16  C   UNL     1      38.064   6.938  18.208  0.00  0.00    +0.000 A 
ATOM     17  C   UNL     1      38.105   7.978  19.104  0.00  0.00    +0.000 A 
BRANCH  12  19
ATOM     18  C   UNL     1      38.377  10.168  20.842  0.00  0.00    +0.000 C 
ATOM     19  O   UNL     1      39.141   8.998  20.995  0.00  0.00    +0.000 OA
ENDBRANCH  12  19
ENDBRANCH  11  15
ENDBRANCH  10  11
ENDBRANCH   7  10
ENDBRANCH   1   9
BRANCH   6  20
ATOM     20  C   UNL     1      36.230  -0.018  15.025  0.00  0.00    +0.000 C 
BRANCH  20  21
ATOM     21  C   UNL     1      36.413  -0.302  16.455  0.00  0.00    +0.000 A 
ATOM     22  C   UNL     1      35.750   0.493  17.409  0.00  0.00    +0.000 A 
ATOM     23  C   UNL     1      35.890   0.296  18.754  0.00  0.00    +0.000 A 
ATOM     24  C   UNL     1      36.702  -0.708  19.232  0.00  0.00    +0.000 A 
ATOM     25  C   UNL     1      37.361  -1.502  18.337  0.00  0.00    +0.000 A 
ATOM     26  C   UNL     1      38.154  -2.501  18.855  0.00  0.00    +0.000 A 
ATOM     27  C   UNL     1      38.832  -3.335  18.003  0.00  0.00    +0.000 A 
ATOM     28  C   UNL     1      38.690  -3.138  16.631  0.00  0.00    +0.000 A 
ATOM     29  C   UNL     1      37.893  -2.134  16.142  0.00  0.00    +0.000 A 
ATOM     30  C   UNL     1      37.207  -1.288  16.962  0.00  0.00    +0.000 A 
ENDBRANCH  20  21
ENDBRANCH   6  20
TORSDOF 7
ENDMDL
MODEL 5
REMARK VINA RESULT:      -6.8      3.094      5.319
REMARK  Name = 
REMARK  7 active torsions:
REMARK  status: ('A' for Active; 'I' for Inactive)
REMARK    1  A    between atoms: O_2  and  C_3
REMARK    2  A    between atoms: C_6  and  C_7
REMARK    3  A    between atoms: C_7  and  C_8
REMARK    4  A    between atoms: C_8  and  C_9
REMARK    5  A    between atoms: N_11  and  C_12
REMARK    6  A    between atoms: N_17  and  C_18
REMARK    7  A    between atoms: C_18  and  C_19
REMARK                            x       y       z     vdW  Elec       q    Type
REMARK                         _______ _______ _______ _____ _____    ______ ____
ROOT
ATOM      1  C   UNL     1      39.737   0.192  14.327  0.00  0.00    +0.000 A 
ATOM      2  C   UNL     1      41.108  -0.020  14.491  0.00  0.00    +0.000 A 
ATOM      3  C   UNL     1      41.375  -1.253  13.976  0.00  0.00    +0.000 A 
ATOM      4  C   UNL     1      42.697  -1.973  13.897  0.00  0.00    +0.000 C 
ATOM      5  N   UNL     1      40.217  -1.731  13.537  0.00  0.00    +0.000 NA
ATOM      6  N   UNL     1      39.216  -0.876  13.739  0.00  0.00    +0.000 N 
ENDROOT
BRANCH   1   9
ATOM      7  C   UNL     1      38.748   2.423  13.884  0.00  0.00    +0.000 C 
ATOM      8  O   UNL     1      39.052   2.228  12.679  0.00  0.00    +0.000 OA
ATOM      9  N   UNL     1      39.093   1.376  14.779  0.00  0.00    +0.000 NA
BRANCH   7  10
ATOM     10  C   UNL     1      38.076   3.659  14.348  0.00  0.00    +0.000 C 
BRANCH  10  11
ATOM     11  C   UNL     1      37.889   3.687  15.805  0.00  0.00    +0.000 C 
BRANCH  11  15
ATOM     12  C   UNL     1      40.371   6.230  18.121  0.00  0.00    +0.000 A 
ATOM     13  C   UNL     1      40.567   6.112  16.760  0.00  0.00    +0.000 A 
ATOM     14  C   UNL     1      39.787   5.305  15.961  0.00  0.00    +0.000 A 
ATOM     15  C   UNL     1      38.759   4.587  16.580  0.00  0.00    +0.000 A 
ATOM     16  C   UNL     1      38.577   4.717  17.934  0.00  0.00    +0.000 A 
ATOM     17  C   UNL     1      39.359   5.522  18.726  0.00  0.00    +0.000 A 
BRANCH  12  19
ATOM     18  C   UNL     1      40.882   7.316  20.257  0.00  0.00    +0.000 C 
ATOM     19  O   UNL     1      41.177   7.054  18.907  0.00  0.00    +0.000 OA
ENDBRANCH  12  19
ENDBRANCH  11  15
ENDBRANCH  10  11
ENDBRANCH   7  10
ENDBRANCH   1   9
BRANCH   6  20
ATOM     20  C   UNL     1      37.859  -1.118  13.337  0.00  0.00    +0.000 C 
BRANCH  20  21
ATOM     21  C   UNL     1      37.073  -2.002  14.209  0.00  0.00    +0.000 A 
ATOM     22  C   UNL     1      37.142  -3.394  14.026  0.00  0.00    +0.000 A 
ATOM     23  C   UNL     1      36.424  -4.273  14.788  0.00  0.00    +0.000 A 
ATOM     24  C   UNL     1      35.589  -3.814  15.781  0.00  0.00    +0.000 A 
ATOM     25  C   UNL     1      35.495  -2.467  15.990  0.00  0.00    +0.000 A 
ATOM     26  C   UNL     1      34.657  -2.048  17.000  0.00  0.00    +0.000 A 
ATOM     27  C   UNL     1      34.532  -0.709  17.262  0.00  0.00    +0.000 A 
ATOM     28  C   UNL     1      35.264   0.188  16.488  0.00  0.00    +0.000 A 
ATOM     29  C   UNL     1      36.091  -0.256  15.487  0.00  0.00    +0.000 A 
ATOM     30  C   UNL     1      36.238  -1.580  15.201  0.00  0.00    +0.000 A 
ENDBRANCH  20  21
ENDBRANCH   6  20
TORSDOF 7
ENDMDL
MODEL 6
REMARK VINA RESULT:      -6.7      0.819      2.180
REMARK  Name = 
REMARK  7 active torsions:
REMARK  status: ('A' for Active; 'I' for Inactive)
REMARK    1  A    between atoms: O_2  and  C_3
REMARK    2  A    between atoms: C_6  and  C_7
REMARK    3  A    between atoms: C_7  and  C_8
REMARK    4  A    between atoms: C_8  and  C_9
REMARK    5  A    between atoms: N_11  and  C_12
REMARK    6  A    between atoms: N_17  and  C_18
REMARK    7  A    between atoms: C_18  and  C_19
REMARK                            x       y       z     vdW  Elec       q    Type
REMARK                         _______ _______ _______ _____ _____    ______ ____
ROOT
ATOM      1  C   UNL     1      37.790  -1.879  17.799  0.00  0.00    +0.000 A 
ATOM      2  C   UNL     1      38.029  -2.505  19.025  0.00  0.00    +0.000 A 
ATOM      3  C   UNL     1      38.688  -3.665  18.748  0.00  0.00    +0.000 A 
ATOM      4  C   UNL     1      39.183  -4.717  19.707  0.00  0.00    +0.000 C 
ATOM      5  N   UNL     1      38.824  -3.709  17.428  0.00  0.00    +0.000 NA
ATOM      6  N   UNL     1      38.290  -2.642  16.836  0.00  0.00    +0.000 N 
ENDROOT
BRANCH   1   9
ATOM      7  C   UNL     1      35.733  -0.593  17.286  0.00  0.00    +0.000 C 
ATOM      8  O   UNL     1      35.203  -1.702  17.017  0.00  0.00    +0.000 OA
ATOM      9  N   UNL     1      37.090  -0.646  17.700  0.00  0.00    +0.000 NA
BRANCH   7  10
ATOM     10  C   UNL     1      34.997   0.688  17.181  0.00  0.00    +0.000 C 
BRANCH  10  11
ATOM     11  C   UNL     1      35.850   1.853  17.454  0.00  0.00    +0.000 C 
BRANCH  11  15
ATOM     12  C   UNL     1      36.469   4.667  14.342  0.00  0.00    +0.000 A 
ATOM     13  C   UNL     1      35.391   3.807  14.302  0.00  0.00    +0.000 A 
ATOM     14  C   UNL     1      35.141   2.878  15.288  0.00  0.00    +0.000 A 
ATOM     15  C   UNL     1      36.031   2.827  16.366  0.00  0.00    +0.000 A 
ATOM     16  C   UNL     1      37.096   3.691  16.390  0.00  0.00    +0.000 A 
ATOM     17  C   UNL     1      37.342   4.615  15.403  0.00  0.00    +0.000 A 
BRANCH  12  19
ATOM     18  C   UNL     1      35.753   5.847  12.318  0.00  0.00    +0.000 C 
ATOM     19  O   UNL     1      36.699   5.598  13.328  0.00  0.00    +0.000 OA
ENDBRANCH  12  19
ENDBRANCH  11  15
ENDBRANCH  10  11
ENDBRANCH   7  10
ENDBRANCH   1   9
BRANCH   6  20
ATOM     20  C   UNL     1      38.316  -2.411  15.419  0.00  0.00    +0.000 C 
BRANCH  20  21
ATOM     21  C   UNL     1      38.987  -1.181  14.975  0.00  0.00    +0.000 A 
ATOM     22  C   UNL     1      38.239   0.000  14.827  0.00  0.00    +0.000 A 
ATOM     23  C   UNL     1      38.795   1.174  14.399  0.00  0.00    +0.000 A 
ATOM     24  C   UNL     1      40.135   1.239  14.092  0.00  0.00    +0.000 A 
ATOM     25  C   UNL     1      40.896   0.112  14.225  0.00  0.00    +0.000 A 
ATOM     26  C   UNL     1      42.234   0.222  13.918  0.00  0.00    +0.000 A 
ATOM     27  C   UNL     1      43.047  -0.875  14.042  0.00  0.00    +0.000 A 
ATOM     28  C   UNL     1      42.483  -2.071  14.479  0.00  0.00    +0.000 A 
ATOM     29  C   UNL     1      41.147  -2.153  14.777  0.00  0.00    +0.000 A 
ATOM     30  C   UNL     1      40.311  -1.082  14.664  0.00  0.00    +0.000 A 
ENDBRANCH  20  21
ENDBRANCH   6  20
TORSDOF 7
ENDMDL
MODEL 7
REMARK VINA RESULT:      -6.7      3.020      7.118
REMARK  Name = 
REMARK  7 active torsions:
REMARK  status: ('A' for Active; 'I' for Inactive)
REMARK    1  A    between atoms: O_2  and  C_3
REMARK    2  A    between atoms: C_6  and  C_7
REMARK    3  A    between atoms: C_7  and  C_8
REMARK    4  A    between atoms: C_8  and  C_9
REMARK    5  A    between atoms: N_11  and  C_12
REMARK    6  A    between atoms: N_17  and  C_18
REMARK    7  A    between atoms: C_18  and  C_19
REMARK                            x       y       z     vdW  Elec       q    Type
REMARK                         _______ _______ _______ _____ _____    ______ ____
ROOT
ATOM      1  C   UNL     1      35.977   0.052  15.090  0.00  0.00    +0.000 A 
ATOM      2  C   UNL     1      35.945   1.345  14.562  0.00  0.00    +0.000 A 
ATOM      3  C   UNL     1      35.164   2.086  15.396  0.00  0.00    +0.000 A 
ATOM      4  C   UNL     1      34.798   3.545  15.292  0.00  0.00    +0.000 C 
ATOM      5  N   UNL     1      34.763   1.265  16.359  0.00  0.00    +0.000 NA
ATOM      6  N   UNL     1      35.243   0.033  16.194  0.00  0.00    +0.000 N 
ENDROOT
BRANCH   1   9
ATOM      7  C   UNL     1      38.054  -1.255  14.732  0.00  0.00    +0.000 C 
ATOM      8  O   UNL     1      38.591  -0.477  15.562  0.00  0.00    +0.000 OA
ATOM      9  N   UNL     1      36.682  -1.008  14.459  0.00  0.00    +0.000 NA
BRANCH   7  10
ATOM     10  C   UNL     1      38.795  -2.359  14.078  0.00  0.00    +0.000 C 
BRANCH  10  11
ATOM     11  C   UNL     1      40.018  -2.727  14.805  0.00  0.00    +0.000 C 
BRANCH  11  15
ATOM     12  C   UNL     1      43.745  -1.673  13.076  0.00  0.00    +0.000 A 
ATOM     13  C   UNL     1      43.113  -2.846  12.713  0.00  0.00    +0.000 A 
ATOM     14  C   UNL     1      41.900  -3.232  13.240  0.00  0.00    +0.000 A 
ATOM     15  C   UNL     1      41.304  -2.382  14.178  0.00  0.00    +0.000 A 
ATOM     16  C   UNL     1      41.946  -1.221  14.525  0.00  0.00    +0.000 A 
ATOM     17  C   UNL     1      43.156  -0.840  13.998  0.00  0.00    +0.000 A 
BRANCH  12  19
ATOM     18  C   UNL     1      46.015  -2.235  12.347  0.00  0.00    +0.000 C 
ATOM     19  O   UNL     1      44.974  -1.306  12.527  0.00  0.00    +0.000 OA
ENDBRANCH  12  19
ENDBRANCH  11  15
ENDBRANCH  10  11
ENDBRANCH   7  10
ENDBRANCH   1   9
BRANCH   6  20
ATOM     20  C   UNL     1      34.996  -1.054  17.099  0.00  0.00    +0.000 C 
BRANCH  20  21
ATOM     21  C   UNL     1      36.182  -1.679  17.701  0.00  0.00    +0.000 A 
ATOM     22  C   UNL     1      36.931  -0.968  18.655  0.00  0.00    +0.000 A 
ATOM     23  C   UNL     1      38.055  -1.482  19.239  0.00  0.00    +0.000 A 
ATOM     24  C   UNL     1      38.500  -2.741  18.906  0.00  0.00    +0.000 A 
ATOM     25  C   UNL     1      37.798  -3.464  17.984  0.00  0.00    +0.000 A 
ATOM     26  C   UNL     1      38.271  -4.723  17.686  0.00  0.00    +0.000 A 
ATOM     27  C   UNL     1      37.600  -5.497  16.775  0.00  0.00    +0.000 A 
ATOM     28  C   UNL     1      36.454  -4.977  16.179  0.00  0.00    +0.000 A 
ATOM     29  C   UNL     1      36.006  -3.719  16.494  0.00  0.00    +0.000 A 
ATOM     30  C   UNL     1      36.649  -2.923  17.394  0.00  0.00    +0.000 A 
ENDBRANCH  20  21
ENDBRANCH   6  20
TORSDOF 7
ENDMDL
MODEL 8
REMARK VINA RESULT:      -6.7      4.562      7.169
REMARK  Name = 
REMARK  7 active torsions:
REMARK  status: ('A' for Active; 'I' for Inactive)
REMARK    1  A    between atoms: O_2  and  C_3
REMARK    2  A    between atoms: C_6  and  C_7
REMARK    3  A    between atoms: C_7  and  C_8
REMARK    4  A    between atoms: C_8  and  C_9
REMARK    5  A    between atoms: N_11  and  C_12
REMARK    6  A    between atoms: N_17  and  C_18
REMARK    7  A    between atoms: C_18  and  C_19
REMARK                            x       y       z     vdW  Elec       q    Type
REMARK                         _______ _______ _______ _____ _____    ______ ____
ROOT
ATOM      1  C   UNL     1      38.248   3.383  14.774  0.00  0.00    +0.000 A 
ATOM      2  C   UNL     1      39.050   3.962  13.787  0.00  0.00    +0.000 A 
ATOM      3  C   UNL     1      38.447   3.700  12.593  0.00  0.00    +0.000 A 
ATOM      4  C   UNL     1      38.893   4.095  11.209  0.00  0.00    +0.000 C 
ATOM      5  N   UNL     1      37.351   3.005  12.874  0.00  0.00    +0.000 NA
ATOM      6  N   UNL     1      37.211   2.804  14.184  0.00  0.00    +0.000 N 
ENDROOT
BRANCH   1   9
ATOM      7  C   UNL     1      38.350   4.596  16.935  0.00  0.00    +0.000 C 
ATOM      8  O   UNL     1      37.828   5.564  16.324  0.00  0.00    +0.000 OA
ATOM      9  N   UNL     1      38.586   3.434  16.153  0.00  0.00    +0.000 NA
BRANCH   7  10
ATOM     10  C   UNL     1      38.700   4.655  18.373  0.00  0.00    +0.000 C 
BRANCH  10  11
ATOM     11  C   UNL     1      39.080   6.007  18.807  0.00  0.00    +0.000 C 
BRANCH  11  15
ATOM     12  C   UNL     1      43.213   6.764  19.380  0.00  0.00    +0.000 A 
ATOM     13  C   UNL     1      42.690   6.673  18.106  0.00  0.00    +0.000 A 
ATOM     14  C   UNL     1      41.355   6.434  17.865  0.00  0.00    +0.000 A 
ATOM     15  C   UNL     1      40.516   6.283  18.974  0.00  0.00    +0.000 A 
ATOM     16  C   UNL     1      41.054   6.378  20.232  0.00  0.00    +0.000 A 
ATOM     17  C   UNL     1      42.386   6.616  20.469  0.00  0.00    +0.000 A 
BRANCH  12  19
ATOM     18  C   UNL     1      45.372   6.129  20.349  0.00  0.00    +0.000 C 
ATOM     19  O   UNL     1      44.571   7.006  19.597  0.00  0.00    +0.000 OA
ENDBRANCH  12  19
ENDBRANCH  11  15
ENDBRANCH  10  11
ENDBRANCH   7  10
ENDBRANCH   1   9
BRANCH   6  20
ATOM     20  C   UNL     1      36.104   2.108  14.776  0.00  0.00    +0.000 C 
BRANCH  20  21
ATOM     21  C   UNL     1      36.342   0.707  15.149  0.00  0.00    +0.000 A 
ATOM     22  C   UNL     1      36.637  -0.235  14.148  0.00  0.00    +0.000 A 
ATOM     23  C   UNL     1      36.851  -1.558  14.423  0.00  0.00    +0.000 A 
ATOM     24  C   UNL     1      36.782  -2.021  15.717  0.00  0.00    +0.000 A 
ATOM     25  C   UNL     1      36.499  -1.135  16.718  0.00  0.00    +0.000 A 
ATOM     26  C   UNL     1      36.450  -1.635  18.000  0.00  0.00    +0.000 A 
ATOM     27  C   UNL     1      36.180  -0.791  19.045  0.00  0.00    +0.000 A 
ATOM     28  C   UNL     1      35.963   0.557  18.768  0.00  0.00    +0.000 A 
ATOM     29  C   UNL     1      36.018   1.030  17.481  0.00  0.00    +0.000 A 
ATOM     30  C   UNL     1      36.283   0.216  16.420  0.00  0.00    +0.000 A 
ENDBRANCH  20  21
ENDBRANCH   6  20
TORSDOF 7
ENDMDL
MODEL 9
REMARK VINA RESULT:      -6.6      3.265      5.837
REMARK  Name = 
REMARK  7 active torsions:
REMARK  status: ('A' for Active; 'I' for Inactive)
REMARK    1  A    between atoms: O_2  and  C_3
REMARK    2  A    between atoms: C_6  and  C_7
REMARK    3  A    between atoms: C_7  and  C_8
REMARK    4  A    between atoms: C_8  and  C_9
REMARK    5  A    between atoms: N_11  and  C_12
REMARK    6  A    between atoms: N_17  and  C_18
REMARK    7  A    between atoms: C_18  and  C_19
REMARK                            x       y       z     vdW  Elec       q    Type
REMARK                         _______ _______ _______ _____ _____    ______ ____
ROOT
ATOM      1  C   UNL     1      39.387   0.485  13.711  0.00  0.00    +0.000 A 
ATOM      2  C   UNL     1      40.455  -0.409  13.592  0.00  0.00    +0.000 A 
ATOM      3  C   UNL     1      39.941  -1.561  13.077  0.00  0.00    +0.000 A 
ATOM      4  C   UNL     1      40.658  -2.846  12.749  0.00  0.00    +0.000 C 
ATOM      5  N   UNL     1      38.642  -1.346  12.905  0.00  0.00    +0.000 NA
ATOM      6  N   UNL     1      38.287  -0.118  13.282  0.00  0.00    +0.000 N 
ENDROOT
BRANCH   1   9
ATOM      7  C   UNL     1      39.663   2.930  13.405  0.00  0.00    +0.000 C 
ATOM      8  O   UNL     1      39.613   2.700  12.170  0.00  0.00    +0.000 OA
ATOM      9  N   UNL     1      39.548   1.792  14.246  0.00  0.00    +0.000 NA
BRANCH   7  10
ATOM     10  C   UNL     1      39.830   4.295  13.956  0.00  0.00    +0.000 C 
BRANCH  10  11
ATOM     11  C   UNL     1      38.809   4.629  14.958  0.00  0.00    +0.000 C 
BRANCH  11  15
ATOM     12  C   UNL     1      40.113   5.955  18.770  0.00  0.00    +0.000 A 
ATOM     13  C   UNL     1      40.832   6.273  17.635  0.00  0.00    +0.000 A 
ATOM     14  C   UNL     1      40.450   5.872  16.374  0.00  0.00    +0.000 A 
ATOM     15  C   UNL     1      39.280   5.114  16.266  0.00  0.00    +0.000 A 
ATOM     16  C   UNL     1      38.577   4.809  17.403  0.00  0.00    +0.000 A 
ATOM     17  C   UNL     1      38.962   5.210  18.659  0.00  0.00    +0.000 A 
BRANCH  12  19
ATOM     18  C   UNL     1      41.880   6.402  20.407  0.00  0.00    +0.000 C 
ATOM     19  O   UNL     1      40.523   6.373  20.036  0.00  0.00    +0.000 OA
ENDBRANCH  12  19
ENDBRANCH  11  15
ENDBRANCH  10  11
ENDBRANCH   7  10
ENDBRANCH   1   9
BRANCH   6  20
ATOM     20  C   UNL     1      36.951   0.399  13.181  0.00  0.00    +0.000 C 
BRANCH  20  21
ATOM     21  C   UNL     1      36.280   0.712  14.450  0.00  0.00    +0.000 A 
ATOM     22  C   UNL     1      36.035   2.055  14.790  0.00  0.00    +0.000 A 
ATOM     23  C   UNL     1      35.431   2.418  15.962  0.00  0.00    +0.000 A 
ATOM     24  C   UNL     1      35.036   1.461  16.868  0.00  0.00    +0.000 A 
ATOM     25  C   UNL     1      35.256   0.145  16.573  0.00  0.00    +0.000 A 
ATOM     26  C   UNL     1      34.836  -0.782  17.501  0.00  0.00    +0.000 A 
ATOM     27  C   UNL     1      35.021  -2.117  17.253  0.00  0.00    +0.000 A 
ATOM     28  C   UNL     1      35.634  -2.490  16.059  0.00  0.00    +0.000 A 
ATOM     29  C   UNL     1      36.043  -1.546  15.152  0.00  0.00    +0.000 A 
ATOM     30  C   UNL     1      35.874  -0.211  15.368  0.00  0.00    +0.000 A 
ENDBRANCH  20  21
ENDBRANCH   6  20
TORSDOF 7
ENDMDL
MODEL 10
REMARK VINA RESULT:      -6.6      4.127      6.743
REMARK  Name = 
REMARK  7 active torsions:
REMARK  status: ('A' for Active; 'I' for Inactive)
REMARK    1  A    between atoms: O_2  and  C_3
REMARK    2  A    between atoms: C_6  and  C_7
REMARK    3  A    between atoms: C_7  and  C_8
REMARK    4  A    between atoms: C_8  and  C_9
REMARK    5  A    between atoms: N_11  and  C_12
REMARK    6  A    between atoms: N_17  and  C_18
REMARK    7  A    between atoms: C_18  and  C_19
REMARK                            x       y       z     vdW  Elec       q    Type
REMARK                         _______ _______ _______ _____ _____    ______ ____
ROOT
ATOM      1  C   UNL     1      37.854   2.192  14.583  0.00  0.00    +0.000 A 
ATOM      2  C   UNL     1      38.697   2.240  13.469  0.00  0.00    +0.000 A 
ATOM      3  C   UNL     1      38.014   1.663  12.440  0.00  0.00    +0.000 A 
ATOM      4  C   UNL     1      38.460   1.456  11.015  0.00  0.00    +0.000 C 
ATOM      5  N   UNL     1      36.836   1.299  12.932  0.00  0.00    +0.000 NA
ATOM      6  N   UNL     1      36.719   1.609  14.223  0.00  0.00    +0.000 N 
ENDROOT
BRANCH   1   9
ATOM      7  C   UNL     1      37.873   3.977  16.303  0.00  0.00    +0.000 C 
ATOM      8  O   UNL     1      37.172   4.646  15.502  0.00  0.00    +0.000 OA
ATOM      9  N   UNL     1      38.251   2.683  15.856  0.00  0.00    +0.000 NA
BRANCH   7  10
ATOM     10  C   UNL     1      38.282   4.495  17.630  0.00  0.00    +0.000 C 
BRANCH  10  11
ATOM     11  C   UNL     1      38.757   5.885  17.571  0.00  0.00    +0.000 C 
BRANCH  11  15
ATOM     12  C   UNL     1      42.306   6.767  19.718  0.00  0.00    +0.000 A 
ATOM     13  C   UNL     1      42.338   6.621  18.346  0.00  0.00    +0.000 A 
ATOM     14  C   UNL     1      41.214   6.340  17.600  0.00  0.00    +0.000 A 
ATOM     15  C   UNL     1      40.003   6.203  18.287  0.00  0.00    +0.000 A 
ATOM     16  C   UNL     1      39.991   6.352  19.651  0.00  0.00    +0.000 A 
ATOM     17  C   UNL     1      41.114   6.632  20.390  0.00  0.00    +0.000 A 
BRANCH  12  19
ATOM     18  C   UNL     1      44.213   6.040  21.074  0.00  0.00    +0.000 C 
ATOM     19  O   UNL     1      43.461   7.051  20.449  0.00  0.00    +0.000 OA
ENDBRANCH  12  19
ENDBRANCH  11  15
ENDBRANCH  10  11
ENDBRANCH   7  10
ENDBRANCH   1   9
BRANCH   6  20
ATOM     20  C   UNL     1      35.541   1.359  15.005  0.00  0.00    +0.000 C 
BRANCH  20  21
ATOM     21  C   UNL     1      35.712   0.483  16.173  0.00  0.00    +0.000 A 
ATOM     22  C   UNL     1      35.642   1.031  17.466  0.00  0.00    +0.000 A 
ATOM     23  C   UNL     1      35.810   0.277  18.594  0.00  0.00    +0.000 A 
ATOM     24  C   UNL     1      36.060  -1.073  18.500  0.00  0.00    +0.000 A 
ATOM     25  C   UNL     1      36.134  -1.643  17.261  0.00  0.00    +0.000 A 
ATOM     26  C   UNL     1      36.375  -2.998  17.210  0.00  0.00    +0.000 A 
ATOM     27  C   UNL     1      36.450  -3.625  15.993  0.00  0.00    +0.000 A 
ATOM     28  C   UNL     1      36.278  -2.860  14.842  0.00  0.00    +0.000 A 
ATOM     29  C   UNL     1      36.039  -1.511  14.921  0.00  0.00    +0.000 A 
ATOM     30  C   UNL     1      35.959  -0.857  16.115  0.00  0.00    +0.000 A 
ENDBRANCH  20  21
ENDBRANCH   6  20
TORSDOF 7
ENDMDL
