MODEL 1
REMARK VINA RESULT:      -7.8      0.000      0.000
REMARK  Name = 
REMARK  7 active torsions:
REMARK  status: ('A' for Active; 'I' for Inactive)
REMARK    1  A    between atoms: C_2  and  C_3
REMARK    2  A    between atoms: C_4  and  C_5
REMARK    3  A    between atoms: N_7  and  C_8
REMARK    4  A    between atoms: C_8  and  C_9
REMARK    5  A    between atoms: C_8  and  C_16
REMARK    6  A    between atoms: C_9  and  C_10
REMARK    7  A    between atoms: C_26  and  C_27
REMARK                            x       y       z     vdW  Elec       q    Type
REMARK                         _______ _______ _______ _____ _____    ______ ____
ROOT
ATOM      1  C   UNL     1      36.219   2.885  16.518  0.00  0.00    +0.000 C 
ATOM      2  O   UNL     1      35.283   3.623  16.150  0.00  0.00    +0.000 OA
ATOM      3  N   UNL     1      37.468   3.392  16.784  0.00  0.00    +0.000 NA
ENDROOT
BRANCH   1   5
ATOM      4  C   UNL     1      36.097   0.556  15.648  0.00  0.00    +0.000 A 
ATOM      5  C   UNL     1      36.039   1.430  16.688  0.00  0.00    +0.000 A 
ATOM      6  C   UNL     1      35.825   0.971  17.973  0.00  0.00    +0.000 A 
ATOM      7  N   UNL     1      35.670  -0.366  18.189  0.00  0.00    +0.000 NA
ATOM      8  C   UNL     1      35.739  -1.165  17.131  0.00  0.00    +0.000 A 
ATOM      9  C   UNL     1      35.618  -2.547  17.038  0.00  0.00    +0.000 A 
ATOM     10  C   UNL     1      35.755  -2.937  15.729  0.00  0.00    +0.000 A 
ATOM     11  N   UNL     1      35.956  -1.789  15.043  0.00  0.00    +0.000 NA
ATOM     12  N   UNL     1      35.945  -0.754  15.868  0.00  0.00    +0.000 N 
BRANCH  10  13
ATOM     13  C   UNL     1      35.700  -4.318  15.160  0.00  0.00    +0.000 C 
ATOM     14  C   UNL     1      34.323  -4.525  14.556  0.00  0.00    +0.000 C 
ATOM     15  C   UNL     1      35.935  -5.372  16.194  0.00  0.00    +0.000 C 
ATOM     16  C   UNL     1      36.696  -4.388  14.010  0.00  0.00    +0.000 C 
ENDBRANCH  10  13
BRANCH   4  18
ATOM     17  C   UNL     1      37.818   1.005  14.018  0.00  0.00    +0.000 C 
ATOM     18  C   UNL     1      36.314   1.074  14.264  0.00  0.00    +0.000 C 
ENDBRANCH   4  18
ENDBRANCH   1   5
BRANCH   3  19
ATOM     19  C   UNL     1      37.771   4.939  16.633  0.00  0.00    +0.000 C 
BRANCH  19  20
ATOM     20  C   UNL     1      38.296   4.843  15.154  0.00  0.00    +0.000 A 
ATOM     21  C   UNL     1      37.687   5.305  14.077  0.00  0.00    +0.000 A 
ATOM     22  C   UNL     1      38.205   5.156  12.817  0.00  0.00    +0.000 A 
ATOM     23  C   UNL     1      39.401   4.503  12.677  0.00  0.00    +0.000 A 
ATOM     24  C   UNL     1      40.087   3.998  13.760  0.00  0.00    +0.000 A 
ATOM     25  C   UNL     1      39.497   4.184  15.027  0.00  0.00    +0.000 A 
ENDBRANCH  19  20
BRANCH  19  26
ATOM     26  C   UNL     1      39.181   4.894  17.460  0.00  0.00    +0.000 C 
BRANCH  26  27
ATOM     27  C   UNL     1      39.007   6.040  18.381  0.00  0.00    +0.000 A 
ATOM     28  C   UNL     1      39.960   6.092  19.423  0.00  0.00    +0.000 A 
ATOM     29  C   UNL     1      39.882   7.138  20.299  0.00  0.00    +0.000 A 
ATOM     30  C   UNL     1      38.929   8.120  20.207  0.00  0.00    +0.000 A 
ATOM     31  C   UNL     1      38.004   8.076  19.202  0.00  0.00    +0.000 A 
ATOM     32  C   UNL     1      38.071   7.029  18.312  0.00  0.00    +0.000 A 
ENDBRANCH  26  27
ENDBRANCH  19  26
ENDBRANCH   3  19
TORSDOF 7
ENDMDL
MODEL 2
REMARK VINA RESULT:      -7.6      3.696      8.214
REMARK  Name = 
REMARK  7 active torsions:
REMARK  status: ('A' for Active; 'I' for Inactive)
REMARK    1  A    between atoms: C_2  and  C_3
REMARK    2  A    between atoms: C_4  and  C_5
REMARK    3  A    between atoms: N_7  and  C_8
REMARK    4  A    between atoms: C_8  and  C_9
REMARK    5  A    between atoms: C_8  and  C_16
REMARK    6  A    between atoms: C_9  and  C_10
REMARK    7  A    between atoms: C_26  and  C_27
REMARK                            x       y       z     vdW  Elec       q    Type
REMARK                         _______ _______ _______ _____ _____    ______ ____
ROOT
ATOM      1  C   UNL     1      36.561  -1.048  15.257  0.00  0.00    +0.000 C 
ATOM      2  O   UNL     1      35.971  -1.964  14.648  0.00  0.00    +0.000 OA
ATOM      3  N   UNL     1      37.733  -1.278  15.934  0.00  0.00    +0.000 NA
ENDROOT
BRANCH   1   5
ATOM      4  C   UNL     1      36.432   1.287  14.403  0.00  0.00    +0.000 A 
ATOM      5  C   UNL     1      36.033   0.330  15.284  0.00  0.00    +0.000 A 
ATOM      6  C   UNL     1      35.083   0.620  16.244  0.00  0.00    +0.000 A 
ATOM      7  N   UNL     1      34.549   1.872  16.301  0.00  0.00    +0.000 NA
ATOM      8  C   UNL     1      34.981   2.758  15.412  0.00  0.00    +0.000 A 
ATOM      9  C   UNL     1      34.632   4.091  15.227  0.00  0.00    +0.000 A 
ATOM     10  C   UNL     1      35.346   4.617  14.179  0.00  0.00    +0.000 A 
ATOM     11  N   UNL     1      36.120   3.598  13.740  0.00  0.00    +0.000 NA
ATOM     12  N   UNL     1      35.903   2.513  14.465  0.00  0.00    +0.000 N 
BRANCH  10  13
ATOM     13  C   UNL     1      35.297   6.004  13.624  0.00  0.00    +0.000 C 
ATOM     14  C   UNL     1      33.918   6.574  13.898  0.00  0.00    +0.000 C 
ATOM     15  C   UNL     1      35.548   6.038  12.150  0.00  0.00    +0.000 C 
ATOM     16  C   UNL     1      36.286   6.855  14.409  0.00  0.00    +0.000 C 
ENDBRANCH  10  13
BRANCH   4  18
ATOM     17  C   UNL     1      36.715   0.583  12.113  0.00  0.00    +0.000 C 
ATOM     18  C   UNL     1      37.472   0.958  13.383  0.00  0.00    +0.000 C 
ENDBRANCH   4  18
ENDBRANCH   1   5
BRANCH   3  19
ATOM     19  C   UNL     1      38.387  -2.720  15.970  0.00  0.00    +0.000 C 
BRANCH  19  20
ATOM     20  C   UNL     1      38.338  -2.864  17.536  0.00  0.00    +0.000 A 
ATOM     21  C   UNL     1      38.848  -3.855  18.245  0.00  0.00    +0.000 A 
ATOM     22  C   UNL     1      38.739  -3.916  19.610  0.00  0.00    +0.000 A 
ATOM     23  C   UNL     1      38.074  -2.907  20.256  0.00  0.00    +0.000 A 
ATOM     24  C   UNL     1      37.520  -1.845  19.575  0.00  0.00    +0.000 A 
ATOM     25  C   UNL     1      37.668  -1.847  18.172  0.00  0.00    +0.000 A 
ENDBRANCH  19  20
BRANCH  19  26
ATOM     26  C   UNL     1      39.921  -2.191  15.762  0.00  0.00    +0.000 C 
BRANCH  26  27
ATOM     27  C   UNL     1      39.949  -1.975  14.297  0.00  0.00    +0.000 A 
ATOM     28  C   UNL     1      40.706  -0.850  13.896  0.00  0.00    +0.000 A 
ATOM     29  C   UNL     1      40.803  -0.600  12.556  0.00  0.00    +0.000 A 
ATOM     30  C   UNL     1      40.204  -1.385  11.605  0.00  0.00    +0.000 A 
ATOM     31  C   UNL     1      39.472  -2.474  11.985  0.00  0.00    +0.000 A 
ATOM     32  C   UNL     1      39.365  -2.739  13.331  0.00  0.00    +0.000 A 
ENDBRANCH  26  27
ENDBRANCH  19  26
ENDBRANCH   3  19
TORSDOF 7
ENDMDL
MODEL 3
REMARK VINA RESULT:      -7.4      2.876      9.011
REMARK  Name = 
REMARK  7 active torsions:
REMARK  status: ('A' for Active; 'I' for Inactive)
REMARK    1  A    between atoms: C_2  and  C_3
REMARK    2  A    between atoms: C_4  and  C_5
REMARK    3  A    between atoms: N_7  and  C_8
REMARK    4  A    between atoms: C_8  and  C_9
REMARK    5  A    between atoms: C_8  and  C_16
REMARK    6  A    between atoms: C_9  and  C_10
REMARK    7  A    between atoms: C_26  and  C_27
REMARK                            x       y       z     vdW  Elec       q    Type
REMARK                         _______ _______ _______ _____ _____    ______ ____
ROOT
ATOM      1  C   UNL     1      38.001   4.910  15.496  0.00  0.00    +0.000 C 
ATOM      2  O   UNL     1      38.800   4.591  14.591  0.00  0.00    +0.000 OA
ATOM      3  N   UNL     1      36.667   4.598  15.413  0.00  0.00    +0.000 NA
ENDROOT
BRANCH   1   5
ATOM      4  C   UNL     1      38.539   6.994  16.747  0.00  0.00    +0.000 A 
ATOM      5  C   UNL     1      38.444   5.638  16.701  0.00  0.00    +0.000 A 
ATOM      6  C   UNL     1      38.747   4.880  17.815  0.00  0.00    +0.000 A 
ATOM      7  N   UNL     1      39.143   5.503  18.961  0.00  0.00    +0.000 NA
ATOM      8  C   UNL     1      39.214   6.828  18.939  0.00  0.00    +0.000 A 
ATOM      9  C   UNL     1      39.583   7.726  19.935  0.00  0.00    +0.000 A 
ATOM     10  C   UNL     1      39.510   9.009  19.453  0.00  0.00    +0.000 A 
ATOM     11  N   UNL     1      39.098   8.876  18.171  0.00  0.00    +0.000 NA
ATOM     12  N   UNL     1      38.927   7.598  17.875  0.00  0.00    +0.000 N 
BRANCH  10  13
ATOM     13  C   UNL     1      39.811  10.288  20.164  0.00  0.00    +0.000 C 
ATOM     14  C   UNL     1      41.150  10.137  20.862  0.00  0.00    +0.000 C 
ATOM     15  C   UNL     1      38.773  10.632  21.184  0.00  0.00    +0.000 C 
ATOM     16  C   UNL     1      39.986  11.376  19.113  0.00  0.00    +0.000 C 
ENDBRANCH  10  13
BRANCH   4  18
ATOM     17  C   UNL     1      36.776   8.254  15.687  0.00  0.00    +0.000 C 
ATOM     18  C   UNL     1      38.221   7.794  15.527  0.00  0.00    +0.000 C 
ENDBRANCH   4  18
ENDBRANCH   1   5
BRANCH   3  19
ATOM     19  C   UNL     1      36.085   3.819  14.164  0.00  0.00    +0.000 C 
BRANCH  19  20
ATOM     20  C   UNL     1      35.479   5.092  13.465  0.00  0.00    +0.000 A 
ATOM     21  C   UNL     1      35.890   5.629  12.330  0.00  0.00    +0.000 A 
ATOM     22  C   UNL     1      35.320   6.758  11.802  0.00  0.00    +0.000 A 
ATOM     23  C   UNL     1      34.286   7.345  12.483  0.00  0.00    +0.000 A 
ATOM     24  C   UNL     1      33.811   6.835  13.671  0.00  0.00    +0.000 A 
ATOM     25  C   UNL     1      34.444   5.673  14.158  0.00  0.00    +0.000 A 
ENDBRANCH  19  20
BRANCH  19  26
ATOM     26  C   UNL     1      34.768   3.247  14.946  0.00  0.00    +0.000 C 
BRANCH  26  27
ATOM     27  C   UNL     1      35.245   1.909  15.364  0.00  0.00    +0.000 A 
ATOM     28  C   UNL     1      34.788   1.507  16.640  0.00  0.00    +0.000 A 
ATOM     29  C   UNL     1      35.163   0.271  17.085  0.00  0.00    +0.000 A 
ATOM     30  C   UNL     1      35.954  -0.578  16.353  0.00  0.00    +0.000 A 
ATOM     31  C   UNL     1      36.399  -0.196  15.119  0.00  0.00    +0.000 A 
ATOM     32  C   UNL     1      36.029   1.046  14.658  0.00  0.00    +0.000 A 
ENDBRANCH  26  27
ENDBRANCH  19  26
ENDBRANCH   3  19
TORSDOF 7
ENDMDL
MODEL 4
REMARK VINA RESULT:      -7.3      2.561      8.974
REMARK  Name = 
REMARK  7 active torsions:
REMARK  status: ('A' for Active; 'I' for Inactive)
REMARK    1  A    between atoms: C_2  and  C_3
REMARK    2  A    between atoms: C_4  and  C_5
REMARK    3  A    between atoms: N_7  and  C_8
REMARK    4  A    between atoms: C_8  and  C_9
REMARK    5  A    between atoms: C_8  and  C_16
REMARK    6  A    between atoms: C_9  and  C_10
REMARK    7  A    between atoms: C_26  and  C_27
REMARK                            x       y       z     vdW  Elec       q    Type
REMARK                         _______ _______ _______ _____ _____    ______ ____
ROOT
ATOM      1  C   UNL     1      38.155   1.913  14.642  0.00  0.00    +0.000 C 
ATOM      2  O   UNL     1      37.491   1.832  13.589  0.00  0.00    +0.000 OA
ATOM      3  N   UNL     1      38.493   0.794  15.363  0.00  0.00    +0.000 NA
ENDROOT
BRANCH   1   5
ATOM      4  C   UNL     1      38.091   3.775  16.294  0.00  0.00    +0.000 A 
ATOM      5  C   UNL     1      38.615   3.212  15.172  0.00  0.00    +0.000 A 
ATOM      6  C   UNL     1      39.633   3.844  14.486  0.00  0.00    +0.000 A 
ATOM      7  N   UNL     1      40.109   5.037  14.943  0.00  0.00    +0.000 NA
ATOM      8  C   UNL     1      39.554   5.531  16.043  0.00  0.00    +0.000 A 
ATOM      9  C   UNL     1      39.819   6.708  16.734  0.00  0.00    +0.000 A 
ATOM     10  C   UNL     1      38.987   6.806  17.821  0.00  0.00    +0.000 A 
ATOM     11  N   UNL     1      38.227   5.687  17.778  0.00  0.00    +0.000 NA
ATOM     12  N   UNL     1      38.562   4.945  16.736  0.00  0.00    +0.000 N 
BRANCH  10  13
ATOM     13  C   UNL     1      38.917   7.893  18.844  0.00  0.00    +0.000 C 
ATOM     14  C   UNL     1      37.462   8.285  19.017  0.00  0.00    +0.000 C 
ATOM     15  C   UNL     1      39.697   9.105  18.444  0.00  0.00    +0.000 C 
ATOM     16  C   UNL     1      39.375   7.312  20.175  0.00  0.00    +0.000 C 
ENDBRANCH  10  13
BRANCH   4  18
ATOM     17  C   UNL     1      35.717   3.357  16.199  0.00  0.00    +0.000 C 
ATOM     18  C   UNL     1      36.978   3.083  17.011  0.00  0.00    +0.000 C 
ENDBRANCH   4  18
ENDBRANCH   1   5
BRANCH   3  19
ATOM     19  C   UNL     1      38.052  -0.650  14.885  0.00  0.00    +0.000 C 
BRANCH  19  20
ATOM     20  C   UNL     1      36.939  -0.834  15.982  0.00  0.00    +0.000 A 
ATOM     21  C   UNL     1      35.684  -0.432  15.898  0.00  0.00    +0.000 A 
ATOM     22  C   UNL     1      34.784  -0.612  16.915  0.00  0.00    +0.000 A 
ATOM     23  C   UNL     1      35.209  -1.234  18.059  0.00  0.00    +0.000 A 
ATOM     24  C   UNL     1      36.504  -1.677  18.210  0.00  0.00    +0.000 A 
ATOM     25  C   UNL     1      37.378  -1.459  17.126  0.00  0.00    +0.000 A 
ENDBRANCH  19  20
BRANCH  19  26
ATOM     26  C   UNL     1      39.305  -1.429  15.589  0.00  0.00    +0.000 C 
BRANCH  26  27
ATOM     27  C   UNL     1      39.960  -2.037  14.408  0.00  0.00    +0.000 A 
ATOM     28  C   UNL     1      39.132  -2.113  13.266  0.00  0.00    +0.000 A 
ATOM     29  C   UNL     1      39.674  -2.638  12.126  0.00  0.00    +0.000 A 
ATOM     30  C   UNL     1      40.969  -3.085  12.053  0.00  0.00    +0.000 A 
ATOM     31  C   UNL     1      41.775  -3.015  13.154  0.00  0.00    +0.000 A 
ATOM     32  C   UNL     1      41.243  -2.489  14.308  0.00  0.00    +0.000 A 
ENDBRANCH  26  27
ENDBRANCH  19  26
ENDBRANCH   3  19
TORSDOF 7
ENDMDL
MODEL 5
REMARK VINA RESULT:      -7.2      3.556      7.960
REMARK  Name = 
REMARK  7 active torsions:
REMARK  status: ('A' for Active; 'I' for Inactive)
REMARK    1  A    between atoms: C_2  and  C_3
REMARK    2  A    between atoms: C_4  and  C_5
REMARK    3  A    between atoms: N_7  and  C_8
REMARK    4  A    between atoms: C_8  and  C_9
REMARK    5  A    between atoms: C_8  and  C_16
REMARK    6  A    between atoms: C_9  and  C_10
REMARK    7  A    between atoms: C_26  and  C_27
REMARK                            x       y       z     vdW  Elec       q    Type
REMARK                         _______ _______ _______ _____ _____    ______ ____
ROOT
ATOM      1  C   UNL     1      38.642   1.254  14.394  0.00  0.00    +0.000 C 
ATOM      2  O   UNL     1      39.707   1.440  15.018  0.00  0.00    +0.000 OA
ATOM      3  N   UNL     1      38.018   0.031  14.394  0.00  0.00    +0.000 NA
ENDROOT
BRANCH   1   5
ATOM      4  C   UNL     1      37.131   3.221  14.182  0.00  0.00    +0.000 A 
ATOM      5  C   UNL     1      37.996   2.333  13.622  0.00  0.00    +0.000 A 
ATOM      6  C   UNL     1      38.321   2.428  12.283  0.00  0.00    +0.000 A 
ATOM      7  N   UNL     1      37.767   3.418  11.528  0.00  0.00    +0.000 NA
ATOM      8  C   UNL     1      36.932   4.251  12.136  0.00  0.00    +0.000 A 
ATOM      9  C   UNL     1      36.222   5.337  11.637  0.00  0.00    +0.000 A 
ATOM     10  C   UNL     1      35.475   5.904  12.639  0.00  0.00    +0.000 A 
ATOM     11  N   UNL     1      35.740   5.156  13.735  0.00  0.00    +0.000 NA
ATOM     12  N   UNL     1      36.592   4.190  13.435  0.00  0.00    +0.000 N 
BRANCH  10  13
ATOM     13  C   UNL     1      34.564   7.087  12.566  0.00  0.00    +0.000 C 
ATOM     14  C   UNL     1      35.399   8.338  12.762  0.00  0.00    +0.000 C 
ATOM     15  C   UNL     1      33.497   7.052  13.612  0.00  0.00    +0.000 C 
ATOM     16  C   UNL     1      34.001   7.154  11.152  0.00  0.00    +0.000 C 
ENDBRANCH  10  13
BRANCH   4  18
ATOM     17  C   UNL     1      35.446   2.356  15.675  0.00  0.00    +0.000 C 
ATOM     18  C   UNL     1      36.781   3.092  15.628  0.00  0.00    +0.000 C 
ENDBRANCH   4  18
ENDBRANCH   1   5
BRANCH   3  19
ATOM     19  C   UNL     1      38.624  -1.197  15.190  0.00  0.00    +0.000 C 
BRANCH  19  20
ATOM     20  C   UNL     1      39.399  -1.800  13.961  0.00  0.00    +0.000 A 
ATOM     21  C   UNL     1      38.913  -1.988  12.747  0.00  0.00    +0.000 A 
ATOM     22  C   UNL     1      39.653  -2.545  11.737  0.00  0.00    +0.000 A 
ATOM     23  C   UNL     1      40.944  -2.918  12.004  0.00  0.00    +0.000 A 
ATOM     24  C   UNL     1      41.510  -2.749  13.248  0.00  0.00    +0.000 A 
ATOM     25  C   UNL     1      40.692  -2.171  14.242  0.00  0.00    +0.000 A 
ENDBRANCH  19  20
BRANCH  19  26
ATOM     26  C   UNL     1      37.254  -2.088  15.153  0.00  0.00    +0.000 C 
BRANCH  26  27
ATOM     27  C   UNL     1      36.559  -1.591  16.362  0.00  0.00    +0.000 A 
ATOM     28  C   UNL     1      37.385  -1.501  17.505  0.00  0.00    +0.000 A 
ATOM     29  C   UNL     1      36.822  -1.023  18.655  0.00  0.00    +0.000 A 
ATOM     30  C   UNL     1      35.509  -0.636  18.739  0.00  0.00    +0.000 A 
ATOM     31  C   UNL     1      34.705  -0.720  17.638  0.00  0.00    +0.000 A 
ATOM     32  C   UNL     1      35.258  -1.199  16.473  0.00  0.00    +0.000 A 
ENDBRANCH  26  27
ENDBRANCH  19  26
ENDBRANCH   3  19
TORSDOF 7
ENDMDL
MODEL 6
REMARK VINA RESULT:      -7.2      5.296      7.834
REMARK  Name = 
REMARK  7 active torsions:
REMARK  status: ('A' for Active; 'I' for Inactive)
REMARK    1  A    between atoms: C_2  and  C_3
REMARK    2  A    between atoms: C_4  and  C_5
REMARK    3  A    between atoms: N_7  and  C_8
REMARK    4  A    between atoms: C_8  and  C_9
REMARK    5  A    between atoms: C_8  and  C_16
REMARK    6  A    between atoms: C_9  and  C_10
REMARK    7  A    between atoms: C_26  and  C_27
REMARK                            x       y       z     vdW  Elec       q    Type
REMARK                         _______ _______ _______ _____ _____    ______ ____
ROOT
ATOM      1  C   UNL     1      41.563  -2.043  14.223  0.00  0.00    +0.000 C 
ATOM      2  O   UNL     1      41.599  -2.558  13.087  0.00  0.00    +0.000 OA
ATOM      3  N   UNL     1      42.646  -1.377  14.742  0.00  0.00    +0.000 NA
ENDROOT
BRANCH   1   5
ATOM      4  C   UNL     1      39.486  -1.082  15.204  0.00  0.00    +0.000 A 
ATOM      5  C   UNL     1      40.358  -2.118  15.072  0.00  0.00    +0.000 A 
ATOM      6  C   UNL     1      40.126  -3.310  15.728  0.00  0.00    +0.000 A 
ATOM      7  N   UNL     1      39.017  -3.440  16.510  0.00  0.00    +0.000 NA
ATOM      8  C   UNL     1      38.207  -2.392  16.595  0.00  0.00    +0.000 A 
ATOM      9  C   UNL     1      37.023  -2.225  17.305  0.00  0.00    +0.000 A 
ATOM     10  C   UNL     1      36.531  -0.961  17.095  0.00  0.00    +0.000 A 
ATOM     11  N   UNL     1      37.421  -0.376  16.261  0.00  0.00    +0.000 NA
ATOM     12  N   UNL     1      38.400  -1.217  15.972  0.00  0.00    +0.000 N 
BRANCH  10  13
ATOM     13  C   UNL     1      35.288  -0.343  17.650  0.00  0.00    +0.000 C 
ATOM     14  C   UNL     1      34.142  -1.312  17.432  0.00  0.00    +0.000 C 
ATOM     15  C   UNL     1      34.953   0.956  16.990  0.00  0.00    +0.000 C 
ATOM     16  C   UNL     1      35.467  -0.209  19.156  0.00  0.00    +0.000 C 
ENDBRANCH  10  13
BRANCH   4  18
ATOM     17  C   UNL     1      38.995   0.139  13.182  0.00  0.00    +0.000 C 
ATOM     18  C   UNL     1      39.763   0.205  14.498  0.00  0.00    +0.000 C 
ENDBRANCH   4  18
ENDBRANCH   1   5
BRANCH   3  19
ATOM     19  C   UNL     1      43.990  -1.236  13.916  0.00  0.00    +0.000 C 
BRANCH  19  20
ATOM     20  C   UNL     1      44.942  -1.360  15.163  0.00  0.00    +0.000 A 
ATOM     21  C   UNL     1      45.646  -2.424  15.506  0.00  0.00    +0.000 A 
ATOM     22  C   UNL     1      46.433  -2.455  16.627  0.00  0.00    +0.000 A 
ATOM     23  C   UNL     1      46.490  -1.336  17.415  0.00  0.00    +0.000 A 
ATOM     24  C   UNL     1      45.781  -0.194  17.113  0.00  0.00    +0.000 A 
ATOM     25  C   UNL     1      44.989  -0.231  15.946  0.00  0.00    +0.000 A 
ENDBRANCH  19  20
BRANCH  19  26
ATOM     26  C   UNL     1      43.900   0.390  13.763  0.00  0.00    +0.000 C 
BRANCH  26  27
ATOM     27  C   UNL     1      43.303   0.515  12.414  0.00  0.00    +0.000 A 
ATOM     28  C   UNL     1      43.838  -0.383  11.462  0.00  0.00    +0.000 A 
ATOM     29  C   UNL     1      43.318  -0.347  10.198  0.00  0.00    +0.000 A 
ATOM     30  C   UNL     1      42.316   0.512   9.828  0.00  0.00    +0.000 A 
ATOM     31  C   UNL     1      41.794   1.382  10.743  0.00  0.00    +0.000 A 
ATOM     32  C   UNL     1      42.307   1.358  12.018  0.00  0.00    +0.000 A 
ENDBRANCH  26  27
ENDBRANCH  19  26
ENDBRANCH   3  19
TORSDOF 7
ENDMDL
MODEL 7
REMARK VINA RESULT:      -7.1      3.850      8.436
REMARK  Name = 
REMARK  7 active torsions:
REMARK  status: ('A' for Active; 'I' for Inactive)
REMARK    1  A    between atoms: C_2  and  C_3
REMARK    2  A    between atoms: C_4  and  C_5
REMARK    3  A    between atoms: N_7  and  C_8
REMARK    4  A    between atoms: C_8  and  C_9
REMARK    5  A    between atoms: C_8  and  C_16
REMARK    6  A    between atoms: C_9  and  C_10
REMARK    7  A    between atoms: C_26  and  C_27
REMARK                            x       y       z     vdW  Elec       q    Type
REMARK                         _______ _______ _______ _____ _____    ______ ____
ROOT
ATOM      1  C   UNL     1      36.201   4.668  14.538  0.00  0.00    +0.000 C 
ATOM      2  O   UNL     1      37.139   5.107  15.233  0.00  0.00    +0.000 OA
ATOM      3  N   UNL     1      35.702   3.402  14.724  0.00  0.00    +0.000 NA
ENDROOT
BRANCH   1   5
ATOM      4  C   UNL     1      35.985   5.445  12.182  0.00  0.00    +0.000 A 
ATOM      5  C   UNL     1      35.574   5.482  13.478  0.00  0.00    +0.000 A 
ATOM      6  C   UNL     1      34.517   6.289  13.850  0.00  0.00    +0.000 A 
ATOM      7  N   UNL     1      33.890   7.048  12.907  0.00  0.00    +0.000 NA
ATOM      8  C   UNL     1      34.340   6.964  11.661  0.00  0.00    +0.000 A 
ATOM      9  C   UNL     1      33.914   7.609  10.505  0.00  0.00    +0.000 A 
ATOM     10  C   UNL     1      34.686   7.212   9.441  0.00  0.00    +0.000 A 
ATOM     11  N   UNL     1      35.572   6.332   9.964  0.00  0.00    +0.000 NA
ATOM     12  N   UNL     1      35.365   6.191  11.263  0.00  0.00    +0.000 N 
BRANCH  10  13
ATOM     13  C   UNL     1      34.590   7.639   8.013  0.00  0.00    +0.000 C 
ATOM     14  C   UNL     1      35.866   7.218   7.308  0.00  0.00    +0.000 C 
ATOM     15  C   UNL     1      34.427   9.119   7.869  0.00  0.00    +0.000 C 
ATOM     16  C   UNL     1      33.455   6.856   7.367  0.00  0.00    +0.000 C 
ENDBRANCH  10  13
BRANCH   4  18
ATOM     17  C   UNL     1      38.374   5.476  11.843  0.00  0.00    +0.000 C 
ATOM     18  C   UNL     1      37.141   4.578  11.804  0.00  0.00    +0.000 C 
ENDBRANCH   4  18
ENDBRANCH   1   5
BRANCH   3  19
ATOM     19  C   UNL     1      36.301   2.444  15.834  0.00  0.00    +0.000 C 
BRANCH  19  20
ATOM     20  C   UNL     1      37.020   1.477  14.822  0.00  0.00    +0.000 A 
ATOM     21  C   UNL     1      38.204   0.915  14.985  0.00  0.00    +0.000 A 
ATOM     22  C   UNL     1      38.769   0.102  14.038  0.00  0.00    +0.000 A 
ATOM     23  C   UNL     1      38.073  -0.132  12.881  0.00  0.00    +0.000 A 
ATOM     24  C   UNL     1      36.834   0.423  12.650  0.00  0.00    +0.000 A 
ATOM     25  C   UNL     1      36.312   1.250  13.665  0.00  0.00    +0.000 A 
ENDBRANCH  19  20
BRANCH  19  26
ATOM     26  C   UNL     1      34.907   1.629  16.094  0.00  0.00    +0.000 C 
BRANCH  26  27
ATOM     27  C   UNL     1      35.352   0.609  17.070  0.00  0.00    +0.000 A 
ATOM     28  C   UNL     1      35.046  -0.719  16.695  0.00  0.00    +0.000 A 
ATOM     29  C   UNL     1      35.450  -1.721  17.532  0.00  0.00    +0.000 A 
ATOM     30  C   UNL     1      36.128  -1.489  18.701  0.00  0.00    +0.000 A 
ATOM     31  C   UNL     1      36.427  -0.208  19.071  0.00  0.00    +0.000 A 
ATOM     32  C   UNL     1      36.026   0.811  18.238  0.00  0.00    +0.000 A 
ENDBRANCH  26  27
ENDBRANCH  19  26
ENDBRANCH   3  19
TORSDOF 7
ENDMDL
MODEL 8
REMARK VINA RESULT:      -7.0      4.239      7.686
REMARK  Name = 
REMARK  7 active torsions:
REMARK  status: ('A' for Active; 'I' for Inactive)
REMARK    1  A    between atoms: C_2  and  C_3
REMARK    2  A    between atoms: C_4  and  C_5
REMARK    3  A    between atoms: N_7  and  C_8
REMARK    4  A    between atoms: C_8  and  C_9
REMARK    5  A    between atoms: C_8  and  C_16
REMARK    6  A    between atoms: C_9  and  C_10
REMARK    7  A    between atoms: C_26  and  C_27
REMARK                            x       y       z     vdW  Elec       q    Type
REMARK                         _______ _______ _______ _____ _____    ______ ____
ROOT
ATOM      1  C   UNL     1      38.086   3.431  12.743  0.00  0.00    +0.000 C 
ATOM      2  O   UNL     1      39.278   3.760  12.915  0.00  0.00    +0.000 OA
ATOM      3  N   UNL     1      37.319   2.955  13.778  0.00  0.00    +0.000 NA
ENDROOT
BRANCH   1   5
ATOM      4  C   UNL     1      36.901   4.698  10.958  0.00  0.00    +0.000 A 
ATOM      5  C   UNL     1      37.435   3.537  11.423  0.00  0.00    +0.000 A 
ATOM      6  C   UNL     1      37.402   2.395  10.647  0.00  0.00    +0.000 A 
ATOM      7  N   UNL     1      36.829   2.442   9.411  0.00  0.00    +0.000 NA
ATOM      8  C   UNL     1      36.328   3.606   9.017  0.00  0.00    +0.000 A 
ATOM      9  C   UNL     1      35.689   3.956   7.833  0.00  0.00    +0.000 A 
ATOM     10  C   UNL     1      35.335   5.282   7.871  0.00  0.00    +0.000 A 
ATOM     11  N   UNL     1      35.761   5.721   9.077  0.00  0.00    +0.000 NA
ATOM     12  N   UNL     1      36.341   4.736   9.744  0.00  0.00    +0.000 N 
BRANCH  10  13
ATOM     13  C   UNL     1      34.634   6.088   6.825  0.00  0.00    +0.000 C 
ATOM     14  C   UNL     1      33.273   6.481   7.366  0.00  0.00    +0.000 C 
ATOM     15  C   UNL     1      34.445   5.329   5.551  0.00  0.00    +0.000 C 
ATOM     16  C   UNL     1      35.417   7.379   6.630  0.00  0.00    +0.000 C 
ENDBRANCH  10  13
BRANCH   4  18
ATOM     17  C   UNL     1      35.609   5.933  12.578  0.00  0.00    +0.000 C 
ATOM     18  C   UNL     1      36.932   5.918  11.819  0.00  0.00    +0.000 C 
ENDBRANCH   4  18
ENDBRANCH   1   5
BRANCH   3  19
ATOM     19  C   UNL     1      37.917   2.802  15.236  0.00  0.00    +0.000 C 
BRANCH  19  20
ATOM     20  C   UNL     1      36.920   1.671  15.686  0.00  0.00    +0.000 A 
ATOM     21  C   UNL     1      37.007   0.388  15.385  0.00  0.00    +0.000 A 
ATOM     22  C   UNL     1      36.077  -0.530  15.800  0.00  0.00    +0.000 A 
ATOM     23  C   UNL     1      35.022  -0.092  16.555  0.00  0.00    +0.000 A 
ATOM     24  C   UNL     1      34.873   1.233  16.904  0.00  0.00    +0.000 A 
ATOM     25  C   UNL     1      35.865   2.123  16.443  0.00  0.00    +0.000 A 
ENDBRANCH  19  20
BRANCH  19  26
ATOM     26  C   UNL     1      37.171   4.124  15.842  0.00  0.00    +0.000 C 
BRANCH  26  27
ATOM     27  C   UNL     1      38.304   4.812  16.503  0.00  0.00    +0.000 A 
ATOM     28  C   UNL     1      38.291   4.719  17.913  0.00  0.00    +0.000 A 
ATOM     29  C   UNL     1      39.320   5.306  18.594  0.00  0.00    +0.000 A 
ATOM     30  C   UNL     1      40.345   5.970  17.971  0.00  0.00    +0.000 A 
ATOM     31  C   UNL     1      40.364   6.063  16.608  0.00  0.00    +0.000 A 
ATOM     32  C   UNL     1      39.335   5.477  15.909  0.00  0.00    +0.000 A 
ENDBRANCH  26  27
ENDBRANCH  19  26
ENDBRANCH   3  19
TORSDOF 7
ENDMDL
MODEL 9
REMARK VINA RESULT:      -6.9      1.957      4.468
REMARK  Name = 
REMARK  7 active torsions:
REMARK  status: ('A' for Active; 'I' for Inactive)
REMARK    1  A    between atoms: C_2  and  C_3
REMARK    2  A    between atoms: C_4  and  C_5
REMARK    3  A    between atoms: N_7  and  C_8
REMARK    4  A    between atoms: C_8  and  C_9
REMARK    5  A    between atoms: C_8  and  C_16
REMARK    6  A    between atoms: C_9  and  C_10
REMARK    7  A    between atoms: C_26  and  C_27
REMARK                            x       y       z     vdW  Elec       q    Type
REMARK                         _______ _______ _______ _____ _____    ______ ____
ROOT
ATOM      1  C   UNL     1      38.763   3.189  14.269  0.00  0.00    +0.000 C 
ATOM      2  O   UNL     1      38.853   3.596  13.093  0.00  0.00    +0.000 OA
ATOM      3  N   UNL     1      38.837   4.054  15.333  0.00  0.00    +0.000 NA
ENDROOT
BRANCH   1   5
ATOM      4  C   UNL     1      37.342   1.203  14.750  0.00  0.00    +0.000 A 
ATOM      5  C   UNL     1      38.571   1.760  14.583  0.00  0.00    +0.000 A 
ATOM      6  C   UNL     1      39.708   0.982  14.684  0.00  0.00    +0.000 A 
ATOM      7  N   UNL     1      39.587  -0.349  14.953  0.00  0.00    +0.000 NA
ATOM      8  C   UNL     1      38.359  -0.829  15.104  0.00  0.00    +0.000 A 
ATOM      9  C   UNL     1      37.926  -2.120  15.385  0.00  0.00    +0.000 A 
ATOM     10  C   UNL     1      36.555  -2.145  15.456  0.00  0.00    +0.000 A 
ATOM     11  N   UNL     1      36.172  -0.869  15.218  0.00  0.00    +0.000 NA
ATOM     12  N   UNL     1      37.231  -0.103  15.014  0.00  0.00    +0.000 N 
BRANCH  10  13
ATOM     13  C   UNL     1      35.659  -3.309  15.730  0.00  0.00    +0.000 C 
ATOM     14  C   UNL     1      36.426  -4.306  16.578  0.00  0.00    +0.000 C 
ATOM     15  C   UNL     1      35.206  -3.989  14.478  0.00  0.00    +0.000 C 
ATOM     16  C   UNL     1      34.498  -2.812  16.583  0.00  0.00    +0.000 C 
ENDBRANCH  10  13
BRANCH   4  18
ATOM     17  C   UNL     1      35.741   2.415  16.087  0.00  0.00    +0.000 C 
ATOM     18  C   UNL     1      36.126   2.064  14.653  0.00  0.00    +0.000 C 
ENDBRANCH   4  18
ENDBRANCH   1   5
BRANCH   3  19
ATOM     19  C   UNL     1      39.041   5.609  15.110  0.00  0.00    +0.000 C 
BRANCH  19  20
ATOM     20  C   UNL     1      39.731   5.867  16.500  0.00  0.00    +0.000 A 
ATOM     21  C   UNL     1      40.965   6.300  16.692  0.00  0.00    +0.000 A 
ATOM     22  C   UNL     1      41.497   6.474  17.943  0.00  0.00    +0.000 A 
ATOM     23  C   UNL     1      40.714   6.189  19.030  0.00  0.00    +0.000 A 
ATOM     24  C   UNL     1      39.420   5.735  18.898  0.00  0.00    +0.000 A 
ATOM     25  C   UNL     1      38.936   5.576  17.583  0.00  0.00    +0.000 A 
ENDBRANCH  19  20
BRANCH  19  26
ATOM     26  C   UNL     1      37.495   6.012  15.458  0.00  0.00    +0.000 C 
BRANCH  26  27
ATOM     27  C   UNL     1      36.970   6.315  14.107  0.00  0.00    +0.000 A 
ATOM     28  C   UNL     1      37.604   7.409  13.475  0.00  0.00    +0.000 A 
ATOM     29  C   UNL     1      37.194   7.733  12.212  0.00  0.00    +0.000 A 
ATOM     30  C   UNL     1      36.206   7.050  11.550  0.00  0.00    +0.000 A 
ATOM     31  C   UNL     1      35.589   5.991  12.155  0.00  0.00    +0.000 A 
ATOM     32  C   UNL     1      35.993   5.653  13.426  0.00  0.00    +0.000 A 
ENDBRANCH  26  27
ENDBRANCH  19  26
ENDBRANCH   3  19
TORSDOF 7
ENDMDL
MODEL 10
REMARK VINA RESULT:      -6.9      3.721      6.180
REMARK  Name = 
REMARK  7 active torsions:
REMARK  status: ('A' for Active; 'I' for Inactive)
REMARK    1  A    between atoms: C_2  and  C_3
REMARK    2  A    between atoms: C_4  and  C_5
REMARK    3  A    between atoms: N_7  and  C_8
REMARK    4  A    between atoms: C_8  and  C_9
REMARK    5  A    between atoms: C_8  and  C_16
REMARK    6  A    between atoms: C_9  and  C_10
REMARK    7  A    between atoms: C_26  and  C_27
REMARK                            x       y       z     vdW  Elec       q    Type
REMARK                         _______ _______ _______ _____ _____    ______ ____
ROOT
ATOM      1  C   UNL     1      35.733   4.711  13.823  0.00  0.00    +0.000 C 
ATOM      2  O   UNL     1      36.271   4.625  12.700  0.00  0.00    +0.000 OA
ATOM      3  N   UNL     1      35.267   5.910  14.303  0.00  0.00    +0.000 NA
ENDROOT
BRANCH   1   5
ATOM      4  C   UNL     1      36.572   2.649  14.938  0.00  0.00    +0.000 A 
ATOM      5  C   UNL     1      35.566   3.533  14.696  0.00  0.00    +0.000 A 
ATOM      6  C   UNL     1      34.332   3.362  15.290  0.00  0.00    +0.000 A 
ATOM      7  N   UNL     1      34.129   2.300  16.121  0.00  0.00    +0.000 NA
ATOM      8  C   UNL     1      35.152   1.477  16.315  0.00  0.00    +0.000 A 
ATOM      9  C   UNL     1      35.246   0.326  17.090  0.00  0.00    +0.000 A 
ATOM     10  C   UNL     1      36.508  -0.205  16.981  0.00  0.00    +0.000 A 
ATOM     11  N   UNL     1      37.164   0.629  16.141  0.00  0.00    +0.000 NA
ATOM     12  N   UNL     1      36.366   1.611  15.754  0.00  0.00    +0.000 N 
BRANCH  10  13
ATOM     13  C   UNL     1      37.061  -1.429  17.635  0.00  0.00    +0.000 C 
ATOM     14  C   UNL     1      36.070  -2.560  17.434  0.00  0.00    +0.000 C 
ATOM     15  C   UNL     1      37.287  -1.241  19.101  0.00  0.00    +0.000 C 
ATOM     16  C   UNL     1      38.330  -1.822  16.890  0.00  0.00    +0.000 C 
ENDBRANCH  10  13
BRANCH   4  18
ATOM     17  C   UNL     1      38.778   3.561  15.288  0.00  0.00    +0.000 C 
ATOM     18  C   UNL     1      37.895   2.843  14.272  0.00  0.00    +0.000 C 
ENDBRANCH   4  18
ENDBRANCH   1   5
BRANCH   3  19
ATOM     19  C   UNL     1      35.394   7.238  13.448  0.00  0.00    +0.000 C 
BRANCH  19  20
ATOM     20  C   UNL     1      35.073   8.212  14.642  0.00  0.00    +0.000 A 
ATOM     21  C   UNL     1      35.946   8.950  15.304  0.00  0.00    +0.000 A 
ATOM     22  C   UNL     1      35.583   9.756  16.351  0.00  0.00    +0.000 A 
ATOM     23  C   UNL     1      34.264   9.793  16.718  0.00  0.00    +0.000 A 
ATOM     24  C   UNL     1      33.304   9.048  16.069  0.00  0.00    +0.000 A 
ATOM     25  C   UNL     1      33.747   8.240  15.001  0.00  0.00    +0.000 A 
ENDBRANCH  19  20
BRANCH  19  26
ATOM     26  C   UNL     1      33.918   7.110  12.755  0.00  0.00    +0.000 C 
BRANCH  26  27
ATOM     27  C   UNL     1      34.199   7.619  11.394  0.00  0.00    +0.000 A 
ATOM     28  C   UNL     1      34.532   8.992  11.350  0.00  0.00    +0.000 A 
ATOM     29  C   UNL     1      34.832   9.531  10.131  0.00  0.00    +0.000 A 
ATOM     30  C   UNL     1      34.821   8.801   8.969  0.00  0.00    +0.000 A 
ATOM     31  C   UNL     1      34.499   7.474   9.004  0.00  0.00    +0.000 A 
ATOM     32  C   UNL     1      34.195   6.918  10.225  0.00  0.00    +0.000 A 
ENDBRANCH  26  27
ENDBRANCH  19  26
ENDBRANCH   3  19
TORSDOF 7
ENDMDL
