MODEL 1
REMARK VINA RESULT:      -7.4      0.000      0.000
REMARK  Name = 
REMARK  3 active torsions:
REMARK  status: ('A' for Active; 'I' for Inactive)
REMARK    1  A    between atoms: C_4  and  C_5
REMARK    2  A    between atoms: N_7  and  N_8
REMARK    3  A    between atoms: C_9  and  C_10
REMARK                            x       y       z     vdW  Elec       q    Type
REMARK                         _______ _______ _______ _____ _____    ______ ____
ROOT
ATOM      1  N   UNL     1      15.363  12.092  36.667  0.00  0.00    +0.000 NA
ATOM      2  C   UNL     1      15.338  11.887  35.417  0.00  0.00    +0.000 C 
ENDROOT
BRANCH   2   3
ATOM      3  C   UNL     1      14.647  12.758  34.455  0.00  0.00    +0.000 A 
ATOM      4  C   UNL     1      13.836  13.817  34.748  0.00  0.00    +0.000 A 
ATOM      5  N   UNL     1      13.404  14.347  33.601  0.00  0.00    +0.000 NA
ATOM      6  C   UNL     1      13.921  13.651  32.574  0.00  0.00    +0.000 A 
ATOM      7  C   UNL     1      13.790  13.786  31.193  0.00  0.00    +0.000 A 
ATOM      8  C   UNL     1      14.444  12.916  30.357  0.00  0.00    +0.000 A 
ATOM      9  C   UNL     1      15.228  11.911  30.875  0.00  0.00    +0.000 A 
ATOM     10  C   UNL     1      15.380  11.751  32.235  0.00  0.00    +0.000 A 
ATOM     11  C   UNL     1      14.707  12.645  33.086  0.00  0.00    +0.000 A 
ENDBRANCH   2   3
BRANCH   1  14
ATOM     12  C   UNL     1      15.397  10.717  38.723  0.00  0.00    +0.000 C 
ATOM     13  O   UNL     1      14.184  10.956  38.916  0.00  0.00    +0.000 OA
ATOM     14  N   UNL     1      16.013  11.278  37.599  0.00  0.00    +0.000 NA
BRANCH  12  18
ATOM     15  C   UNL     1      15.950   7.961  42.922  0.00  0.00    +0.000 C 
ATOM     16  C   UNL     1      16.325   8.612  41.621  0.00  0.00    +0.000 A 
ATOM     17  C   UNL     1      15.582   9.390  40.796  0.00  0.00    +0.000 A 
ATOM     18  C   UNL     1      16.149   9.856  39.681  0.00  0.00    +0.000 A 
ATOM     19  C   UNL     1      17.465   9.497  39.466  0.00  0.00    +0.000 A 
ATOM     20  S   UNL     1      17.825   8.538  40.824  0.00  0.00    +0.000 S 
ENDBRANCH  12  18
ENDBRANCH   1  14
TORSDOF 3
ENDMDL
MODEL 2
REMARK VINA RESULT:      -7.2      1.693      2.370
REMARK  Name = 
REMARK  3 active torsions:
REMARK  status: ('A' for Active; 'I' for Inactive)
REMARK    1  A    between atoms: C_4  and  C_5
REMARK    2  A    between atoms: N_7  and  N_8
REMARK    3  A    between atoms: C_9  and  C_10
REMARK                            x       y       z     vdW  Elec       q    Type
REMARK                         _______ _______ _______ _____ _____    ______ ____
ROOT
ATOM      1  N   UNL     1      16.272  10.356  35.246  0.00  0.00    +0.000 NA
ATOM      2  C   UNL     1      16.884  10.797  34.228  0.00  0.00    +0.000 C 
ENDROOT
BRANCH   2   3
ATOM      3  C   UNL     1      16.226  11.143  32.959  0.00  0.00    +0.000 A 
ATOM      4  C   UNL     1      16.422  10.544  31.748  0.00  0.00    +0.000 A 
ATOM      5  N   UNL     1      15.639  11.146  30.849  0.00  0.00    +0.000 NA
ATOM      6  C   UNL     1      14.944  12.121  31.456  0.00  0.00    +0.000 A 
ATOM      7  C   UNL     1      14.003  13.035  30.982  0.00  0.00    +0.000 A 
ATOM      8  C   UNL     1      13.439  13.942  31.842  0.00  0.00    +0.000 A 
ATOM      9  C   UNL     1      13.795  13.956  33.170  0.00  0.00    +0.000 A 
ATOM     10  C   UNL     1      14.720  13.067  33.672  0.00  0.00    +0.000 A 
ATOM     11  C   UNL     1      15.296  12.139  32.786  0.00  0.00    +0.000 A 
ENDBRANCH   2   3
BRANCH   1  14
ATOM     12  C   UNL     1      16.460  10.497  37.709  0.00  0.00    +0.000 C 
ATOM     13  O   UNL     1      15.482  11.277  37.749  0.00  0.00    +0.000 OA
ATOM     14  N   UNL     1      16.876  10.020  36.461  0.00  0.00    +0.000 NA
BRANCH  12  18
ATOM     15  C   UNL     1      16.657   9.063  42.550  0.00  0.00    +0.000 C 
ATOM     16  C   UNL     1      17.160   9.447  41.186  0.00  0.00    +0.000 A 
ATOM     17  C   UNL     1      16.466   9.800  40.076  0.00  0.00    +0.000 A 
ATOM     18  C   UNL     1      17.150  10.100  38.970  0.00  0.00    +0.000 A 
ATOM     19  C   UNL     1      18.526  10.023  39.059  0.00  0.00    +0.000 A 
ATOM     20  S   UNL     1      18.777   9.538  40.670  0.00  0.00    +0.000 S 
ENDBRANCH  12  18
ENDBRANCH   1  14
TORSDOF 3
ENDMDL
MODEL 3
REMARK VINA RESULT:      -7.0      3.249      8.723
REMARK  Name = 
REMARK  3 active torsions:
REMARK  status: ('A' for Active; 'I' for Inactive)
REMARK    1  A    between atoms: C_4  and  C_5
REMARK    2  A    between atoms: N_7  and  N_8
REMARK    3  A    between atoms: C_9  and  C_10
REMARK                            x       y       z     vdW  Elec       q    Type
REMARK                         _______ _______ _______ _____ _____    ______ ____
ROOT
ATOM      1  N   UNL     1      16.873  10.210  36.803  0.00  0.00    +0.000 NA
ATOM      2  C   UNL     1      17.653  10.827  37.589  0.00  0.00    +0.000 C 
ENDROOT
BRANCH   2   3
ATOM      3  C   UNL     1      18.259  10.227  38.786  0.00  0.00    +0.000 A 
ATOM      4  C   UNL     1      19.590  10.016  39.009  0.00  0.00    +0.000 A 
ATOM      5  N   UNL     1      19.731   9.451  40.211  0.00  0.00    +0.000 NA
ATOM      6  C   UNL     1      18.518   9.293  40.766  0.00  0.00    +0.000 A 
ATOM      7  C   UNL     1      18.111   8.762  41.989  0.00  0.00    +0.000 A 
ATOM      8  C   UNL     1      16.776   8.722  42.306  0.00  0.00    +0.000 A 
ATOM      9  C   UNL     1      15.837   9.204  41.424  0.00  0.00    +0.000 A 
ATOM     10  C   UNL     1      16.205   9.736  40.208  0.00  0.00    +0.000 A 
ATOM     11  C   UNL     1      17.574   9.774  39.888  0.00  0.00    +0.000 A 
ENDBRANCH   2   3
BRANCH   1  14
ATOM     12  C   UNL     1      16.709  10.503  34.352  0.00  0.00    +0.000 C 
ATOM     13  O   UNL     1      17.678   9.729  34.185  0.00  0.00    +0.000 OA
ATOM     14  N   UNL     1      16.286  10.761  35.661  0.00  0.00    +0.000 NA
BRANCH  12  18
ATOM     15  C   UNL     1      13.716  13.859  32.047  0.00  0.00    +0.000 C 
ATOM     16  C   UNL     1      14.654  12.693  32.192  0.00  0.00    +0.000 A 
ATOM     17  C   UNL     1      15.230  12.179  33.307  0.00  0.00    +0.000 A 
ATOM     18  C   UNL     1      16.038  11.125  33.174  0.00  0.00    +0.000 A 
ATOM     19  C   UNL     1      16.215  10.644  31.892  0.00  0.00    +0.000 A 
ATOM     20  S   UNL     1      15.251  11.689  30.957  0.00  0.00    +0.000 S 
ENDBRANCH  12  18
ENDBRANCH   1  14
TORSDOF 3
ENDMDL
MODEL 4
REMARK VINA RESULT:      -6.6     21.158     23.314
REMARK  Name = 
REMARK  3 active torsions:
REMARK  status: ('A' for Active; 'I' for Inactive)
REMARK    1  A    between atoms: C_4  and  C_5
REMARK    2  A    between atoms: N_7  and  N_8
REMARK    3  A    between atoms: C_9  and  C_10
REMARK                            x       y       z     vdW  Elec       q    Type
REMARK                         _______ _______ _______ _____ _____    ______ ____
ROOT
ATOM      1  N   UNL     1      33.762  -1.709  34.033  0.00  0.00    +0.000 NA
ATOM      2  C   UNL     1      33.438  -0.495  33.865  0.00  0.00    +0.000 C 
ENDROOT
BRANCH   2   3
ATOM      3  C   UNL     1      33.657   0.561  34.864  0.00  0.00    +0.000 A 
ATOM      4  C   UNL     1      33.907   0.386  36.195  0.00  0.00    +0.000 A 
ATOM      5  N   UNL     1      34.048   1.588  36.759  0.00  0.00    +0.000 NA
ATOM      6  C   UNL     1      33.892   2.534  35.818  0.00  0.00    +0.000 A 
ATOM      7  C   UNL     1      33.940   3.927  35.874  0.00  0.00    +0.000 A 
ATOM      8  C   UNL     1      33.740   4.663  34.734  0.00  0.00    +0.000 A 
ATOM      9  C   UNL     1      33.494   4.036  33.535  0.00  0.00    +0.000 A 
ATOM     10  C   UNL     1      33.440   2.662  33.444  0.00  0.00    +0.000 A 
ATOM     11  C   UNL     1      33.646   1.912  34.616  0.00  0.00    +0.000 A 
ENDBRANCH   2   3
BRANCH   1  14
ATOM     12  C   UNL     1      33.468  -4.087  33.418  0.00  0.00    +0.000 C 
ATOM     13  O   UNL     1      33.568  -4.421  34.620  0.00  0.00    +0.000 OA
ATOM     14  N   UNL     1      33.563  -2.728  33.098  0.00  0.00    +0.000 NA
BRANCH  12  18
ATOM     15  C   UNL     1      33.599  -5.919  28.711  0.00  0.00    +0.000 C 
ATOM     16  C   UNL     1      33.346  -5.894  30.192  0.00  0.00    +0.000 A 
ATOM     17  C   UNL     1      33.566  -4.903  31.091  0.00  0.00    +0.000 A 
ATOM     18  C   UNL     1      33.255  -5.126  32.370  0.00  0.00    +0.000 A 
ATOM     19  C   UNL     1      32.726  -6.367  32.665  0.00  0.00    +0.000 A 
ATOM     20  S   UNL     1      32.698  -7.140  31.150  0.00  0.00    +0.000 S 
ENDBRANCH  12  18
ENDBRANCH   1  14
TORSDOF 3
ENDMDL
MODEL 5
REMARK VINA RESULT:      -6.5     22.950     26.230
REMARK  Name = 
REMARK  3 active torsions:
REMARK  status: ('A' for Active; 'I' for Inactive)
REMARK    1  A    between atoms: C_4  and  C_5
REMARK    2  A    between atoms: N_7  and  N_8
REMARK    3  A    between atoms: C_9  and  C_10
REMARK                            x       y       z     vdW  Elec       q    Type
REMARK                         _______ _______ _______ _____ _____    ______ ____
ROOT
ATOM      1  N   UNL     1      29.227  25.391  21.376  0.00  0.00    +0.000 NA
ATOM      2  C   UNL     1      28.912  24.190  21.628  0.00  0.00    +0.000 C 
ENDROOT
BRANCH   2   3
ATOM      3  C   UNL     1      28.346  23.739  22.908  0.00  0.00    +0.000 A 
ATOM      4  C   UNL     1      27.023  23.686  23.242  0.00  0.00    +0.000 A 
ATOM      5  N   UNL     1      26.923  23.221  24.490  0.00  0.00    +0.000 NA
ATOM      6  C   UNL     1      28.154  22.974  24.967  0.00  0.00    +0.000 A 
ATOM      7  C   UNL     1      28.603  22.487  26.194  0.00  0.00    +0.000 A 
ATOM      8  C   UNL     1      29.947  22.330  26.416  0.00  0.00    +0.000 A 
ATOM      9  C   UNL     1      30.856  22.650  25.434  0.00  0.00    +0.000 A 
ATOM     10  C   UNL     1      30.447  23.133  24.210  0.00  0.00    +0.000 A 
ATOM     11  C   UNL     1      29.068  23.292  23.988  0.00  0.00    +0.000 A 
ENDBRANCH   2   3
BRANCH   1  14
ATOM     12  C   UNL     1      29.773  27.179  19.755  0.00  0.00    +0.000 C 
ATOM     13  O   UNL     1      29.264  28.035  20.512  0.00  0.00    +0.000 OA
ATOM     14  N   UNL     1      29.766  25.842  20.168  0.00  0.00    +0.000 NA
BRANCH  12  18
ATOM     15  C   UNL     1      29.640  28.295  14.829  0.00  0.00    +0.000 C 
ATOM     16  C   UNL     1      30.225  28.089  16.198  0.00  0.00    +0.000 A 
ATOM     17  C   UNL     1      29.619  27.706  17.349  0.00  0.00    +0.000 A 
ATOM     18  C   UNL     1      30.365  27.593  18.451  0.00  0.00    +0.000 A 
ATOM     19  C   UNL     1      31.709  27.880  18.314  0.00  0.00    +0.000 A 
ATOM     20  S   UNL     1      31.846  28.288  16.668  0.00  0.00    +0.000 S 
ENDBRANCH  12  18
ENDBRANCH   1  14
TORSDOF 3
ENDMDL
MODEL 6
REMARK VINA RESULT:      -6.5     22.514     24.044
REMARK  Name = 
REMARK  3 active torsions:
REMARK  status: ('A' for Active; 'I' for Inactive)
REMARK    1  A    between atoms: C_4  and  C_5
REMARK    2  A    between atoms: N_7  and  N_8
REMARK    3  A    between atoms: C_9  and  C_10
REMARK                            x       y       z     vdW  Elec       q    Type
REMARK                         _______ _______ _______ _____ _____    ______ ____
ROOT
ATOM      1  N   UNL     1      22.010  -7.353  25.437  0.00  0.00    +0.000 NA
ATOM      2  C   UNL     1      21.243  -6.376  25.182  0.00  0.00    +0.000 C 
ENDROOT
BRANCH   2   3
ATOM      3  C   UNL     1      19.903  -6.210  25.763  0.00  0.00    +0.000 A 
ATOM      4  C   UNL     1      19.363  -5.055  26.253  0.00  0.00    +0.000 A 
ATOM      5  N   UNL     1      18.129  -5.319  26.689  0.00  0.00    +0.000 NA
ATOM      6  C   UNL     1      17.863  -6.621  26.491  0.00  0.00    +0.000 A 
ATOM      7  C   UNL     1      16.738  -7.399  26.763  0.00  0.00    +0.000 A 
ATOM      8  C   UNL     1      16.739  -8.734  26.450  0.00  0.00    +0.000 A 
ATOM      9  C   UNL     1      17.844  -9.311  25.868  0.00  0.00    +0.000 A 
ATOM     10  C   UNL     1      18.972  -8.572  25.585  0.00  0.00    +0.000 A 
ATOM     11  C   UNL     1      18.965  -7.204  25.908  0.00  0.00    +0.000 A 
ENDBRANCH   2   3
BRANCH   1  14
ATOM     12  C   UNL     1      23.751  -8.731  24.347  0.00  0.00    +0.000 C 
ATOM     13  O   UNL     1      22.980  -9.716  24.336  0.00  0.00    +0.000 OA
ATOM     14  N   UNL     1      23.286  -7.531  24.896  0.00  0.00    +0.000 NA
BRANCH  12  18
ATOM     15  C   UNL     1      27.897  -7.039  22.006  0.00  0.00    +0.000 C 
ATOM     16  C   UNL     1      26.988  -8.009  22.707  0.00  0.00    +0.000 A 
ATOM     17  C   UNL     1      25.737  -7.824  23.195  0.00  0.00    +0.000 A 
ATOM     18  C   UNL     1      25.128  -8.855  23.786  0.00  0.00    +0.000 A 
ATOM     19  C   UNL     1      25.840 -10.036  23.847  0.00  0.00    +0.000 A 
ATOM     20  S   UNL     1      27.307  -9.636  23.082  0.00  0.00    +0.000 S 
ENDBRANCH  12  18
ENDBRANCH   1  14
TORSDOF 3
ENDMDL
MODEL 7
REMARK VINA RESULT:      -6.4      3.399      4.636
REMARK  Name = 
REMARK  3 active torsions:
REMARK  status: ('A' for Active; 'I' for Inactive)
REMARK    1  A    between atoms: C_4  and  C_5
REMARK    2  A    between atoms: N_7  and  N_8
REMARK    3  A    between atoms: C_9  and  C_10
REMARK                            x       y       z     vdW  Elec       q    Type
REMARK                         _______ _______ _______ _____ _____    ______ ____
ROOT
ATOM      1  N   UNL     1      16.375  10.057  39.463  0.00  0.00    +0.000 NA
ATOM      2  C   UNL     1      16.495  10.288  38.223  0.00  0.00    +0.000 C 
ENDROOT
BRANCH   2   3
ATOM      3  C   UNL     1      15.726  11.310  37.498  0.00  0.00    +0.000 A 
ATOM      4  C   UNL     1      16.231  12.323  36.734  0.00  0.00    +0.000 A 
ATOM      5  N   UNL     1      15.210  13.033  36.248  0.00  0.00    +0.000 NA
ATOM      6  C   UNL     1      14.058  12.499  36.684  0.00  0.00    +0.000 A 
ATOM      7  C   UNL     1      12.725  12.850  36.474  0.00  0.00    +0.000 A 
ATOM      8  C   UNL     1      11.725  12.112  37.055  0.00  0.00    +0.000 A 
ATOM      9  C   UNL     1      12.029  11.027  37.843  0.00  0.00    +0.000 A 
ATOM     10  C   UNL     1      13.335  10.652  38.071  0.00  0.00    +0.000 A 
ATOM     11  C   UNL     1      14.356  11.412  37.473  0.00  0.00    +0.000 A 
ENDBRANCH   2   3
BRANCH   1  14
ATOM     12  C   UNL     1      16.522   8.167  41.053  0.00  0.00    +0.000 C 
ATOM     13  O   UNL     1      15.283   8.202  41.225  0.00  0.00    +0.000 OA
ATOM     14  N   UNL     1      17.095   9.091  40.172  0.00  0.00    +0.000 NA
BRANCH  12  18
ATOM     15  C   UNL     1      19.253   3.935  41.455  0.00  0.00    +0.000 C 
ATOM     16  C   UNL     1      18.584   5.210  41.884  0.00  0.00    +0.000 A 
ATOM     17  C   UNL     1      17.841   6.083  41.162  0.00  0.00    +0.000 A 
ATOM     18  C   UNL     1      17.349   7.160  41.779  0.00  0.00    +0.000 A 
ATOM     19  C   UNL     1      17.646   7.287  43.121  0.00  0.00    +0.000 A 
ATOM     20  S   UNL     1      18.589   5.906  43.435  0.00  0.00    +0.000 S 
ENDBRANCH  12  18
ENDBRANCH   1  14
TORSDOF 3
ENDMDL
MODEL 8
REMARK VINA RESULT:      -6.3     22.465     24.430
REMARK  Name = 
REMARK  3 active torsions:
REMARK  status: ('A' for Active; 'I' for Inactive)
REMARK    1  A    between atoms: C_4  and  C_5
REMARK    2  A    between atoms: N_7  and  N_8
REMARK    3  A    between atoms: C_9  and  C_10
REMARK                            x       y       z     vdW  Elec       q    Type
REMARK                         _______ _______ _______ _____ _____    ______ ____
ROOT
ATOM      1  N   UNL     1      33.339  -3.613  33.119  0.00  0.00    +0.000 NA
ATOM      2  C   UNL     1      33.745  -4.201  32.072  0.00  0.00    +0.000 C 
ENDROOT
BRANCH   2   3
ATOM      3  C   UNL     1      33.443  -5.602  31.747  0.00  0.00    +0.000 A 
ATOM      4  C   UNL     1      33.020  -6.569  32.614  0.00  0.00    +0.000 A 
ATOM      5  N   UNL     1      32.857  -7.705  31.931  0.00  0.00    +0.000 NA
ATOM      6  C   UNL     1      33.167  -7.490  30.641  0.00  0.00    +0.000 A 
ATOM      7  C   UNL     1      33.168  -8.328  29.527  0.00  0.00    +0.000 A 
ATOM      8  C   UNL     1      33.539  -7.834  28.302  0.00  0.00    +0.000 A 
ATOM      9  C   UNL     1      33.910  -6.516  28.167  0.00  0.00    +0.000 A 
ATOM     10  C   UNL     1      33.920  -5.661  29.247  0.00  0.00    +0.000 A 
ATOM     11  C   UNL     1      33.539  -6.173  30.500  0.00  0.00    +0.000 A 
ENDBRANCH   2   3
BRANCH   1  14
ATOM     12  C   UNL     1      32.876  -1.528  34.367  0.00  0.00    +0.000 C 
ATOM     13  O   UNL     1      31.903  -2.072  34.936  0.00  0.00    +0.000 OA
ATOM     14  N   UNL     1      33.614  -2.283  33.448  0.00  0.00    +0.000 NA
BRANCH  12  18
ATOM     15  C   UNL     1      33.545   3.354  33.249  0.00  0.00    +0.000 C 
ATOM     16  C   UNL     1      33.508   2.107  34.086  0.00  0.00    +0.000 A 
ATOM     17  C   UNL     1      33.180   0.839  33.736  0.00  0.00    +0.000 A 
ATOM     18  C   UNL     1      33.223  -0.110  34.674  0.00  0.00    +0.000 A 
ATOM     19  C   UNL     1      33.607   0.293  35.937  0.00  0.00    +0.000 A 
ATOM     20  S   UNL     1      33.879   1.961  35.739  0.00  0.00    +0.000 S 
ENDBRANCH  12  18
ENDBRANCH   1  14
TORSDOF 3
ENDMDL
MODEL 9
REMARK VINA RESULT:      -6.2      1.976      2.684
REMARK  Name = 
REMARK  3 active torsions:
REMARK  status: ('A' for Active; 'I' for Inactive)
REMARK    1  A    between atoms: C_4  and  C_5
REMARK    2  A    between atoms: N_7  and  N_8
REMARK    3  A    between atoms: C_9  and  C_10
REMARK                            x       y       z     vdW  Elec       q    Type
REMARK                         _______ _______ _______ _____ _____    ______ ____
ROOT
ATOM      1  N   UNL     1      16.655  10.346  38.159  0.00  0.00    +0.000 NA
ATOM      2  C   UNL     1      16.887  10.429  36.916  0.00  0.00    +0.000 C 
ENDROOT
BRANCH   2   3
ATOM      3  C   UNL     1      16.095  11.246  35.985  0.00  0.00    +0.000 A 
ATOM      4  C   UNL     1      15.192  12.216  36.315  0.00  0.00    +0.000 A 
ATOM      5  N   UNL     1      14.687  12.723  35.187  0.00  0.00    +0.000 NA
ATOM      6  C   UNL     1      15.246  12.099  34.137  0.00  0.00    +0.000 A 
ATOM      7  C   UNL     1      15.074  12.245  32.762  0.00  0.00    +0.000 A 
ATOM      8  C   UNL     1      15.791  11.457  31.897  0.00  0.00    +0.000 A 
ATOM      9  C   UNL     1      16.679  10.524  32.379  0.00  0.00    +0.000 A 
ATOM     10  C   UNL     1      16.874  10.355  33.732  0.00  0.00    +0.000 A 
ATOM     11  C   UNL     1      16.137  11.164  34.614  0.00  0.00    +0.000 A 
ENDBRANCH   2   3
BRANCH   1  14
ATOM     12  C   UNL     1      16.918   9.141  40.304  0.00  0.00    +0.000 C 
ATOM     13  O   UNL     1      15.756   9.460  40.638  0.00  0.00    +0.000 OA
ATOM     14  N   UNL     1      17.394   9.575  39.062  0.00  0.00    +0.000 NA
BRANCH  12  18
ATOM     15  C   UNL     1      17.794   5.363  43.542  0.00  0.00    +0.000 C 
ATOM     16  C   UNL     1      18.083   6.570  42.696  0.00  0.00    +0.000 A 
ATOM     17  C   UNL     1      17.260   7.271  41.878  0.00  0.00    +0.000 A 
ATOM     18  C   UNL     1      17.760   8.320  41.222  0.00  0.00    +0.000 A 
ATOM     19  C   UNL     1      19.094   8.602  41.441  0.00  0.00    +0.000 A 
ATOM     20  S   UNL     1      19.564   7.392  42.540  0.00  0.00    +0.000 S 
ENDBRANCH  12  18
ENDBRANCH   1  14
TORSDOF 3
ENDMDL
MODEL 10
REMARK VINA RESULT:      -6.0     23.518     26.061
REMARK  Name = 
REMARK  3 active torsions:
REMARK  status: ('A' for Active; 'I' for Inactive)
REMARK    1  A    between atoms: C_4  and  C_5
REMARK    2  A    between atoms: N_7  and  N_8
REMARK    3  A    between atoms: C_9  and  C_10
REMARK                            x       y       z     vdW  Elec       q    Type
REMARK                         _______ _______ _______ _____ _____    ______ ____
ROOT
ATOM      1  N   UNL     1      29.761  25.597  19.711  0.00  0.00    +0.000 NA
ATOM      2  C   UNL     1      29.996  26.839  19.606  0.00  0.00    +0.000 C 
ENDROOT
BRANCH   2   3
ATOM      3  C   UNL     1      30.145  27.541  18.324  0.00  0.00    +0.000 A 
ATOM      4  C   UNL     1      31.236  27.519  17.502  0.00  0.00    +0.000 A 
ATOM      5  N   UNL     1      30.976  28.283  16.437  0.00  0.00    +0.000 NA
ATOM      6  C   UNL     1      29.741  28.798  16.557  0.00  0.00    +0.000 A 
ATOM      7  C   UNL     1      28.997  29.645  15.738  0.00  0.00    +0.000 A 
ATOM      8  C   UNL     1      27.732  30.021  16.114  0.00  0.00    +0.000 A 
ATOM      9  C   UNL     1      27.193  29.566  17.294  0.00  0.00    +0.000 A 
ATOM     10  C   UNL     1      27.901  28.726  18.127  0.00  0.00    +0.000 A 
ATOM     11  C   UNL     1      29.197  28.345  17.737  0.00  0.00    +0.000 A 
ENDBRANCH   2   3
BRANCH   1  14
ATOM     12  C   UNL     1      28.426  24.838  21.650  0.00  0.00    +0.000 C 
ATOM     13  O   UNL     1      27.418  25.427  21.200  0.00  0.00    +0.000 OA
ATOM     14  N   UNL     1      29.617  24.909  20.919  0.00  0.00    +0.000 NA
BRANCH  12  18
ATOM     15  C   UNL     1      30.292  22.178  25.520  0.00  0.00    +0.000 C 
ATOM     16  C   UNL     1      29.265  22.875  24.671  0.00  0.00    +0.000 A 
ATOM     17  C   UNL     1      29.419  23.545  23.503  0.00  0.00    +0.000 A 
ATOM     18  C   UNL     1      28.339  24.085  22.935  0.00  0.00    +0.000 A 
ATOM     19  C   UNL     1      27.142  23.908  23.600  0.00  0.00    +0.000 A 
ATOM     20  S   UNL     1      27.597  23.006  24.969  0.00  0.00    +0.000 S 
ENDBRANCH  12  18
ENDBRANCH   1  14
TORSDOF 3
ENDMDL
