MODEL 1
REMARK VINA RESULT:      -8.2      0.000      0.000
REMARK  Name = 
REMARK  6 active torsions:
REMARK  status: ('A' for Active; 'I' for Inactive)
REMARK    1  A    between atoms: C_4  and  S_5
REMARK    2  A    between atoms: S_5  and  C_6
REMARK    3  A    between atoms: C_6  and  C_7
REMARK    4  A    between atoms: C_7  and  C_9
REMARK    5  A    between atoms: C_23  and  C_24
REMARK    6  A    between atoms: C_24  and  C_25
REMARK                            x       y       z     vdW  Elec       q    Type
REMARK                         _______ _______ _______ _____ _____    ______ ____
ROOT
ATOM      1  C   UNL     1      38.747   4.651  13.484  0.00  0.00    +0.000 C 
ENDROOT
BRANCH   1   2
ATOM      2  C   UNL     1      38.777   5.963  14.266  0.00  0.00    +0.000 C 
ATOM      3  O   UNL     1      38.982   6.938  13.550  0.00  0.00    +0.000 OA
BRANCH   2   4
ATOM      4  C   UNL     1      38.578   5.920  15.653  0.00  0.00    +0.000 C 
ATOM      5  C   UNL     1      39.463   6.067  16.593  0.00  0.00    +0.000 C 
ATOM      6  N   UNL     1      40.843   6.307  16.435  0.00  0.00    +0.000 N 
ATOM      7  C   UNL     1      41.566   6.429  15.172  0.00  0.00    +0.000 C 
ATOM      8  C   UNL     1      41.466   6.417  17.721  0.00  0.00    +0.000 A 
ATOM      9  C   UNL     1      42.759   6.647  18.068  0.00  0.00    +0.000 A 
ATOM     10  C   UNL     1      43.168   6.724  19.395  0.00  0.00    +0.000 A 
ATOM     11  C   UNL     1      42.209   6.560  20.364  0.00  0.00    +0.000 A 
ATOM     12  C   UNL     1      40.902   6.329  20.013  0.00  0.00    +0.000 A 
ATOM     13  C   UNL     1      40.507   6.253  18.673  0.00  0.00    +0.000 A 
ATOM     14  C   UNL     1      39.186   6.013  18.075  0.00  0.00    +0.000 C 
ATOM     15  C   UNL     1      38.617   4.661  18.447  0.00  0.00    +0.000 C 
ATOM     16  C   UNL     1      38.205   7.087  18.474  0.00  0.00    +0.000 C 
ENDBRANCH   2   4
ENDBRANCH   1   2
BRANCH   1  17
ATOM     17  S   UNL     1      39.401   3.292  14.433  0.00  0.00    +0.000 S 
BRANCH  17  21
ATOM     18  C   UNL     1      34.860   1.742  16.623  0.00  0.00    +0.000 C 
ATOM     19  C   UNL     1      36.190   1.651  15.960  0.00  0.00    +0.000 A 
ATOM     20  N   UNL     1      36.982   2.676  15.607  0.00  0.00    +0.000 NA
ATOM     21  C   UNL     1      38.108   2.224  15.032  0.00  0.00    +0.000 A 
ATOM     22  N   UNL     1      38.003   0.888  15.034  0.00  0.00    +0.000 NA
ATOM     23  C   UNL     1      36.846   0.499  15.591  0.00  0.00    +0.000 A 
BRANCH  23  24
ATOM     24  C   UNL     1      36.294  -0.854  15.812  0.00  0.00    +0.000 C 
BRANCH  24  25
ATOM     25  C   UNL     1      37.066  -1.485  16.930  0.00  0.00    +0.000 A 
ATOM     26  C   UNL     1      36.853  -1.145  18.248  0.00  0.00    +0.000 A 
ATOM     27  C   UNL     1      37.557  -1.718  19.284  0.00  0.00    +0.000 A 
ATOM     28  C   UNL     1      38.524  -2.675  19.025  0.00  0.00    +0.000 A 
ATOM     29  C   UNL     1      38.733  -3.013  17.702  0.00  0.00    +0.000 A 
ATOM     30  C   UNL     1      38.031  -2.442  16.665  0.00  0.00    +0.000 A 
ENDBRANCH  24  25
ENDBRANCH  23  24
ENDBRANCH  17  21
ENDBRANCH   1  17
TORSDOF 6
ENDMDL
MODEL 2
REMARK VINA RESULT:      -8.2      2.121      8.455
REMARK  Name = 
REMARK  6 active torsions:
REMARK  status: ('A' for Active; 'I' for Inactive)
REMARK    1  A    between atoms: C_4  and  S_5
REMARK    2  A    between atoms: S_5  and  C_6
REMARK    3  A    between atoms: C_6  and  C_7
REMARK    4  A    between atoms: C_7  and  C_9
REMARK    5  A    between atoms: C_23  and  C_24
REMARK    6  A    between atoms: C_24  and  C_25
REMARK                            x       y       z     vdW  Elec       q    Type
REMARK                         _______ _______ _______ _____ _____    ______ ____
ROOT
ATOM      1  C   UNL     1      37.578   3.402  15.061  0.00  0.00    +0.000 C 
ENDROOT
BRANCH   1   2
ATOM      2  C   UNL     1      36.696   2.239  14.610  0.00  0.00    +0.000 C 
ATOM      3  O   UNL     1      36.461   2.261  13.406  0.00  0.00    +0.000 OA
BRANCH   2   4
ATOM      4  C   UNL     1      36.268   1.313  15.571  0.00  0.00    +0.000 C 
ATOM      5  C   UNL     1      36.837   0.196  15.915  0.00  0.00    +0.000 C 
ATOM      6  N   UNL     1      38.029  -0.348  15.396  0.00  0.00    +0.000 N 
ATOM      7  C   UNL     1      38.868   0.230  14.351  0.00  0.00    +0.000 C 
ATOM      8  C   UNL     1      38.319  -1.591  16.051  0.00  0.00    +0.000 A 
ATOM      9  C   UNL     1      39.348  -2.463  15.891  0.00  0.00    +0.000 A 
ATOM     10  C   UNL     1      39.453  -3.630  16.640  0.00  0.00    +0.000 A 
ATOM     11  C   UNL     1      38.468  -3.881  17.563  0.00  0.00    +0.000 A 
ATOM     12  C   UNL     1      37.428  -2.999  17.725  0.00  0.00    +0.000 A 
ATOM     13  C   UNL     1      37.336  -1.829  16.963  0.00  0.00    +0.000 A 
ATOM     14  C   UNL     1      36.327  -0.762  16.963  0.00  0.00    +0.000 C 
ATOM     15  C   UNL     1      34.951  -1.264  16.582  0.00  0.00    +0.000 C 
ATOM     16  C   UNL     1      36.248  -0.087  18.310  0.00  0.00    +0.000 C 
ENDBRANCH   2   4
ENDBRANCH   1   2
BRANCH   1  17
ATOM     17  S   UNL     1      37.252   3.874  16.748  0.00  0.00    +0.000 S 
BRANCH  17  21
ATOM     18  C   UNL     1      41.688   6.711  17.057  0.00  0.00    +0.000 C 
ATOM     19  C   UNL     1      40.464   5.986  17.496  0.00  0.00    +0.000 A 
ATOM     20  N   UNL     1      39.586   5.345  16.709  0.00  0.00    +0.000 NA
ATOM     21  C   UNL     1      38.601   4.804  17.444  0.00  0.00    +0.000 A 
ATOM     22  N   UNL     1      38.885   5.122  18.715  0.00  0.00    +0.000 NA
ATOM     23  C   UNL     1      40.013   5.843  18.788  0.00  0.00    +0.000 A 
BRANCH  23  24
ATOM     24  C   UNL     1      40.714   6.415  19.958  0.00  0.00    +0.000 C 
BRANCH  24  25
ATOM     25  C   UNL     1      40.137   7.774  20.215  0.00  0.00    +0.000 A 
ATOM     26  C   UNL     1      38.810   7.955  20.541  0.00  0.00    +0.000 A 
ATOM     27  C   UNL     1      38.270   9.199  20.780  0.00  0.00    +0.000 A 
ATOM     28  C   UNL     1      39.062  10.332  20.696  0.00  0.00    +0.000 A 
ATOM     29  C   UNL     1      40.391  10.145  20.368  0.00  0.00    +0.000 A 
ATOM     30  C   UNL     1      40.934   8.903  20.129  0.00  0.00    +0.000 A 
ENDBRANCH  24  25
ENDBRANCH  23  24
ENDBRANCH  17  21
ENDBRANCH   1  17
TORSDOF 6
ENDMDL
MODEL 3
REMARK VINA RESULT:      -7.9      1.171      2.146
REMARK  Name = 
REMARK  6 active torsions:
REMARK  status: ('A' for Active; 'I' for Inactive)
REMARK    1  A    between atoms: C_4  and  S_5
REMARK    2  A    between atoms: S_5  and  C_6
REMARK    3  A    between atoms: C_6  and  C_7
REMARK    4  A    between atoms: C_7  and  C_9
REMARK    5  A    between atoms: C_23  and  C_24
REMARK    6  A    between atoms: C_24  and  C_25
REMARK                            x       y       z     vdW  Elec       q    Type
REMARK                         _______ _______ _______ _____ _____    ______ ____
ROOT
ATOM      1  C   UNL     1      38.716   4.322  13.459  0.00  0.00    +0.000 C 
ENDROOT
BRANCH   1   2
ATOM      2  C   UNL     1      38.876   5.652  14.193  0.00  0.00    +0.000 C 
ATOM      3  O   UNL     1      39.200   6.570  13.446  0.00  0.00    +0.000 OA
BRANCH   2   4
ATOM      4  C   UNL     1      38.648   5.685  15.575  0.00  0.00    +0.000 C 
ATOM      5  C   UNL     1      39.510   5.902  16.523  0.00  0.00    +0.000 C 
ATOM      6  N   UNL     1      40.888   6.158  16.380  0.00  0.00    +0.000 N 
ATOM      7  C   UNL     1      41.637   6.221  15.128  0.00  0.00    +0.000 C 
ATOM      8  C   UNL     1      41.482   6.353  17.670  0.00  0.00    +0.000 A 
ATOM      9  C   UNL     1      42.763   6.626  18.030  0.00  0.00    +0.000 A 
ATOM     10  C   UNL     1      43.142   6.787  19.358  0.00  0.00    +0.000 A 
ATOM     11  C   UNL     1      42.165   6.661  20.315  0.00  0.00    +0.000 A 
ATOM     12  C   UNL     1      40.870   6.385  19.952  0.00  0.00    +0.000 A 
ATOM     13  C   UNL     1      40.505   6.225  18.610  0.00  0.00    +0.000 A 
ATOM     14  C   UNL     1      39.202   5.927  18.000  0.00  0.00    +0.000 C 
ATOM     15  C   UNL     1      38.649   4.589  18.438  0.00  0.00    +0.000 C 
ATOM     16  C   UNL     1      38.194   7.004  18.317  0.00  0.00    +0.000 C 
ENDBRANCH   2   4
ENDBRANCH   1   2
BRANCH   1  17
ATOM     17  S   UNL     1      40.061   3.204  13.800  0.00  0.00    +0.000 S 
BRANCH  17  21
ATOM     18  C   UNL     1      40.100  -1.895  15.154  0.00  0.00    +0.000 C 
ATOM     19  C   UNL     1      39.567  -0.544  14.827  0.00  0.00    +0.000 A 
ATOM     20  N   UNL     1      40.283   0.543  14.495  0.00  0.00    +0.000 NA
ATOM     21  C   UNL     1      39.473   1.589  14.265  0.00  0.00    +0.000 A 
ATOM     22  N   UNL     1      38.229   1.130  14.460  0.00  0.00    +0.000 NA
ATOM     23  C   UNL     1      38.244  -0.166  14.805  0.00  0.00    +0.000 A 
BRANCH  23  24
ATOM     24  C   UNL     1      37.133  -1.090  15.118  0.00  0.00    +0.000 C 
BRANCH  24  25
ATOM     25  C   UNL     1      36.670  -0.791  16.511  0.00  0.00    +0.000 A 
ATOM     26  C   UNL     1      37.273  -1.349  17.617  0.00  0.00    +0.000 A 
ATOM     27  C   UNL     1      36.856  -1.082  18.902  0.00  0.00    +0.000 A 
ATOM     28  C   UNL     1      35.793  -0.223  19.126  0.00  0.00    +0.000 A 
ATOM     29  C   UNL     1      35.192   0.334  18.014  0.00  0.00    +0.000 A 
ATOM     30  C   UNL     1      35.606   0.068  16.729  0.00  0.00    +0.000 A 
ENDBRANCH  24  25
ENDBRANCH  23  24
ENDBRANCH  17  21
ENDBRANCH   1  17
TORSDOF 6
ENDMDL
MODEL 4
REMARK VINA RESULT:      -7.8      2.141      8.297
REMARK  Name = 
REMARK  6 active torsions:
REMARK  status: ('A' for Active; 'I' for Inactive)
REMARK    1  A    between atoms: C_4  and  S_5
REMARK    2  A    between atoms: S_5  and  C_6
REMARK    3  A    between atoms: C_6  and  C_7
REMARK    4  A    between atoms: C_7  and  C_9
REMARK    5  A    between atoms: C_23  and  C_24
REMARK    6  A    between atoms: C_24  and  C_25
REMARK                            x       y       z     vdW  Elec       q    Type
REMARK                         _______ _______ _______ _____ _____    ______ ____
ROOT
ATOM      1  C   UNL     1      36.338   2.794  16.781  0.00  0.00    +0.000 C 
ENDROOT
BRANCH   1   2
ATOM      2  C   UNL     1      35.558   1.521  16.454  0.00  0.00    +0.000 C 
ATOM      3  O   UNL     1      34.350   1.646  16.633  0.00  0.00    +0.000 OA
BRANCH   2   4
ATOM      4  C   UNL     1      36.267   0.399  16.006  0.00  0.00    +0.000 C 
ATOM      5  C   UNL     1      36.803  -0.545  16.719  0.00  0.00    +0.000 C 
ATOM      6  N   UNL     1      36.796  -0.661  18.123  0.00  0.00    +0.000 N 
ATOM      7  C   UNL     1      36.189   0.269  19.071  0.00  0.00    +0.000 C 
ATOM      8  C   UNL     1      37.490  -1.854  18.515  0.00  0.00    +0.000 A 
ATOM      9  C   UNL     1      37.733  -2.380  19.743  0.00  0.00    +0.000 A 
ATOM     10  C   UNL     1      38.432  -3.570  19.914  0.00  0.00    +0.000 A 
ATOM     11  C   UNL     1      38.877  -4.212  18.783  0.00  0.00    +0.000 A 
ATOM     12  C   UNL     1      38.630  -3.680  17.542  0.00  0.00    +0.000 A 
ATOM     13  C   UNL     1      37.926  -2.481  17.387  0.00  0.00    +0.000 A 
ATOM     14  C   UNL     1      37.556  -1.735  16.176  0.00  0.00    +0.000 C 
ATOM     15  C   UNL     1      38.762  -1.272  15.389  0.00  0.00    +0.000 C 
ATOM     16  C   UNL     1      36.670  -2.563  15.278  0.00  0.00    +0.000 C 
ENDBRANCH   2   4
ENDBRANCH   1   2
BRANCH   1  17
ATOM     17  S   UNL     1      36.538   3.842  15.354  0.00  0.00    +0.000 S 
BRANCH  17  21
ATOM     18  C   UNL     1      41.385   5.771  14.578  0.00  0.00    +0.000 C 
ATOM     19  C   UNL     1      40.008   5.644  15.128  0.00  0.00    +0.000 A 
ATOM     20  N   UNL     1      39.103   4.702  14.815  0.00  0.00    +0.000 NA
ATOM     21  C   UNL     1      37.966   4.893  15.504  0.00  0.00    +0.000 A 
ATOM     22  N   UNL     1      38.181   5.981  16.258  0.00  0.00    +0.000 NA
ATOM     23  C   UNL     1      39.414   6.468  16.056  0.00  0.00    +0.000 A 
BRANCH  23  24
ATOM     24  C   UNL     1      40.094   7.638  16.652  0.00  0.00    +0.000 C 
BRANCH  24  25
ATOM     25  C   UNL     1      40.752   7.185  17.920  0.00  0.00    +0.000 A 
ATOM     26  C   UNL     1      42.121   7.081  18.036  0.00  0.00    +0.000 A 
ATOM     27  C   UNL     1      42.736   6.666  19.196  0.00  0.00    +0.000 A 
ATOM     28  C   UNL     1      41.979   6.333  20.307  0.00  0.00    +0.000 A 
ATOM     29  C   UNL     1      40.607   6.439  20.185  0.00  0.00    +0.000 A 
ATOM     30  C   UNL     1      39.990   6.853  19.027  0.00  0.00    +0.000 A 
ENDBRANCH  24  25
ENDBRANCH  23  24
ENDBRANCH  17  21
ENDBRANCH   1  17
TORSDOF 6
ENDMDL
MODEL 5
REMARK VINA RESULT:      -7.7      2.068      8.141
REMARK  Name = 
REMARK  6 active torsions:
REMARK  status: ('A' for Active; 'I' for Inactive)
REMARK    1  A    between atoms: C_4  and  S_5
REMARK    2  A    between atoms: S_5  and  C_6
REMARK    3  A    between atoms: C_6  and  C_7
REMARK    4  A    between atoms: C_7  and  C_9
REMARK    5  A    between atoms: C_23  and  C_24
REMARK    6  A    between atoms: C_24  and  C_25
REMARK                            x       y       z     vdW  Elec       q    Type
REMARK                         _______ _______ _______ _____ _____    ______ ____
ROOT
ATOM      1  C   UNL     1      36.906   3.899  15.312  0.00  0.00    +0.000 C 
ENDROOT
BRANCH   1   2
ATOM      2  C   UNL     1      36.188   2.604  14.933  0.00  0.00    +0.000 C 
ATOM      3  O   UNL     1      35.967   2.520  13.729  0.00  0.00    +0.000 OA
BRANCH   2   4
ATOM      4  C   UNL     1      35.872   1.693  15.949  0.00  0.00    +0.000 C 
ATOM      5  C   UNL     1      36.469   0.576  16.236  0.00  0.00    +0.000 C 
ATOM      6  N   UNL     1      37.586   0.015  15.585  0.00  0.00    +0.000 N 
ATOM      7  C   UNL     1      38.298   0.574  14.439  0.00  0.00    +0.000 C 
ATOM      8  C   UNL     1      37.943  -1.223  16.215  0.00  0.00    +0.000 A 
ATOM      9  C   UNL     1      38.939  -2.106  15.944  0.00  0.00    +0.000 A 
ATOM     10  C   UNL     1      39.125  -3.266  16.688  0.00  0.00    +0.000 A 
ATOM     11  C   UNL     1      38.256  -3.498  17.726  0.00  0.00    +0.000 A 
ATOM     12  C   UNL     1      37.250  -2.605  18.000  0.00  0.00    +0.000 A 
ATOM     13  C   UNL     1      37.076  -1.442  17.241  0.00  0.00    +0.000 A 
ATOM     14  C   UNL     1      36.081  -0.366  17.349  0.00  0.00    +0.000 C 
ATOM     15  C   UNL     1      34.666  -0.860  17.142  0.00  0.00    +0.000 C 
ATOM     16  C   UNL     1      36.171   0.324  18.688  0.00  0.00    +0.000 C 
ENDBRANCH   2   4
ENDBRANCH   1   2
BRANCH   1  17
ATOM     17  S   UNL     1      38.109   3.644  16.601  0.00  0.00    +0.000 S 
BRANCH  17  21
ATOM     18  C   UNL     1      38.385   8.781  17.769  0.00  0.00    +0.000 C 
ATOM     19  C   UNL     1      38.510   7.306  17.931  0.00  0.00    +0.000 A 
ATOM     20  N   UNL     1      38.176   6.369  17.030  0.00  0.00    +0.000 NA
ATOM     21  C   UNL     1      38.425   5.141  17.512  0.00  0.00    +0.000 A 
ATOM     22  N   UNL     1      38.925   5.332  18.741  0.00  0.00    +0.000 NA
ATOM     23  C   UNL     1      38.992   6.639  19.034  0.00  0.00    +0.000 A 
BRANCH  23  24
ATOM     24  C   UNL     1      39.466   7.327  20.253  0.00  0.00    +0.000 C 
BRANCH  24  25
ATOM     25  C   UNL     1      40.962   7.383  20.192  0.00  0.00    +0.000 A 
ATOM     26  C   UNL     1      41.634   8.503  19.753  0.00  0.00    +0.000 A 
ATOM     27  C   UNL     1      43.008   8.565  19.693  0.00  0.00    +0.000 A 
ATOM     28  C   UNL     1      43.774   7.478  20.081  0.00  0.00    +0.000 A 
ATOM     29  C   UNL     1      43.095   6.358  20.520  0.00  0.00    +0.000 A 
ATOM     30  C   UNL     1      41.722   6.293  20.581  0.00  0.00    +0.000 A 
ENDBRANCH  24  25
ENDBRANCH  23  24
ENDBRANCH  17  21
ENDBRANCH   1  17
TORSDOF 6
ENDMDL
MODEL 6
REMARK VINA RESULT:      -7.6      2.824      7.514
REMARK  Name = 
REMARK  6 active torsions:
REMARK  status: ('A' for Active; 'I' for Inactive)
REMARK    1  A    between atoms: C_4  and  S_5
REMARK    2  A    between atoms: S_5  and  C_6
REMARK    3  A    between atoms: C_6  and  C_7
REMARK    4  A    between atoms: C_7  and  C_9
REMARK    5  A    between atoms: C_23  and  C_24
REMARK    6  A    between atoms: C_24  and  C_25
REMARK                            x       y       z     vdW  Elec       q    Type
REMARK                         _______ _______ _______ _____ _____    ______ ____
ROOT
ATOM      1  C   UNL     1      37.247   7.424  13.754  0.00  0.00    +0.000 C 
ENDROOT
BRANCH   1   2
ATOM      2  C   UNL     1      36.029   6.532  13.513  0.00  0.00    +0.000 C 
ATOM      3  O   UNL     1      35.366   6.889  12.545  0.00  0.00    +0.000 OA
BRANCH   2   4
ATOM      4  C   UNL     1      35.807   5.454  14.380  0.00  0.00    +0.000 C 
ATOM      5  C   UNL     1      36.093   4.202  14.188  0.00  0.00    +0.000 C 
ATOM      6  N   UNL     1      36.700   3.630  13.052  0.00  0.00    +0.000 N 
ATOM      7  C   UNL     1      37.124   4.333  11.845  0.00  0.00    +0.000 C 
ATOM      8  C   UNL     1      36.850   2.217  13.241  0.00  0.00    +0.000 A 
ATOM      9  C   UNL     1      37.377   1.260  12.434  0.00  0.00    +0.000 A 
ATOM     10  C   UNL     1      37.435  -0.077  12.810  0.00  0.00    +0.000 A 
ATOM     11  C   UNL     1      36.936  -0.411  14.045  0.00  0.00    +0.000 A 
ATOM     12  C   UNL     1      36.404   0.556  14.861  0.00  0.00    +0.000 A 
ATOM     13  C   UNL     1      36.351   1.898  14.468  0.00  0.00    +0.000 A 
ATOM     14  C   UNL     1      35.831   3.082  15.165  0.00  0.00    +0.000 C 
ATOM     15  C   UNL     1      34.349   2.981  15.453  0.00  0.00    +0.000 C 
ATOM     16  C   UNL     1      36.568   3.320  16.460  0.00  0.00    +0.000 C 
ENDBRANCH   2   4
ENDBRANCH   1   2
BRANCH   1  17
ATOM     17  S   UNL     1      36.964   8.603  15.060  0.00  0.00    +0.000 S 
BRANCH  17  21
ATOM     18  C   UNL     1      38.145   8.471  20.199  0.00  0.00    +0.000 C 
ATOM     19  C   UNL     1      38.056   8.036  18.779  0.00  0.00    +0.000 A 
ATOM     20  N   UNL     1      37.493   8.714  17.766  0.00  0.00    +0.000 NA
ATOM     21  C   UNL     1      37.596   8.021  16.620  0.00  0.00    +0.000 A 
ATOM     22  N   UNL     1      38.238   6.889  16.940  0.00  0.00    +0.000 NA
ATOM     23  C   UNL     1      38.534   6.860  18.248  0.00  0.00    +0.000 A 
BRANCH  23  24
ATOM     24  C   UNL     1      39.227   5.831  19.053  0.00  0.00    +0.000 C 
BRANCH  24  25
ATOM     25  C   UNL     1      40.680   6.193  19.102  0.00  0.00    +0.000 A 
ATOM     26  C   UNL     1      41.351   6.363  20.294  0.00  0.00    +0.000 A 
ATOM     27  C   UNL     1      42.686   6.696  20.350  0.00  0.00    +0.000 A 
ATOM     28  C   UNL     1      43.411   6.874  19.184  0.00  0.00    +0.000 A 
ATOM     29  C   UNL     1      42.734   6.703  17.992  0.00  0.00    +0.000 A 
ATOM     30  C   UNL     1      41.400   6.371  17.933  0.00  0.00    +0.000 A 
ENDBRANCH  24  25
ENDBRANCH  23  24
ENDBRANCH  17  21
ENDBRANCH   1  17
TORSDOF 6
ENDMDL
MODEL 7
REMARK VINA RESULT:      -7.6      1.854      8.031
REMARK  Name = 
REMARK  6 active torsions:
REMARK  status: ('A' for Active; 'I' for Inactive)
REMARK    1  A    between atoms: C_4  and  S_5
REMARK    2  A    between atoms: S_5  and  C_6
REMARK    3  A    between atoms: C_6  and  C_7
REMARK    4  A    between atoms: C_7  and  C_9
REMARK    5  A    between atoms: C_23  and  C_24
REMARK    6  A    between atoms: C_24  and  C_25
REMARK                            x       y       z     vdW  Elec       q    Type
REMARK                         _______ _______ _______ _____ _____    ______ ____
ROOT
ATOM      1  C   UNL     1      36.274   3.379  16.048  0.00  0.00    +0.000 C 
ENDROOT
BRANCH   1   2
ATOM      2  C   UNL     1      35.413   2.193  15.616  0.00  0.00    +0.000 C 
ATOM      3  O   UNL     1      34.869   2.372  14.531  0.00  0.00    +0.000 OA
BRANCH   2   4
ATOM      4  C   UNL     1      35.336   1.079  16.462  0.00  0.00    +0.000 C 
ATOM      5  C   UNL     1      36.151   0.069  16.531  0.00  0.00    +0.000 C 
ATOM      6  N   UNL     1      37.314  -0.142  15.762  0.00  0.00    +0.000 N 
ATOM      7  C   UNL     1      37.837   0.732  14.717  0.00  0.00    +0.000 C 
ATOM      8  C   UNL     1      37.937  -1.373  16.154  0.00  0.00    +0.000 A 
ATOM      9  C   UNL     1      39.064  -1.982  15.705  0.00  0.00    +0.000 A 
ATOM     10  C   UNL     1      39.511  -3.192  16.227  0.00  0.00    +0.000 A 
ATOM     11  C   UNL     1      38.765  -3.763  17.230  0.00  0.00    +0.000 A 
ATOM     12  C   UNL     1      37.626  -3.146  17.683  0.00  0.00    +0.000 A 
ATOM     13  C   UNL     1      37.189  -1.929  17.147  0.00  0.00    +0.000 A 
ATOM     14  C   UNL     1      36.017  -1.105  17.469  0.00  0.00    +0.000 C 
ATOM     15  C   UNL     1      34.712  -1.826  17.214  0.00  0.00    +0.000 C 
ATOM     16  C   UNL     1      36.053  -0.646  18.906  0.00  0.00    +0.000 C 
ENDBRANCH   2   4
ENDBRANCH   1   2
BRANCH   1  17
ATOM     17  S   UNL     1      36.776   4.381  14.661  0.00  0.00    +0.000 S 
BRANCH  17  21
ATOM     18  C   UNL     1      41.815   5.935  14.541  0.00  0.00    +0.000 C 
ATOM     19  C   UNL     1      40.375   5.903  14.919  0.00  0.00    +0.000 A 
ATOM     20  N   UNL     1      39.446   5.046  14.465  0.00  0.00    +0.000 NA
ATOM     21  C   UNL     1      38.252   5.309  15.020  0.00  0.00    +0.000 A 
ATOM     22  N   UNL     1      38.456   6.354  15.835  0.00  0.00    +0.000 NA
ATOM     23  C   UNL     1      39.738   6.745  15.800  0.00  0.00    +0.000 A 
BRANCH  23  24
ATOM     24  C   UNL     1      40.428   7.839  16.517  0.00  0.00    +0.000 C 
BRANCH  24  25
ATOM     25  C   UNL     1      40.897   7.297  17.832  0.00  0.00    +0.000 A 
ATOM     26  C   UNL     1      42.233   7.091  18.104  0.00  0.00    +0.000 A 
ATOM     27  C   UNL     1      42.675   6.594  19.309  0.00  0.00    +0.000 A 
ATOM     28  C   UNL     1      41.769   6.277  20.308  0.00  0.00    +0.000 A 
ATOM     29  C   UNL     1      40.432   6.485  20.031  0.00  0.00    +0.000 A 
ATOM     30  C   UNL     1      39.987   6.982  18.827  0.00  0.00    +0.000 A 
ENDBRANCH  24  25
ENDBRANCH  23  24
ENDBRANCH  17  21
ENDBRANCH   1  17
TORSDOF 6
ENDMDL
MODEL 8
REMARK VINA RESULT:      -7.6      4.303      7.368
REMARK  Name = 
REMARK  6 active torsions:
REMARK  status: ('A' for Active; 'I' for Inactive)
REMARK    1  A    between atoms: C_4  and  S_5
REMARK    2  A    between atoms: S_5  and  C_6
REMARK    3  A    between atoms: C_6  and  C_7
REMARK    4  A    between atoms: C_7  and  C_9
REMARK    5  A    between atoms: C_23  and  C_24
REMARK    6  A    between atoms: C_24  and  C_25
REMARK                            x       y       z     vdW  Elec       q    Type
REMARK                         _______ _______ _______ _____ _____    ______ ____
ROOT
ATOM      1  C   UNL     1      35.402   2.593  15.396  0.00  0.00    +0.000 C 
ENDROOT
BRANCH   1   2
ATOM      2  C   UNL     1      34.994   1.293  16.088  0.00  0.00    +0.000 C 
ATOM      3  O   UNL     1      34.224   1.476  17.025  0.00  0.00    +0.000 OA
BRANCH   2   4
ATOM      4  C   UNL     1      35.517   0.086  15.605  0.00  0.00    +0.000 C 
ATOM      5  C   UNL     1      36.228  -0.792  16.247  0.00  0.00    +0.000 C 
ATOM      6  N   UNL     1      36.643  -0.733  17.592  0.00  0.00    +0.000 N 
ATOM      7  C   UNL     1      36.366   0.340  18.543  0.00  0.00    +0.000 C 
ATOM      8  C   UNL     1      37.403  -1.905  17.917  0.00  0.00    +0.000 A 
ATOM      9  C   UNL     1      37.998  -2.288  19.076  0.00  0.00    +0.000 A 
ATOM     10  C   UNL     1      38.696  -3.485  19.190  0.00  0.00    +0.000 A 
ATOM     11  C   UNL     1      38.768  -4.285  18.076  0.00  0.00    +0.000 A 
ATOM     12  C   UNL     1      38.167  -3.898  16.905  0.00  0.00    +0.000 A 
ATOM     13  C   UNL     1      37.468  -2.689  16.806  0.00  0.00    +0.000 A 
ATOM     14  C   UNL     1      36.762  -2.080  15.670  0.00  0.00    +0.000 C 
ATOM     15  C   UNL     1      37.681  -1.786  14.505  0.00  0.00    +0.000 C 
ATOM     16  C   UNL     1      35.632  -2.961  15.196  0.00  0.00    +0.000 C 
ENDBRANCH   2   4
ENDBRANCH   1   2
BRANCH   1  17
ATOM     17  S   UNL     1      37.040   3.115  15.866  0.00  0.00    +0.000 S 
BRANCH  17  21
ATOM     18  C   UNL     1      39.374   2.400  11.191  0.00  0.00    +0.000 C 
ATOM     19  C   UNL     1      39.171   2.373  12.665  0.00  0.00    +0.000 A 
ATOM     20  N   UNL     1      38.099   2.826  13.335  0.00  0.00    +0.000 NA
ATOM     21  C   UNL     1      38.256   2.639  14.656  0.00  0.00    +0.000 A 
ATOM     22  N   UNL     1      39.454   2.056  14.797  0.00  0.00    +0.000 NA
ATOM     23  C   UNL     1      40.044   1.877  13.606  0.00  0.00    +0.000 A 
BRANCH  23  24
ATOM     24  C   UNL     1      41.354   1.284  13.262  0.00  0.00    +0.000 C 
BRANCH  24  25
ATOM     25  C   UNL     1      41.216  -0.205  13.346  0.00  0.00    +0.000 A 
ATOM     26  C   UNL     1      41.466  -0.898  14.510  0.00  0.00    +0.000 A 
ATOM     27  C   UNL     1      41.342  -2.267  14.598  0.00  0.00    +0.000 A 
ATOM     28  C   UNL     1      40.954  -3.005  13.493  0.00  0.00    +0.000 A 
ATOM     29  C   UNL     1      40.705  -2.306  12.328  0.00  0.00    +0.000 A 
ATOM     30  C   UNL     1      40.828  -0.938  12.237  0.00  0.00    +0.000 A 
ENDBRANCH  24  25
ENDBRANCH  23  24
ENDBRANCH  17  21
ENDBRANCH   1  17
TORSDOF 6
ENDMDL
MODEL 9
REMARK VINA RESULT:      -7.6      1.661      2.794
REMARK  Name = 
REMARK  6 active torsions:
REMARK  status: ('A' for Active; 'I' for Inactive)
REMARK    1  A    between atoms: C_4  and  S_5
REMARK    2  A    between atoms: S_5  and  C_6
REMARK    3  A    between atoms: C_6  and  C_7
REMARK    4  A    between atoms: C_7  and  C_9
REMARK    5  A    between atoms: C_23  and  C_24
REMARK    6  A    between atoms: C_24  and  C_25
REMARK                            x       y       z     vdW  Elec       q    Type
REMARK                         _______ _______ _______ _____ _____    ______ ____
ROOT
ATOM      1  C   UNL     1      36.840   5.103  14.037  0.00  0.00    +0.000 C 
ENDROOT
BRANCH   1   2
ATOM      2  C   UNL     1      38.087   5.936  14.335  0.00  0.00    +0.000 C 
ATOM      3  O   UNL     1      38.369   6.709  13.425  0.00  0.00    +0.000 OA
BRANCH   2   4
ATOM      4  C   UNL     1      38.746   5.740  15.556  0.00  0.00    +0.000 C 
ATOM      5  C   UNL     1      38.634   6.437  16.646  0.00  0.00    +0.000 C 
ATOM      6  N   UNL     1      37.816   7.565  16.857  0.00  0.00    +0.000 N 
ATOM      7  C   UNL     1      36.928   8.191  15.881  0.00  0.00    +0.000 C 
ATOM      8  C   UNL     1      37.976   8.037  18.201  0.00  0.00    +0.000 A 
ATOM      9  C   UNL     1      37.399   9.078  18.855  0.00  0.00    +0.000 A 
ATOM     10  C   UNL     1      37.690   9.372  20.183  0.00  0.00    +0.000 A 
ATOM     11  C   UNL     1      38.594   8.563  20.828  0.00  0.00    +0.000 A 
ATOM     12  C   UNL     1      39.176   7.510  20.167  0.00  0.00    +0.000 A 
ATOM     13  C   UNL     1      38.874   7.228  18.830  0.00  0.00    +0.000 A 
ATOM     14  C   UNL     1      39.372   6.174  17.936  0.00  0.00    +0.000 C 
ATOM     15  C   UNL     1      40.865   6.264  17.707  0.00  0.00    +0.000 C 
ATOM     16  C   UNL     1      39.038   4.803  18.472  0.00  0.00    +0.000 C 
ENDBRANCH   2   4
ENDBRANCH   1   2
BRANCH   1  17
ATOM     17  S   UNL     1      36.437   4.001  15.378  0.00  0.00    +0.000 S 
BRANCH  17  21
ATOM     18  C   UNL     1      40.058   0.272  14.479  0.00  0.00    +0.000 C 
ATOM     19  C   UNL     1      38.733   0.888  14.765  0.00  0.00    +0.000 A 
ATOM     20  N   UNL     1      38.468   2.198  14.891  0.00  0.00    +0.000 NA
ATOM     21  C   UNL     1      37.164   2.392  15.148  0.00  0.00    +0.000 A 
ATOM     22  N   UNL     1      36.618   1.168  15.181  0.00  0.00    +0.000 NA
ATOM     23  C   UNL     1      37.543   0.224  14.953  0.00  0.00    +0.000 A 
BRANCH  23  24
ATOM     24  C   UNL     1      37.418  -1.248  14.894  0.00  0.00    +0.000 C 
BRANCH  24  25
ATOM     25  C   UNL     1      37.748  -1.788  16.252  0.00  0.00    +0.000 A 
ATOM     26  C   UNL     1      37.172  -1.285  17.399  0.00  0.00    +0.000 A 
ATOM     27  C   UNL     1      37.467  -1.774  18.651  0.00  0.00    +0.000 A 
ATOM     28  C   UNL     1      38.374  -2.810  18.800  0.00  0.00    +0.000 A 
ATOM     29  C   UNL     1      38.948  -3.311  17.648  0.00  0.00    +0.000 A 
ATOM     30  C   UNL     1      38.655  -2.824  16.395  0.00  0.00    +0.000 A 
ENDBRANCH  24  25
ENDBRANCH  23  24
ENDBRANCH  17  21
ENDBRANCH   1  17
TORSDOF 6
ENDMDL
MODEL 10
REMARK VINA RESULT:      -7.5      1.933      7.520
REMARK  Name = 
REMARK  6 active torsions:
REMARK  status: ('A' for Active; 'I' for Inactive)
REMARK    1  A    between atoms: C_4  and  S_5
REMARK    2  A    between atoms: S_5  and  C_6
REMARK    3  A    between atoms: C_6  and  C_7
REMARK    4  A    between atoms: C_7  and  C_9
REMARK    5  A    between atoms: C_23  and  C_24
REMARK    6  A    between atoms: C_24  and  C_25
REMARK                            x       y       z     vdW  Elec       q    Type
REMARK                         _______ _______ _______ _____ _____    ______ ____
ROOT
ATOM      1  C   UNL     1      37.913   2.003  13.026  0.00  0.00    +0.000 C 
ENDROOT
BRANCH   1   2
ATOM      2  C   UNL     1      36.941   0.877  13.377  0.00  0.00    +0.000 C 
ATOM      3  O   UNL     1      36.749   0.108  12.441  0.00  0.00    +0.000 OA
BRANCH   2   4
ATOM      4  C   UNL     1      36.397   0.842  14.668  0.00  0.00    +0.000 C 
ATOM      5  C   UNL     1      36.742   0.079  15.661  0.00  0.00    +0.000 C 
ATOM      6  N   UNL     1      37.756  -0.900  15.671  0.00  0.00    +0.000 N 
ATOM      7  C   UNL     1      38.623  -1.267  14.556  0.00  0.00    +0.000 C 
ATOM      8  C   UNL     1      37.825  -1.513  16.966  0.00  0.00    +0.000 A 
ATOM      9  C   UNL     1      38.636  -2.490  17.447  0.00  0.00    +0.000 A 
ATOM     10  C   UNL     1      38.546  -2.950  18.756  0.00  0.00    +0.000 A 
ATOM     11  C   UNL     1      37.596  -2.376  19.566  0.00  0.00    +0.000 A 
ATOM     12  C   UNL     1      36.777  -1.388  19.080  0.00  0.00    +0.000 A 
ATOM     13  C   UNL     1      36.879  -0.936  17.759  0.00  0.00    +0.000 A 
ATOM     14  C   UNL     1      36.117   0.090  17.034  0.00  0.00    +0.000 C 
ATOM     15  C   UNL     1      34.644  -0.243  16.936  0.00  0.00    +0.000 C 
ATOM     16  C   UNL     1      36.274   1.443  17.682  0.00  0.00    +0.000 C 
ENDBRANCH   2   4
ENDBRANCH   1   2
BRANCH   1  17
ATOM     17  S   UNL     1      39.011   2.384  14.377  0.00  0.00    +0.000 S 
BRANCH  17  21
ATOM     18  C   UNL     1      37.035   7.220  15.107  0.00  0.00    +0.000 C 
ATOM     19  C   UNL     1      38.012   6.098  15.120  0.00  0.00    +0.000 A 
ATOM     20  N   UNL     1      37.804   4.847  14.679  0.00  0.00    +0.000 NA
ATOM     21  C   UNL     1      38.907   4.099  14.846  0.00  0.00    +0.000 A 
ATOM     22  N   UNL     1      39.814   4.914  15.403  0.00  0.00    +0.000 NA
ATOM     23  C   UNL     1      39.306   6.141  15.587  0.00  0.00    +0.000 A 
BRANCH  23  24
ATOM     24  C   UNL     1      39.920   7.358  16.162  0.00  0.00    +0.000 C 
BRANCH  24  25
ATOM     25  C   UNL     1      40.365   7.030  17.554  0.00  0.00    +0.000 A 
ATOM     26  C   UNL     1      39.473   6.908  18.597  0.00  0.00    +0.000 A 
ATOM     27  C   UNL     1      39.871   6.607  19.880  0.00  0.00    +0.000 A 
ATOM     28  C   UNL     1      41.211   6.414  20.168  0.00  0.00    +0.000 A 
ATOM     29  C   UNL     1      42.102   6.538  19.119  0.00  0.00    +0.000 A 
ATOM     30  C   UNL     1      41.707   6.839  17.835  0.00  0.00    +0.000 A 
ENDBRANCH  24  25
ENDBRANCH  23  24
ENDBRANCH  17  21
ENDBRANCH   1  17
TORSDOF 6
ENDMDL
