MODEL 1
REMARK VINA RESULT:      -6.3      0.000      0.000
REMARK  Name = 
REMARK  3 active torsions:
REMARK  status: ('A' for Active; 'I' for Inactive)
REMARK    1  A    between atoms: C_2  and  O_3
REMARK    2  A    between atoms: O_3  and  C_4
REMARK    3  A    between atoms: C_10  and  C_11
REMARK                            x       y       z     vdW  Elec       q    Type
REMARK                         _______ _______ _______ _____ _____    ______ ____
ROOT
ATOM      1  C   UNL     1      14.916  11.694  37.053  0.00  0.00    +0.000 A 
ATOM      2  C   UNL     1      15.684  12.548  36.284  0.00  0.00    +0.000 A 
ATOM      3  C   UNL     1      17.053  12.598  36.408  0.00  0.00    +0.000 A 
ATOM      4  C   UNL     1      17.687  11.786  37.315  0.00  0.00    +0.000 A 
ATOM      5  N   UNL     1      18.983  11.593  37.678  0.00  0.00    +0.000 NA
ATOM      6  C   UNL     1      19.026  10.649  38.644  0.00  0.00    +0.000 A 
ATOM      7  C   UNL     1      17.753  10.209  38.928  0.00  0.00    +0.000 A 
ATOM      8  C   UNL     1      16.928  10.929  38.089  0.00  0.00    +0.000 A 
ATOM      9  C   UNL     1      15.544  10.876  37.966  0.00  0.00    +0.000 A 
ENDROOT
BRANCH   7  10
ATOM     10  C   UNL     1      17.342   9.178  39.924  0.00  0.00    +0.000 A 
ATOM     11  C   UNL     1      16.296   9.431  40.784  0.00  0.00    +0.000 A 
ATOM     12  S   UNL     1      16.223   7.989  41.694  0.00  0.00    +0.000 S 
ATOM     13  C   UNL     1      17.507   7.163  40.940  0.00  0.00    +0.000 A 
ATOM     14  N   UNL     1      18.034   5.848  41.197  0.00  0.00    +0.000 NA
ATOM     15  C   UNL     1      17.396   5.067  42.266  0.00  0.00    +0.000 C 
ATOM     16  N   UNL     1      17.928   8.024  40.032  0.00  0.00    +0.000 NA
ENDBRANCH   7  10
BRANCH   1  17
ATOM     17  O   UNL     1      13.547  11.698  36.873  0.00  0.00    +0.000 OA
BRANCH  17  19
ATOM     18  C   UNL     1      11.256  11.128  37.426  0.00  0.00    +0.000 C 
ATOM     19  C   UNL     1      12.710  10.996  37.804  0.00  0.00    +0.000 C 
ENDBRANCH  17  19
ENDBRANCH   1  17
TORSDOF 3
ENDMDL
MODEL 2
REMARK VINA RESULT:      -6.3      1.881      2.165
REMARK  Name = 
REMARK  3 active torsions:
REMARK  status: ('A' for Active; 'I' for Inactive)
REMARK    1  A    between atoms: C_2  and  O_3
REMARK    2  A    between atoms: O_3  and  C_4
REMARK    3  A    between atoms: C_10  and  C_11
REMARK                            x       y       z     vdW  Elec       q    Type
REMARK                         _______ _______ _______ _____ _____    ______ ____
ROOT
ATOM      1  C   UNL     1      14.812  11.648  36.545  0.00  0.00    +0.000 A 
ATOM      2  C   UNL     1      14.837  11.765  35.168  0.00  0.00    +0.000 A 
ATOM      3  C   UNL     1      15.878  11.266  34.420  0.00  0.00    +0.000 A 
ATOM      4  C   UNL     1      16.926  10.634  35.043  0.00  0.00    +0.000 A 
ATOM      5  N   UNL     1      18.074  10.046  34.615  0.00  0.00    +0.000 NA
ATOM      6  C   UNL     1      18.747   9.576  35.689  0.00  0.00    +0.000 A 
ATOM      7  C   UNL     1      18.045   9.852  36.840  0.00  0.00    +0.000 A 
ATOM      8  C   UNL     1      16.909  10.513  36.419  0.00  0.00    +0.000 A 
ATOM      9  C   UNL     1      15.858  11.016  37.179  0.00  0.00    +0.000 A 
ENDROOT
BRANCH   7  10
ATOM     10  C   UNL     1      18.420   9.514  38.243  0.00  0.00    +0.000 A 
ATOM     11  C   UNL     1      19.044  10.454  39.034  0.00  0.00    +0.000 A 
ATOM     12  S   UNL     1      19.255   9.606  40.500  0.00  0.00    +0.000 S 
ATOM     13  C   UNL     1      18.548   8.130  40.029  0.00  0.00    +0.000 A 
ATOM     14  N   UNL     1      18.370   6.914  40.778  0.00  0.00    +0.000 NA
ATOM     15  C   UNL     1      18.857   6.902  42.164  0.00  0.00    +0.000 C 
ATOM     16  N   UNL     1      18.186   8.354  38.779  0.00  0.00    +0.000 NA
ENDBRANCH   7  10
BRANCH   1  17
ATOM     17  O   UNL     1      13.733  12.174  37.230  0.00  0.00    +0.000 OA
BRANCH  17  19
ATOM     18  C   UNL     1      11.422  11.438  37.236  0.00  0.00    +0.000 C 
ATOM     19  C   UNL     1      12.791  11.286  37.852  0.00  0.00    +0.000 C 
ENDBRANCH  17  19
ENDBRANCH   1  17
TORSDOF 3
ENDMDL
MODEL 3
REMARK VINA RESULT:      -6.1     20.635     22.694
REMARK  Name = 
REMARK  3 active torsions:
REMARK  status: ('A' for Active; 'I' for Inactive)
REMARK    1  A    between atoms: C_2  and  O_3
REMARK    2  A    between atoms: O_3  and  C_4
REMARK    3  A    between atoms: C_10  and  C_11
REMARK                            x       y       z     vdW  Elec       q    Type
REMARK                         _______ _______ _______ _____ _____    ______ ____
ROOT
ATOM      1  C   UNL     1      33.345  -0.665  33.909  0.00  0.00    +0.000 A 
ATOM      2  C   UNL     1      32.703  -0.488  35.120  0.00  0.00    +0.000 A 
ATOM      3  C   UNL     1      32.244  -1.555  35.857  0.00  0.00    +0.000 A 
ATOM      4  C   UNL     1      32.420  -2.834  35.390  0.00  0.00    +0.000 A 
ATOM      5  N   UNL     1      32.097  -4.070  35.854  0.00  0.00    +0.000 NA
ATOM      6  C   UNL     1      32.523  -4.993  34.962  0.00  0.00    +0.000 A 
ATOM      7  C   UNL     1      33.132  -4.369  33.897  0.00  0.00    +0.000 A 
ATOM      8  C   UNL     1      33.060  -3.021  34.180  0.00  0.00    +0.000 A 
ATOM      9  C   UNL     1      33.525  -1.944  33.432  0.00  0.00    +0.000 A 
ENDROOT
BRANCH   7  10
ATOM     10  C   UNL     1      33.742  -5.003  32.693  0.00  0.00    +0.000 A 
ATOM     11  C   UNL     1      34.970  -5.620  32.789  0.00  0.00    +0.000 A 
ATOM     12  S   UNL     1      35.221  -6.169  31.192  0.00  0.00    +0.000 S 
ATOM     13  C   UNL     1      33.773  -5.591  30.508  0.00  0.00    +0.000 A 
ATOM     14  N   UNL     1      33.288  -5.692  29.157  0.00  0.00    +0.000 NA
ATOM     15  C   UNL     1      34.142  -6.392  28.188  0.00  0.00    +0.000 C 
ATOM     16  N   UNL     1      33.169  -5.009  31.528  0.00  0.00    +0.000 NA
ENDBRANCH   7  10
BRANCH   1  17
ATOM     17  O   UNL     1      33.779   0.454  33.224  0.00  0.00    +0.000 OA
BRANCH  17  19
ATOM     18  C   UNL     1      33.826   2.821  32.699  0.00  0.00    +0.000 C 
ATOM     19  C   UNL     1      33.350   1.756  33.655  0.00  0.00    +0.000 C 
ENDBRANCH  17  19
ENDBRANCH   1  17
TORSDOF 3
ENDMDL
MODEL 4
REMARK VINA RESULT:      -6.0     23.967     27.178
REMARK  Name = 
REMARK  3 active torsions:
REMARK  status: ('A' for Active; 'I' for Inactive)
REMARK    1  A    between atoms: C_2  and  O_3
REMARK    2  A    between atoms: O_3  and  C_4
REMARK    3  A    between atoms: C_10  and  C_11
REMARK                            x       y       z     vdW  Elec       q    Type
REMARK                         _______ _______ _______ _____ _____    ______ ____
ROOT
ATOM      1  C   UNL     1      31.399  24.221  24.779  0.00  0.00    +0.000 A 
ATOM      2  C   UNL     1      30.802  23.093  25.306  0.00  0.00    +0.000 A 
ATOM      3  C   UNL     1      29.655  22.561  24.764  0.00  0.00    +0.000 A 
ATOM      4  C   UNL     1      29.077  23.157  23.671  0.00  0.00    +0.000 A 
ATOM      5  N   UNL     1      27.977  22.897  22.915  0.00  0.00    +0.000 NA
ATOM      6  C   UNL     1      27.889  23.833  21.943  0.00  0.00    +0.000 A 
ATOM      7  C   UNL     1      28.933  24.723  22.052  0.00  0.00    +0.000 A 
ATOM      8  C   UNL     1      29.667  24.286  23.136  0.00  0.00    +0.000 A 
ATOM      9  C   UNL     1      30.827  24.826  23.681  0.00  0.00    +0.000 A 
ENDROOT
BRANCH   7  10
ATOM     10  C   UNL     1      29.220  25.906  21.191  0.00  0.00    +0.000 A 
ATOM     11  C   UNL     1      28.822  27.162  21.592  0.00  0.00    +0.000 A 
ATOM     12  S   UNL     1      29.368  28.139  20.304  0.00  0.00    +0.000 S 
ATOM     13  C   UNL     1      30.058  26.913  19.346  0.00  0.00    +0.000 A 
ATOM     14  N   UNL     1      30.725  27.004  18.073  0.00  0.00    +0.000 NA
ATOM     15  C   UNL     1      30.850  28.340  17.475  0.00  0.00    +0.000 C 
ATOM     16  N   UNL     1      29.841  25.819  20.053  0.00  0.00    +0.000 NA
ENDBRANCH   7  10
BRANCH   1  17
ATOM     17  O   UNL     1      32.550  24.697  25.376  0.00  0.00    +0.000 OA
BRANCH  17  19
ATOM     18  C   UNL     1      34.650  25.718  24.721  0.00  0.00    +0.000 C 
ATOM     19  C   UNL     1      33.821  24.458  24.752  0.00  0.00    +0.000 C 
ENDBRANCH  17  19
ENDBRANCH   1  17
TORSDOF 3
ENDMDL
MODEL 5
REMARK VINA RESULT:      -6.0     21.027     22.535
REMARK  Name = 
REMARK  3 active torsions:
REMARK  status: ('A' for Active; 'I' for Inactive)
REMARK    1  A    between atoms: C_2  and  O_3
REMARK    2  A    between atoms: O_3  and  C_4
REMARK    3  A    between atoms: C_10  and  C_11
REMARK                            x       y       z     vdW  Elec       q    Type
REMARK                         _______ _______ _______ _____ _____    ______ ____
ROOT
ATOM      1  C   UNL     1      21.339  -8.066  25.810  0.00  0.00    +0.000 A 
ATOM      2  C   UNL     1      21.352  -6.776  25.315  0.00  0.00    +0.000 A 
ATOM      3  C   UNL     1      20.287  -5.924  25.490  0.00  0.00    +0.000 A 
ATOM      4  C   UNL     1      19.175  -6.351  26.173  0.00  0.00    +0.000 A 
ATOM      5  N   UNL     1      17.989  -5.782  26.513  0.00  0.00    +0.000 NA
ATOM      6  C   UNL     1      17.255  -6.686  27.200  0.00  0.00    +0.000 A 
ATOM      7  C   UNL     1      17.955  -7.865  27.318  0.00  0.00    +0.000 A 
ATOM      8  C   UNL     1      19.153  -7.639  26.672  0.00  0.00    +0.000 A 
ATOM      9  C   UNL     1      20.228  -8.504  26.496  0.00  0.00    +0.000 A 
ENDROOT
BRANCH   7  10
ATOM     10  C   UNL     1      17.523  -9.121  27.997  0.00  0.00    +0.000 A 
ATOM     11  C   UNL     1      16.809 -10.069  27.298  0.00  0.00    +0.000 A 
ATOM     12  S   UNL     1      16.563 -11.275  28.480  0.00  0.00    +0.000 S 
ATOM     13  C   UNL     1      17.371 -10.515  29.772  0.00  0.00    +0.000 A 
ATOM     14  N   UNL     1      17.572 -10.965  31.125  0.00  0.00    +0.000 NA
ATOM     15  C   UNL     1      17.012 -12.274  31.487  0.00  0.00    +0.000 C 
ATOM     16  N   UNL     1      17.788  -9.381  29.242  0.00  0.00    +0.000 NA
ENDBRANCH   7  10
BRANCH   1  17
ATOM     17  O   UNL     1      22.446  -8.865  25.595  0.00  0.00    +0.000 OA
BRANCH  17  19
ATOM     18  C   UNL     1      23.347  -9.373  23.402  0.00  0.00    +0.000 C 
ATOM     19  C   UNL     1      23.417  -8.475  24.611  0.00  0.00    +0.000 C 
ENDBRANCH  17  19
ENDBRANCH   1  17
TORSDOF 3
ENDMDL
MODEL 6
REMARK VINA RESULT:      -5.9     21.669     23.976
REMARK  Name = 
REMARK  3 active torsions:
REMARK  status: ('A' for Active; 'I' for Inactive)
REMARK    1  A    between atoms: C_2  and  O_3
REMARK    2  A    between atoms: O_3  and  C_4
REMARK    3  A    between atoms: C_10  and  C_11
REMARK                            x       y       z     vdW  Elec       q    Type
REMARK                         _______ _______ _______ _____ _____    ______ ____
ROOT
ATOM      1  C   UNL     1      28.709  24.072  22.028  0.00  0.00    +0.000 A 
ATOM      2  C   UNL     1      27.371  23.985  21.695  0.00  0.00    +0.000 A 
ATOM      3  C   UNL     1      26.421  23.600  22.612  0.00  0.00    +0.000 A 
ATOM      4  C   UNL     1      26.797  23.291  23.896  0.00  0.00    +0.000 A 
ATOM      5  N   UNL     1      26.133  22.888  25.012  0.00  0.00    +0.000 NA
ATOM      6  C   UNL     1      27.027  22.729  26.014  0.00  0.00    +0.000 A 
ATOM      7  C   UNL     1      28.294  23.025  25.564  0.00  0.00    +0.000 A 
ATOM      8  C   UNL     1      28.133  23.375  24.239  0.00  0.00    +0.000 A 
ATOM      9  C   UNL     1      29.096  23.764  23.314  0.00  0.00    +0.000 A 
ENDROOT
BRANCH   7  10
ATOM     10  C   UNL     1      29.571  22.983  26.333  0.00  0.00    +0.000 A 
ATOM     11  C   UNL     1      29.806  21.954  27.218  0.00  0.00    +0.000 A 
ATOM     12  S   UNL     1      31.352  22.349  27.823  0.00  0.00    +0.000 S 
ATOM     13  C   UNL     1      31.604  23.775  26.930  0.00  0.00    +0.000 A 
ATOM     14  N   UNL     1      32.729  24.673  26.925  0.00  0.00    +0.000 NA
ATOM     15  C   UNL     1      33.853  24.345  27.813  0.00  0.00    +0.000 C 
ATOM     16  N   UNL     1      30.500  23.882  26.214  0.00  0.00    +0.000 NA
ENDBRANCH   7  10
BRANCH   1  17
ATOM     17  O   UNL     1      29.606  24.466  21.053  0.00  0.00    +0.000 OA
BRANCH  17  19
ATOM     18  C   UNL     1      29.440  26.864  21.375  0.00  0.00    +0.000 C 
ATOM     19  C   UNL     1      29.417  25.724  20.387  0.00  0.00    +0.000 C 
ENDBRANCH  17  19
ENDBRANCH   1  17
TORSDOF 3
ENDMDL
MODEL 7
REMARK VINA RESULT:      -5.6     19.955     21.936
REMARK  Name = 
REMARK  3 active torsions:
REMARK  status: ('A' for Active; 'I' for Inactive)
REMARK    1  A    between atoms: C_2  and  O_3
REMARK    2  A    between atoms: O_3  and  C_4
REMARK    3  A    between atoms: C_10  and  C_11
REMARK                            x       y       z     vdW  Elec       q    Type
REMARK                         _______ _______ _______ _____ _____    ______ ____
ROOT
ATOM      1  C   UNL     1      26.728  23.416  26.985  0.00  0.00    +0.000 A 
ATOM      2  C   UNL     1      26.189  23.318  25.717  0.00  0.00    +0.000 A 
ATOM      3  C   UNL     1      26.978  23.094  24.612  0.00  0.00    +0.000 A 
ATOM      4  C   UNL     1      28.337  22.962  24.758  0.00  0.00    +0.000 A 
ATOM      5  N   UNL     1      29.370  22.743  23.902  0.00  0.00    +0.000 NA
ATOM      6  C   UNL     1      30.520  22.704  24.613  0.00  0.00    +0.000 A 
ATOM      7  C   UNL     1      30.253  22.900  25.948  0.00  0.00    +0.000 A 
ATOM      8  C   UNL     1      28.885  23.059  26.023  0.00  0.00    +0.000 A 
ATOM      9  C   UNL     1      28.090  23.285  27.142  0.00  0.00    +0.000 A 
ENDROOT
BRANCH   7  10
ATOM     10  C   UNL     1      31.224  22.933  27.080  0.00  0.00    +0.000 A 
ATOM     11  C   UNL     1      32.081  24.003  27.219  0.00  0.00    +0.000 A 
ATOM     12  S   UNL     1      32.960  23.579  28.619  0.00  0.00    +0.000 S 
ATOM     13  C   UNL     1      32.199  22.090  28.939  0.00  0.00    +0.000 A 
ATOM     14  N   UNL     1      32.433  21.144  29.999  0.00  0.00    +0.000 NA
ATOM     15  C   UNL     1      33.481  21.477  30.975  0.00  0.00    +0.000 C 
ATOM     16  N   UNL     1      31.313  21.988  27.966  0.00  0.00    +0.000 NA
ENDBRANCH   7  10
BRANCH   1  17
ATOM     17  O   UNL     1      25.873  23.642  28.047  0.00  0.00    +0.000 OA
BRANCH  17  19
ATOM     18  C   UNL     1      26.032  24.431  30.335  0.00  0.00    +0.000 C 
ATOM     19  C   UNL     1      26.292  23.295  29.377  0.00  0.00    +0.000 C 
ENDBRANCH  17  19
ENDBRANCH   1  17
TORSDOF 3
ENDMDL
MODEL 8
REMARK VINA RESULT:      -5.6     20.204     23.159
REMARK  Name = 
REMARK  3 active torsions:
REMARK  status: ('A' for Active; 'I' for Inactive)
REMARK    1  A    between atoms: C_2  and  O_3
REMARK    2  A    between atoms: O_3  and  C_4
REMARK    3  A    between atoms: C_10  and  C_11
REMARK                            x       y       z     vdW  Elec       q    Type
REMARK                         _______ _______ _______ _____ _____    ______ ____
ROOT
ATOM      1  C   UNL     1      29.510  25.059  23.513  0.00  0.00    +0.000 A 
ATOM      2  C   UNL     1      29.407  24.525  22.243  0.00  0.00    +0.000 A 
ATOM      3  C   UNL     1      28.279  23.854  21.831  0.00  0.00    +0.000 A 
ATOM      4  C   UNL     1      27.221  23.702  22.693  0.00  0.00    +0.000 A 
ATOM      5  N   UNL     1      25.999  23.112  22.607  0.00  0.00    +0.000 NA
ATOM      6  C   UNL     1      25.357  23.272  23.787  0.00  0.00    +0.000 A 
ATOM      7  C   UNL     1      26.155  23.971  24.664  0.00  0.00    +0.000 A 
ATOM      8  C   UNL     1      27.316  24.233  23.966  0.00  0.00    +0.000 A 
ATOM      9  C   UNL     1      28.454  24.912  24.385  0.00  0.00    +0.000 A 
ENDROOT
BRANCH   7  10
ATOM     10  C   UNL     1      25.842  24.366  26.068  0.00  0.00    +0.000 A 
ATOM     11  C   UNL     1      24.937  25.375  26.312  0.00  0.00    +0.000 A 
ATOM     12  S   UNL     1      24.930  25.444  28.018  0.00  0.00    +0.000 S 
ATOM     13  C   UNL     1      26.060  24.206  28.314  0.00  0.00    +0.000 A 
ATOM     14  N   UNL     1      26.562  23.696  29.563  0.00  0.00    +0.000 NA
ATOM     15  C   UNL     1      26.046  24.310  30.794  0.00  0.00    +0.000 C 
ATOM     16  N   UNL     1      26.388  23.800  27.101  0.00  0.00    +0.000 NA
ENDBRANCH   7  10
BRANCH   1  17
ATOM     17  O   UNL     1      30.674  25.720  23.856  0.00  0.00    +0.000 OA
BRANCH  17  19
ATOM     18  C   UNL     1      31.951  23.784  24.563  0.00  0.00    +0.000 C 
ATOM     19  C   UNL     1      31.509  25.187  24.895  0.00  0.00    +0.000 C 
ENDBRANCH  17  19
ENDBRANCH   1  17
TORSDOF 3
ENDMDL
MODEL 9
REMARK VINA RESULT:      -5.6     21.771     23.167
REMARK  Name = 
REMARK  3 active torsions:
REMARK  status: ('A' for Active; 'I' for Inactive)
REMARK    1  A    between atoms: C_2  and  O_3
REMARK    2  A    between atoms: O_3  and  C_4
REMARK    3  A    between atoms: C_10  and  C_11
REMARK                            x       y       z     vdW  Elec       q    Type
REMARK                         _______ _______ _______ _____ _____    ______ ____
ROOT
ATOM      1  C   UNL     1      17.664  -8.492  27.218  0.00  0.00    +0.000 A 
ATOM      2  C   UNL     1      17.231  -7.181  27.253  0.00  0.00    +0.000 A 
ATOM      3  C   UNL     1      17.986  -6.156  26.733  0.00  0.00    +0.000 A 
ATOM      4  C   UNL     1      19.205  -6.427  26.162  0.00  0.00    +0.000 A 
ATOM      5  N   UNL     1      20.171  -5.672  25.575  0.00  0.00    +0.000 NA
ATOM      6  C   UNL     1      21.178  -6.485  25.184  0.00  0.00    +0.000 A 
ATOM      7  C   UNL     1      20.884  -7.788  25.512  0.00  0.00    +0.000 A 
ATOM      8  C   UNL     1      19.647  -7.736  26.122  0.00  0.00    +0.000 A 
ATOM      9  C   UNL     1      18.886  -8.774  26.647  0.00  0.00    +0.000 A 
ENDROOT
BRANCH   7  10
ATOM     10  C   UNL     1      21.713  -9.003  25.267  0.00  0.00    +0.000 A 
ATOM     11  C   UNL     1      21.529  -9.740  24.117  0.00  0.00    +0.000 A 
ATOM     12  S   UNL     1      22.680 -10.987  24.303  0.00  0.00    +0.000 S 
ATOM     13  C   UNL     1      23.316 -10.506  25.807  0.00  0.00    +0.000 A 
ATOM     14  N   UNL     1      24.354 -11.107  26.603  0.00  0.00    +0.000 NA
ATOM     15  C   UNL     1      24.988 -12.321  26.072  0.00  0.00    +0.000 C 
ATOM     16  N   UNL     1      22.622  -9.420  26.095  0.00  0.00    +0.000 NA
ENDBRANCH   7  10
BRANCH   1  17
ATOM     17  O   UNL     1      16.851  -9.469  27.760  0.00  0.00    +0.000 OA
BRANCH  17  19
ATOM     18  C   UNL     1      17.600  -9.892  30.027  0.00  0.00    +0.000 C 
ATOM     19  C   UNL     1      17.418 -10.453  28.639  0.00  0.00    +0.000 C 
ENDBRANCH  17  19
ENDBRANCH   1  17
TORSDOF 3
ENDMDL
MODEL 10
REMARK VINA RESULT:      -5.5      3.415      7.303
REMARK  Name = 
REMARK  3 active torsions:
REMARK  status: ('A' for Active; 'I' for Inactive)
REMARK    1  A    between atoms: C_2  and  O_3
REMARK    2  A    between atoms: O_3  and  C_4
REMARK    3  A    between atoms: C_10  and  C_11
REMARK                            x       y       z     vdW  Elec       q    Type
REMARK                         _______ _______ _______ _____ _____    ______ ____
ROOT
ATOM      1  C   UNL     1      18.744   5.444  40.614  0.00  0.00    +0.000 A 
ATOM      2  C   UNL     1      18.211   4.994  41.806  0.00  0.00    +0.000 A 
ATOM      3  C   UNL     1      17.398   5.788  42.580  0.00  0.00    +0.000 A 
ATOM      4  C   UNL     1      17.100   7.065  42.170  0.00  0.00    +0.000 A 
ATOM      5  N   UNL     1      16.353   8.080  42.681  0.00  0.00    +0.000 NA
ATOM      6  C   UNL     1      16.417   9.132  41.836  0.00  0.00    +0.000 A 
ATOM      7  C   UNL     1      17.210   8.819  40.755  0.00  0.00    +0.000 A 
ATOM      8  C   UNL     1      17.629   7.524  40.979  0.00  0.00    +0.000 A 
ATOM      9  C   UNL     1      18.451   6.723  40.194  0.00  0.00    +0.000 A 
ENDROOT
BRANCH   7  10
ATOM     10  C   UNL     1      17.549   9.684  39.589  0.00  0.00    +0.000 A 
ATOM     11  C   UNL     1      18.823  10.194  39.459  0.00  0.00    +0.000 A 
ATOM     12  S   UNL     1      18.704  11.088  38.010  0.00  0.00    +0.000 S 
ATOM     13  C   UNL     1      17.069  10.766  37.660  0.00  0.00    +0.000 A 
ATOM     14  N   UNL     1      16.259  11.206  36.555  0.00  0.00    +0.000 NA
ATOM     15  C   UNL     1      16.903  12.067  35.553  0.00  0.00    +0.000 C 
ATOM     16  N   UNL     1      16.693   9.994  38.663  0.00  0.00    +0.000 NA
ENDBRANCH   7  10
BRANCH   1  17
ATOM     17  O   UNL     1      19.552   4.588  39.890  0.00  0.00    +0.000 OA
BRANCH  17  19
ATOM     18  C   UNL     1      20.320   2.346  40.403  0.00  0.00    +0.000 C 
ATOM     19  C   UNL     1      20.561   3.826  40.570  0.00  0.00    +0.000 C 
ENDBRANCH  17  19
ENDBRANCH   1  17
TORSDOF 3
ENDMDL
