MODEL 1
REMARK VINA RESULT:      -7.6      0.000      0.000
REMARK  Name = 
REMARK  7 active torsions:
REMARK  status: ('A' for Active; 'I' for Inactive)
REMARK    1  A    between atoms: O_2  and  C_3
REMARK    2  A    between atoms: C_5  and  C_6
REMARK    3  A    between atoms: N_7  and  N_8
REMARK    4  A    between atoms: C_9  and  C_11
REMARK    5  A    between atoms: C_26  and  O_27
REMARK    6  A    between atoms: O_27  and  C_28
REMARK    7  A    between atoms: C_28  and  C_29
REMARK                            x       y       z     vdW  Elec       q    Type
REMARK                         _______ _______ _______ _____ _____    ______ ____
ROOT
ATOM      1  N   UNL     1      37.775   3.340  17.472  0.00  0.00    +0.000 NA
ATOM      2  C   UNL     1      36.760   3.045  16.524  0.00  0.00    +0.000 C 
ATOM      3  O   UNL     1      36.355   3.942  15.767  0.00  0.00    +0.000 OA
ENDROOT
BRANCH   2   4
ATOM      4  C   UNL     1      36.235   1.674  16.488  0.00  0.00    +0.000 A 
ATOM      5  C   UNL     1      36.683   0.620  15.721  0.00  0.00    +0.000 A 
ATOM      6  C   UNL     1      35.903  -0.486  16.003  0.00  0.00    +0.000 A 
ATOM      7  C   UNL     1      34.996  -0.047  16.947  0.00  0.00    +0.000 A 
ATOM      8  C   UNL     1      34.060  -0.957  17.433  0.00  0.00    +0.000 A 
ATOM      9  C   UNL     1      34.056  -2.265  16.968  0.00  0.00    +0.000 A 
ATOM     10  C   UNL     1      34.960  -2.714  16.022  0.00  0.00    +0.000 A 
ATOM     11  C   UNL     1      34.958  -4.021  15.555  0.00  0.00    +0.000 A 
ATOM     12  C   UNL     1      35.886  -4.422  14.605  0.00  0.00    +0.000 A 
ATOM     13  C   UNL     1      36.801  -3.518  14.135  0.00  0.00    +0.000 A 
ATOM     14  C   UNL     1      36.786  -2.219  14.613  0.00  0.00    +0.000 A 
ATOM     15  C   UNL     1      35.875  -1.794  15.557  0.00  0.00    +0.000 A 
ATOM     16  O   UNL     1      35.225   1.229  17.205  0.00  0.00    +0.000 OA
ENDBRANCH   2   4
BRANCH   1  18
ATOM     17  C   UNL     1      39.007   4.995  18.635  0.00  0.00    +0.000 C 
ATOM     18  N   UNL     1      38.360   4.580  17.620  0.00  0.00    +0.000 NA
BRANCH  17  21
ATOM     19  C   UNL     1      39.399   8.698  19.151  0.00  0.00    +0.000 A 
ATOM     20  C   UNL     1      38.850   7.429  19.119  0.00  0.00    +0.000 A 
ATOM     21  C   UNL     1      39.589   6.354  18.672  0.00  0.00    +0.000 A 
ATOM     22  C   UNL     1      40.885   6.580  18.259  0.00  0.00    +0.000 A 
ATOM     23  C   UNL     1      41.458   7.834  18.280  0.00  0.00    +0.000 A 
ATOM     24  C   UNL     1      40.695   8.901  18.735  0.00  0.00    +0.000 A 
BRANCH  19  26
ATOM     25  C   UNL     1      38.376   9.979  20.970  0.00  0.00    +0.000 C 
ATOM     26  O   UNL     1      38.668   9.794  19.600  0.00  0.00    +0.000 OA
ENDBRANCH  19  26
BRANCH  24  27
ATOM     27  O   UNL     1      41.218  10.179  18.778  0.00  0.00    +0.000 OA
BRANCH  27  28
ATOM     28  C   UNL     1      42.368  10.524  19.508  0.00  0.00    +0.000 C 
BRANCH  28  29
ATOM     29  C   UNL     1      42.064  10.196  20.973  0.00  0.00    +0.000 C 
ATOM     30  C   UNL     1      41.829  11.520  21.708  0.00  0.00    +0.000 C 
ATOM     31  C   UNL     1      43.313   9.571  21.571  0.00  0.00    +0.000 C 
ENDBRANCH  28  29
ENDBRANCH  27  28
ENDBRANCH  24  27
ENDBRANCH  17  21
ENDBRANCH   1  18
TORSDOF 7
ENDMDL
MODEL 2
REMARK VINA RESULT:      -7.6      2.449     12.250
REMARK  Name = 
REMARK  7 active torsions:
REMARK  status: ('A' for Active; 'I' for Inactive)
REMARK    1  A    between atoms: O_2  and  C_3
REMARK    2  A    between atoms: C_5  and  C_6
REMARK    3  A    between atoms: N_7  and  N_8
REMARK    4  A    between atoms: C_9  and  C_11
REMARK    5  A    between atoms: C_26  and  O_27
REMARK    6  A    between atoms: O_27  and  C_28
REMARK    7  A    between atoms: C_28  and  C_29
REMARK                            x       y       z     vdW  Elec       q    Type
REMARK                         _______ _______ _______ _____ _____    ______ ____
ROOT
ATOM      1  N   UNL     1      37.111   2.651  17.264  0.00  0.00    +0.000 NA
ATOM      2  C   UNL     1      38.103   3.542  16.774  0.00  0.00    +0.000 C 
ATOM      3  O   UNL     1      38.736   3.244  15.749  0.00  0.00    +0.000 OA
ENDROOT
BRANCH   2   4
ATOM      4  C   UNL     1      38.330   4.788  17.518  0.00  0.00    +0.000 A 
ATOM      5  C   UNL     1      37.762   6.022  17.288  0.00  0.00    +0.000 A 
ATOM      6  C   UNL     1      38.258   6.910  18.225  0.00  0.00    +0.000 A 
ATOM      7  C   UNL     1      39.123   6.163  18.998  0.00  0.00    +0.000 A 
ATOM      8  C   UNL     1      39.786   6.798  20.045  0.00  0.00    +0.000 A 
ATOM      9  C   UNL     1      39.570   8.148  20.287  0.00  0.00    +0.000 A 
ATOM     10  C   UNL     1      38.706   8.906  19.518  0.00  0.00    +0.000 A 
ATOM     11  C   UNL     1      38.488  10.256  19.757  0.00  0.00    +0.000 A 
ATOM     12  C   UNL     1      37.611  10.972  18.956  0.00  0.00    +0.000 A 
ATOM     13  C   UNL     1      36.964  10.336  17.930  0.00  0.00    +0.000 A 
ATOM     14  C   UNL     1      37.196   8.989  17.708  0.00  0.00    +0.000 A 
ATOM     15  C   UNL     1      38.062   8.253  18.488  0.00  0.00    +0.000 A 
ATOM     16  O   UNL     1      39.137   4.920  18.550  0.00  0.00    +0.000 OA
ENDBRANCH   2   4
BRANCH   1  18
ATOM     17  C   UNL     1      36.252   0.444  17.239  0.00  0.00    +0.000 C 
ATOM     18  N   UNL     1      36.790   1.448  16.671  0.00  0.00    +0.000 NA
BRANCH  17  21
ATOM     19  C   UNL     1      36.455  -2.338  14.720  0.00  0.00    +0.000 A 
ATOM     20  C   UNL     1      36.736  -1.178  15.417  0.00  0.00    +0.000 A 
ATOM     21  C   UNL     1      35.956  -0.795  16.490  0.00  0.00    +0.000 A 
ATOM     22  C   UNL     1      34.895  -1.600  16.844  0.00  0.00    +0.000 A 
ATOM     23  C   UNL     1      34.591  -2.763  16.166  0.00  0.00    +0.000 A 
ATOM     24  C   UNL     1      35.390  -3.127  15.090  0.00  0.00    +0.000 A 
BRANCH  19  26
ATOM     25  C   UNL     1      38.516  -2.197  13.404  0.00  0.00    +0.000 C 
ATOM     26  O   UNL     1      37.231  -2.739  13.636  0.00  0.00    +0.000 OA
ENDBRANCH  19  26
BRANCH  24  27
ATOM     27  O   UNL     1      35.133  -4.281  14.376  0.00  0.00    +0.000 OA
BRANCH  27  28
ATOM     28  C   UNL     1      33.896  -4.949  14.396  0.00  0.00    +0.000 C 
BRANCH  28  29
ATOM     29  C   UNL     1      34.204  -6.421  14.685  0.00  0.00    +0.000 C 
ATOM     30  C   UNL     1      33.878  -7.222  13.420  0.00  0.00    +0.000 C 
ATOM     31  C   UNL     1      33.245  -6.887  15.766  0.00  0.00    +0.000 C 
ENDBRANCH  28  29
ENDBRANCH  27  28
ENDBRANCH  24  27
ENDBRANCH  17  21
ENDBRANCH   1  18
TORSDOF 7
ENDMDL
MODEL 3
REMARK VINA RESULT:      -7.5      1.702      2.701
REMARK  Name = 
REMARK  7 active torsions:
REMARK  status: ('A' for Active; 'I' for Inactive)
REMARK    1  A    between atoms: O_2  and  C_3
REMARK    2  A    between atoms: C_5  and  C_6
REMARK    3  A    between atoms: N_7  and  N_8
REMARK    4  A    between atoms: C_9  and  C_11
REMARK    5  A    between atoms: C_26  and  O_27
REMARK    6  A    between atoms: O_27  and  C_28
REMARK    7  A    between atoms: C_28  and  C_29
REMARK                            x       y       z     vdW  Elec       q    Type
REMARK                         _______ _______ _______ _____ _____    ______ ____
ROOT
ATOM      1  N   UNL     1      37.899   3.129  16.742  0.00  0.00    +0.000 NA
ATOM      2  C   UNL     1      36.659   2.520  16.411  0.00  0.00    +0.000 C 
ATOM      3  O   UNL     1      35.605   3.153  16.581  0.00  0.00    +0.000 OA
ENDROOT
BRANCH   2   4
ATOM      4  C   UNL     1      36.691   1.153  15.875  0.00  0.00    +0.000 A 
ATOM      5  C   UNL     1      35.812   0.124  16.135  0.00  0.00    +0.000 A 
ATOM      6  C   UNL     1      36.218  -0.987  15.420  0.00  0.00    +0.000 A 
ATOM      7  C   UNL     1      37.349  -0.578  14.742  0.00  0.00    +0.000 A 
ATOM      8  C   UNL     1      37.994  -1.499  13.922  0.00  0.00    +0.000 A 
ATOM      9  C   UNL     1      37.497  -2.790  13.802  0.00  0.00    +0.000 A 
ATOM     10  C   UNL     1      36.366  -3.211  14.477  0.00  0.00    +0.000 A 
ATOM     11  C   UNL     1      35.867  -4.501  14.360  0.00  0.00    +0.000 A 
ATOM     12  C   UNL     1      34.728  -4.872  15.059  0.00  0.00    +0.000 A 
ATOM     13  C   UNL     1      34.102  -3.957  15.862  0.00  0.00    +0.000 A 
ATOM     14  C   UNL     1      34.616  -2.675  15.965  0.00  0.00    +0.000 A 
ATOM     15  C   UNL     1      35.746  -2.279  15.283  0.00  0.00    +0.000 A 
ATOM     16  O   UNL     1      37.594   0.687  15.037  0.00  0.00    +0.000 OA
ENDBRANCH   2   4
BRANCH   1  18
ATOM     17  C   UNL     1      38.833   4.781  18.160  0.00  0.00    +0.000 C 
ATOM     18  N   UNL     1      38.022   4.404  17.253  0.00  0.00    +0.000 NA
BRANCH  17  21
ATOM     19  C   UNL     1      38.206   8.479  18.395  0.00  0.00    +0.000 A 
ATOM     20  C   UNL     1      38.169   7.169  17.956  0.00  0.00    +0.000 A 
ATOM     21  C   UNL     1      38.868   6.184  18.624  0.00  0.00    +0.000 A 
ATOM     22  C   UNL     1      39.600   6.543  19.736  0.00  0.00    +0.000 A 
ATOM     23  C   UNL     1      39.654   7.843  20.196  0.00  0.00    +0.000 A 
ATOM     24  C   UNL     1      38.943   8.816  19.507  0.00  0.00    +0.000 A 
BRANCH  19  26
ATOM     25  C   UNL     1      36.097   9.555  17.771  0.00  0.00    +0.000 C 
ATOM     26  O   UNL     1      37.507   9.486  17.733  0.00  0.00    +0.000 OA
ENDBRANCH  19  26
BRANCH  24  27
ATOM     27  O   UNL     1      38.961  10.134  19.923  0.00  0.00    +0.000 OA
BRANCH  27  28
ATOM     28  C   UNL     1      38.476  10.562  21.170  0.00  0.00    +0.000 C 
BRANCH  28  29
ATOM     29  C   UNL     1      38.499  12.093  21.142  0.00  0.00    +0.000 C 
ATOM     30  C   UNL     1      37.679  12.550  19.931  0.00  0.00    +0.000 C 
ATOM     31  C   UNL     1      39.934  12.525  20.894  0.00  0.00    +0.000 C 
ENDBRANCH  28  29
ENDBRANCH  27  28
ENDBRANCH  24  27
ENDBRANCH  17  21
ENDBRANCH   1  18
TORSDOF 7
ENDMDL
MODEL 4
REMARK VINA RESULT:      -7.4     22.748     26.657
REMARK  Name = 
REMARK  7 active torsions:
REMARK  status: ('A' for Active; 'I' for Inactive)
REMARK    1  A    between atoms: O_2  and  C_3
REMARK    2  A    between atoms: C_5  and  C_6
REMARK    3  A    between atoms: N_7  and  N_8
REMARK    4  A    between atoms: C_9  and  C_11
REMARK    5  A    between atoms: C_26  and  O_27
REMARK    6  A    between atoms: O_27  and  C_28
REMARK    7  A    between atoms: C_28  and  C_29
REMARK                            x       y       z     vdW  Elec       q    Type
REMARK                         _______ _______ _______ _____ _____    ______ ____
ROOT
ATOM      1  N   UNL     1      15.353   0.336  27.446  0.00  0.00    +0.000 NA
ATOM      2  C   UNL     1      16.754   0.309  27.678  0.00  0.00    +0.000 C 
ATOM      3  O   UNL     1      17.178   0.279  28.844  0.00  0.00    +0.000 OA
ENDROOT
BRANCH   2   4
ATOM      4  C   UNL     1      17.641   0.317  26.507  0.00  0.00    +0.000 A 
ATOM      5  C   UNL     1      18.012  -0.754  25.723  0.00  0.00    +0.000 A 
ATOM      6  C   UNL     1      18.857  -0.295  24.730  0.00  0.00    +0.000 A 
ATOM      7  C   UNL     1      18.966   1.062  24.958  0.00  0.00    +0.000 A 
ATOM      8  C   UNL     1      19.769   1.811  24.102  0.00  0.00    +0.000 A 
ATOM      9  C   UNL     1      20.433   1.190  23.052  0.00  0.00    +0.000 A 
ATOM     10  C   UNL     1      20.331  -0.168  22.815  0.00  0.00    +0.000 A 
ATOM     11  C   UNL     1      20.994  -0.791  21.767  0.00  0.00    +0.000 A 
ATOM     12  C   UNL     1      20.858  -2.158  21.573  0.00  0.00    +0.000 A 
ATOM     13  C   UNL     1      20.066  -2.884  22.422  0.00  0.00    +0.000 A 
ATOM     14  C   UNL     1      19.413  -2.243  23.461  0.00  0.00    +0.000 A 
ATOM     15  C   UNL     1      19.530  -0.886  23.678  0.00  0.00    +0.000 A 
ATOM     16  O   UNL     1      18.236   1.382  26.013  0.00  0.00    +0.000 OA
ENDBRANCH   2   4
BRANCH   1  18
ATOM     17  C   UNL     1      13.439  -0.489  28.571  0.00  0.00    +0.000 C 
ATOM     18  N   UNL     1      14.404   0.333  28.446  0.00  0.00    +0.000 NA
BRANCH  17  21
ATOM     19  C   UNL     1      11.713  -1.087  31.856  0.00  0.00    +0.000 A 
ATOM     20  C   UNL     1      12.610  -1.187  30.809  0.00  0.00    +0.000 A 
ATOM     21  C   UNL     1      12.482  -0.386  29.693  0.00  0.00    +0.000 A 
ATOM     22  C   UNL     1      11.439   0.514  29.653  0.00  0.00    +0.000 A 
ATOM     23  C   UNL     1      10.528   0.635  30.682  0.00  0.00    +0.000 A 
ATOM     24  C   UNL     1      10.678  -0.182  31.795  0.00  0.00    +0.000 A 
BRANCH  19  26
ATOM     25  C   UNL     1      12.971  -1.840  33.817  0.00  0.00    +0.000 C 
ATOM     26  O   UNL     1      11.827  -1.888  32.989  0.00  0.00    +0.000 OA
ENDBRANCH  19  26
BRANCH  24  27
ATOM     27  O   UNL     1       9.796  -0.102  32.856  0.00  0.00    +0.000 OA
BRANCH  27  28
ATOM     28  C   UNL     1       9.598   1.062  33.616  0.00  0.00    +0.000 C 
BRANCH  28  29
ATOM     29  C   UNL     1      10.943   1.381  34.277  0.00  0.00    +0.000 C 
ATOM     30  C   UNL     1      10.811   1.080  35.774  0.00  0.00    +0.000 C 
ATOM     31  C   UNL     1      11.176   2.876  34.144  0.00  0.00    +0.000 C 
ENDBRANCH  28  29
ENDBRANCH  27  28
ENDBRANCH  24  27
ENDBRANCH  17  21
ENDBRANCH   1  18
TORSDOF 7
ENDMDL
MODEL 5
REMARK VINA RESULT:      -7.4      7.887     11.696
REMARK  Name = 
REMARK  7 active torsions:
REMARK  status: ('A' for Active; 'I' for Inactive)
REMARK    1  A    between atoms: O_2  and  C_3
REMARK    2  A    between atoms: C_5  and  C_6
REMARK    3  A    between atoms: N_7  and  N_8
REMARK    4  A    between atoms: C_9  and  C_11
REMARK    5  A    between atoms: C_26  and  O_27
REMARK    6  A    between atoms: O_27  and  C_28
REMARK    7  A    between atoms: C_28  and  C_29
REMARK                            x       y       z     vdW  Elec       q    Type
REMARK                         _______ _______ _______ _____ _____    ______ ____
ROOT
ATOM      1  N   UNL     1      36.634   1.684   9.951  0.00  0.00    +0.000 NA
ATOM      2  C   UNL     1      37.180   1.642   8.641  0.00  0.00    +0.000 C 
ATOM      3  O   UNL     1      38.205   0.975   8.429  0.00  0.00    +0.000 OA
ENDROOT
BRANCH   2   4
ATOM      4  C   UNL     1      36.491   2.400   7.588  0.00  0.00    +0.000 A 
ATOM      5  C   UNL     1      35.905   3.643   7.691  0.00  0.00    +0.000 A 
ATOM      6  C   UNL     1      35.373   3.977   6.459  0.00  0.00    +0.000 A 
ATOM      7  C   UNL     1      35.664   2.900   5.645  0.00  0.00    +0.000 A 
ATOM      8  C   UNL     1      35.245   2.947   4.318  0.00  0.00    +0.000 A 
ATOM      9  C   UNL     1      34.556   4.056   3.845  0.00  0.00    +0.000 A 
ATOM     10  C   UNL     1      34.259   5.139   4.652  0.00  0.00    +0.000 A 
ATOM     11  C   UNL     1      33.569   6.248   4.183  0.00  0.00    +0.000 A 
ATOM     12  C   UNL     1      33.297   7.309   5.034  0.00  0.00    +0.000 A 
ATOM     13  C   UNL     1      33.713   7.251   6.337  0.00  0.00    +0.000 A 
ATOM     14  C   UNL     1      34.400   6.136   6.785  0.00  0.00    +0.000 A 
ATOM     15  C   UNL     1      34.684   5.067   5.962  0.00  0.00    +0.000 A 
ATOM     16  O   UNL     1      36.321   1.994   6.347  0.00  0.00    +0.000 OA
ENDBRANCH   2   4
BRANCH   1  18
ATOM     17  C   UNL     1      36.583   0.767  12.135  0.00  0.00    +0.000 C 
ATOM     18  N   UNL     1      37.172   1.023  11.035  0.00  0.00    +0.000 NA
BRANCH  17  21
ATOM     19  C   UNL     1      37.548  -0.444  15.559  0.00  0.00    +0.000 A 
ATOM     20  C   UNL     1      36.899   0.231  14.542  0.00  0.00    +0.000 A 
ATOM     21  C   UNL     1      37.273   0.048  13.226  0.00  0.00    +0.000 A 
ATOM     22  C   UNL     1      38.307  -0.823  12.957  0.00  0.00    +0.000 A 
ATOM     23  C   UNL     1      38.972  -1.510  13.952  0.00  0.00    +0.000 A 
ATOM     24  C   UNL     1      38.578  -1.310  15.268  0.00  0.00    +0.000 A 
BRANCH  19  26
ATOM     25  C   UNL     1      35.975   0.364  17.253  0.00  0.00    +0.000 C 
ATOM     26  O   UNL     1      37.184  -0.272  16.892  0.00  0.00    +0.000 OA
ENDBRANCH  19  26
BRANCH  24  27
ATOM     27  O   UNL     1      39.208  -1.971  16.305  0.00  0.00    +0.000 OA
BRANCH  27  28
ATOM     28  C   UNL     1      39.553  -3.333  16.262  0.00  0.00    +0.000 C 
BRANCH  28  29
ATOM     29  C   UNL     1      38.725  -4.023  17.350  0.00  0.00    +0.000 C 
ATOM     30  C   UNL     1      37.316  -4.248  16.793  0.00  0.00    +0.000 C 
ATOM     31  C   UNL     1      38.594  -3.052  18.511  0.00  0.00    +0.000 C 
ENDBRANCH  28  29
ENDBRANCH  27  28
ENDBRANCH  24  27
ENDBRANCH  17  21
ENDBRANCH   1  18
TORSDOF 7
ENDMDL
MODEL 6
REMARK VINA RESULT:      -7.3     22.484     26.032
REMARK  Name = 
REMARK  7 active torsions:
REMARK  status: ('A' for Active; 'I' for Inactive)
REMARK    1  A    between atoms: O_2  and  C_3
REMARK    2  A    between atoms: C_5  and  C_6
REMARK    3  A    between atoms: N_7  and  N_8
REMARK    4  A    between atoms: C_9  and  C_11
REMARK    5  A    between atoms: C_26  and  O_27
REMARK    6  A    between atoms: O_27  and  C_28
REMARK    7  A    between atoms: C_28  and  C_29
REMARK                            x       y       z     vdW  Elec       q    Type
REMARK                         _______ _______ _______ _____ _____    ______ ____
ROOT
ATOM      1  N   UNL     1      15.623   0.139  27.429  0.00  0.00    +0.000 NA
ATOM      2  C   UNL     1      17.040   0.128  27.510  0.00  0.00    +0.000 C 
ATOM      3  O   UNL     1      17.593   0.531  28.546  0.00  0.00    +0.000 OA
ENDROOT
BRANCH   2   4
ATOM      4  C   UNL     1      17.789  -0.369  26.348  0.00  0.00    +0.000 A 
ATOM      5  C   UNL     1      18.459   0.371  25.398  0.00  0.00    +0.000 A 
ATOM      6  C   UNL     1      19.022  -0.501  24.486  0.00  0.00    +0.000 A 
ATOM      7  C   UNL     1      18.662  -1.758  24.928  0.00  0.00    +0.000 A 
ATOM      8  C   UNL     1      19.093  -2.862  24.197  0.00  0.00    +0.000 A 
ATOM      9  C   UNL     1      19.863  -2.681  23.055  0.00  0.00    +0.000 A 
ATOM     10  C   UNL     1      20.228  -1.427  22.603  0.00  0.00    +0.000 A 
ATOM     11  C   UNL     1      20.997  -1.244  21.462  0.00  0.00    +0.000 A 
ATOM     12  C   UNL     1      21.337   0.037  21.051  0.00  0.00    +0.000 A 
ATOM     13  C   UNL     1      20.908   1.114  21.778  0.00  0.00    +0.000 A 
ATOM     14  C   UNL     1      20.142   0.910  22.913  0.00  0.00    +0.000 A 
ATOM     15  C   UNL     1      19.789  -0.351  23.345  0.00  0.00    +0.000 A 
ATOM     16  O   UNL     1      17.937  -1.637  26.026  0.00  0.00    +0.000 OA
ENDBRANCH   2   4
BRANCH   1  18
ATOM     17  C   UNL     1      13.757  -0.021  28.880  0.00  0.00    +0.000 C 
ATOM     18  N   UNL     1      14.792   0.576  28.439  0.00  0.00    +0.000 NA
BRANCH  17  21
ATOM     19  C   UNL     1      12.645   1.095  32.293  0.00  0.00    +0.000 A 
ATOM     20  C   UNL     1      13.408   0.555  31.274  0.00  0.00    +0.000 A 
ATOM     21  C   UNL     1      12.946   0.555  29.973  0.00  0.00    +0.000 A 
ATOM     22  C   UNL     1      11.708   1.106  29.721  0.00  0.00    +0.000 A 
ATOM     23  C   UNL     1      10.925   1.651  30.718  0.00  0.00    +0.000 A 
ATOM     24  C   UNL     1      11.412   1.640  32.019  0.00  0.00    +0.000 A 
BRANCH  19  26
ATOM     25  C   UNL     1      13.886   0.053  34.129  0.00  0.00    +0.000 C 
ATOM     26  O   UNL     1      13.095   1.104  33.610  0.00  0.00    +0.000 OA
ENDBRANCH  19  26
BRANCH  24  27
ATOM     27  O   UNL     1      10.670   2.173  33.056  0.00  0.00    +0.000 OA
BRANCH  27  28
ATOM     28  C   UNL     1      10.483   3.552  33.249  0.00  0.00    +0.000 C 
BRANCH  28  29
ATOM     29  C   UNL     1      11.213   3.910  34.547  0.00  0.00    +0.000 C 
ATOM     30  C   UNL     1      10.315   4.866  35.339  0.00  0.00    +0.000 C 
ATOM     31  C   UNL     1      12.464   4.685  34.172  0.00  0.00    +0.000 C 
ENDBRANCH  28  29
ENDBRANCH  27  28
ENDBRANCH  24  27
ENDBRANCH  17  21
ENDBRANCH   1  18
TORSDOF 7
ENDMDL
MODEL 7
REMARK VINA RESULT:      -7.3     26.288     29.295
REMARK  Name = 
REMARK  7 active torsions:
REMARK  status: ('A' for Active; 'I' for Inactive)
REMARK    1  A    between atoms: O_2  and  C_3
REMARK    2  A    between atoms: C_5  and  C_6
REMARK    3  A    between atoms: N_7  and  N_8
REMARK    4  A    between atoms: C_9  and  C_11
REMARK    5  A    between atoms: C_26  and  O_27
REMARK    6  A    between atoms: O_27  and  C_28
REMARK    7  A    between atoms: C_28  and  C_29
REMARK                            x       y       z     vdW  Elec       q    Type
REMARK                         _______ _______ _______ _____ _____    ______ ____
ROOT
ATOM      1  N   UNL     1      11.671   0.895   8.670  0.00  0.00    +0.000 NA
ATOM      2  C   UNL     1      11.793  -0.501   8.896  0.00  0.00    +0.000 C 
ATOM      3  O   UNL     1      10.995  -1.067   9.660  0.00  0.00    +0.000 OA
ENDROOT
BRANCH   2   4
ATOM      4  C   UNL     1      12.874  -1.215   8.202  0.00  0.00    +0.000 A 
ATOM      5  C   UNL     1      13.721  -0.724   7.233  0.00  0.00    +0.000 A 
ATOM      6  C   UNL     1      14.585  -1.736   6.857  0.00  0.00    +0.000 A 
ATOM      7  C   UNL     1      14.219  -2.819   7.630  0.00  0.00    +0.000 A 
ATOM      8  C   UNL     1      14.923  -4.010   7.472  0.00  0.00    +0.000 A 
ATOM      9  C   UNL     1      15.964  -4.084   6.556  0.00  0.00    +0.000 A 
ATOM     10  C   UNL     1      16.339  -3.005   5.777  0.00  0.00    +0.000 A 
ATOM     11  C   UNL     1      17.379  -3.077   4.859  0.00  0.00    +0.000 A 
ATOM     12  C   UNL     1      17.716  -1.965   4.101  0.00  0.00    +0.000 A 
ATOM     13  C   UNL     1      17.015  -0.800   4.266  0.00  0.00    +0.000 A 
ATOM     14  C   UNL     1      15.982  -0.750   5.186  0.00  0.00    +0.000 A 
ATOM     15  C   UNL     1      15.625  -1.839   5.952  0.00  0.00    +0.000 A 
ATOM     16  O   UNL     1      13.208  -2.472   8.408  0.00  0.00    +0.000 OA
ENDBRANCH   2   4
BRANCH   1  18
ATOM     17  C   UNL     1      10.749   2.958   9.380  0.00  0.00    +0.000 C 
ATOM     18  N   UNL     1      10.708   1.692   9.251  0.00  0.00    +0.000 NA
BRANCH  17  21
ATOM     19  C   UNL     1       7.760   3.773  11.508  0.00  0.00    +0.000 A 
ATOM     20  C   UNL     1       8.790   3.073  10.907  0.00  0.00    +0.000 A 
ATOM     21  C   UNL     1       9.646   3.701  10.025  0.00  0.00    +0.000 A 
ATOM     22  C   UNL     1       9.446   5.039   9.763  0.00  0.00    +0.000 A 
ATOM     23  C   UNL     1       8.426   5.762  10.347  0.00  0.00    +0.000 A 
ATOM     24  C   UNL     1       7.577   5.109  11.231  0.00  0.00    +0.000 A 
BRANCH  19  26
ATOM     25  C   UNL     1       7.288   2.810  13.709  0.00  0.00    +0.000 C 
ATOM     26  O   UNL     1       6.886   3.156  12.399  0.00  0.00    +0.000 OA
ENDBRANCH  19  26
BRANCH  24  27
ATOM     27  O   UNL     1       6.540   5.783  11.846  0.00  0.00    +0.000 OA
BRANCH  27  28
ATOM     28  C   UNL     1       5.381   6.206  11.173  0.00  0.00    +0.000 C 
BRANCH  28  29
ATOM     29  C   UNL     1       4.500   6.894  12.220  0.00  0.00    +0.000 C 
ATOM     30  C   UNL     1       4.083   5.836  13.248  0.00  0.00    +0.000 C 
ATOM     31  C   UNL     1       3.233   7.356  11.520  0.00  0.00    +0.000 C 
ENDBRANCH  28  29
ENDBRANCH  27  28
ENDBRANCH  24  27
ENDBRANCH  17  21
ENDBRANCH   1  18
TORSDOF 7
ENDMDL
MODEL 8
REMARK VINA RESULT:      -7.2     23.000     27.005
REMARK  Name = 
REMARK  7 active torsions:
REMARK  status: ('A' for Active; 'I' for Inactive)
REMARK    1  A    between atoms: O_2  and  C_3
REMARK    2  A    between atoms: C_5  and  C_6
REMARK    3  A    between atoms: N_7  and  N_8
REMARK    4  A    between atoms: C_9  and  C_11
REMARK    5  A    between atoms: C_26  and  O_27
REMARK    6  A    between atoms: O_27  and  C_28
REMARK    7  A    between atoms: C_28  and  C_29
REMARK                            x       y       z     vdW  Elec       q    Type
REMARK                         _______ _______ _______ _____ _____    ______ ____
ROOT
ATOM      1  N   UNL     1      15.527   0.308  27.519  0.00  0.00    +0.000 NA
ATOM      2  C   UNL     1      16.936   0.302  27.695  0.00  0.00    +0.000 C 
ATOM      3  O   UNL     1      17.406   0.298  28.844  0.00  0.00    +0.000 OA
ENDROOT
BRANCH   2   4
ATOM      4  C   UNL     1      17.776   0.299  26.490  0.00  0.00    +0.000 A 
ATOM      5  C   UNL     1      18.125  -0.780  25.708  0.00  0.00    +0.000 A 
ATOM      6  C   UNL     1      18.927  -0.329  24.676  0.00  0.00    +0.000 A 
ATOM      7  C   UNL     1      19.032   1.033  24.880  0.00  0.00    +0.000 A 
ATOM      8  C   UNL     1      19.794   1.775  23.981  0.00  0.00    +0.000 A 
ATOM      9  C   UNL     1      20.422   1.144  22.915  0.00  0.00    +0.000 A 
ATOM     10  C   UNL     1      20.323  -0.218  22.703  0.00  0.00    +0.000 A 
ATOM     11  C   UNL     1      20.950  -0.852  21.639  0.00  0.00    +0.000 A 
ATOM     12  C   UNL     1      20.818  -2.223  21.470  0.00  0.00    +0.000 A 
ATOM     13  C   UNL     1      20.067  -2.942  22.360  0.00  0.00    +0.000 A 
ATOM     14  C   UNL     1      19.450  -2.291  23.415  0.00  0.00    +0.000 A 
ATOM     15  C   UNL     1      19.563  -0.930  23.607  0.00  0.00    +0.000 A 
ATOM     16  O   UNL     1      18.342   1.362  25.957  0.00  0.00    +0.000 OA
ENDBRANCH   2   4
BRANCH   1  18
ATOM     17  C   UNL     1      13.482  -0.266  28.568  0.00  0.00    +0.000 C 
ATOM     18  N   UNL     1      14.617   0.311  28.555  0.00  0.00    +0.000 NA
BRANCH  17  21
ATOM     19  C   UNL     1      11.219   1.084  31.248  0.00  0.00    +0.000 A 
ATOM     20  C   UNL     1      12.050   1.016  30.145  0.00  0.00    +0.000 A 
ATOM     21  C   UNL     1      12.594  -0.188  29.747  0.00  0.00    +0.000 A 
ATOM     22  C   UNL     1      12.287  -1.316  30.478  0.00  0.00    +0.000 A 
ATOM     23  C   UNL     1      11.462  -1.277  31.583  0.00  0.00    +0.000 A 
ATOM     24  C   UNL     1      10.926  -0.054  31.964  0.00  0.00    +0.000 A 
BRANCH  19  26
ATOM     25  C   UNL     1       9.739   2.995  30.858  0.00  0.00    +0.000 C 
ATOM     26  O   UNL     1      10.662   2.290  31.664  0.00  0.00    +0.000 OA
ENDBRANCH  19  26
BRANCH  24  27
ATOM     27  O   UNL     1      10.093   0.043  33.062  0.00  0.00    +0.000 OA
BRANCH  27  28
ATOM     28  C   UNL     1       9.006  -0.818  33.292  0.00  0.00    +0.000 C 
BRANCH  28  29
ATOM     29  C   UNL     1       7.784  -0.151  32.654  0.00  0.00    +0.000 C 
ATOM     30  C   UNL     1       7.579   1.203  33.340  0.00  0.00    +0.000 C 
ATOM     31  C   UNL     1       6.571  -1.005  32.985  0.00  0.00    +0.000 C 
ENDBRANCH  28  29
ENDBRANCH  27  28
ENDBRANCH  24  27
ENDBRANCH  17  21
ENDBRANCH   1  18
TORSDOF 7
ENDMDL
MODEL 9
REMARK VINA RESULT:      -7.1      2.582     12.272
REMARK  Name = 
REMARK  7 active torsions:
REMARK  status: ('A' for Active; 'I' for Inactive)
REMARK    1  A    between atoms: O_2  and  C_3
REMARK    2  A    between atoms: C_5  and  C_6
REMARK    3  A    between atoms: N_7  and  N_8
REMARK    4  A    between atoms: C_9  and  C_11
REMARK    5  A    between atoms: C_26  and  O_27
REMARK    6  A    between atoms: O_27  and  C_28
REMARK    7  A    between atoms: C_28  and  C_29
REMARK                            x       y       z     vdW  Elec       q    Type
REMARK                         _______ _______ _______ _____ _____    ______ ____
ROOT
ATOM      1  N   UNL     1      37.147   2.156  16.431  0.00  0.00    +0.000 NA
ATOM      2  C   UNL     1      37.649   3.127  15.525  0.00  0.00    +0.000 C 
ATOM      3  O   UNL     1      37.860   2.807  14.345  0.00  0.00    +0.000 OA
ENDROOT
BRANCH   2   4
ATOM      4  C   UNL     1      37.895   4.481  16.040  0.00  0.00    +0.000 A 
ATOM      5  C   UNL     1      38.378   4.836  17.281  0.00  0.00    +0.000 A 
ATOM      6  C   UNL     1      38.452   6.215  17.341  0.00  0.00    +0.000 A 
ATOM      7  C   UNL     1      38.002   6.647  16.110  0.00  0.00    +0.000 A 
ATOM      8  C   UNL     1      37.961   8.018  15.868  0.00  0.00    +0.000 A 
ATOM      9  C   UNL     1      38.367   8.909  16.852  0.00  0.00    +0.000 A 
ATOM     10  C   UNL     1      38.820   8.487  18.089  0.00  0.00    +0.000 A 
ATOM     11  C   UNL     1      39.226   9.375  19.074  0.00  0.00    +0.000 A 
ATOM     12  C   UNL     1      39.672   8.899  20.299  0.00  0.00    +0.000 A 
ATOM     13  C   UNL     1      39.707   7.550  20.525  0.00  0.00    +0.000 A 
ATOM     14  C   UNL     1      39.298   6.680  19.528  0.00  0.00    +0.000 A 
ATOM     15  C   UNL     1      38.850   7.125  18.302  0.00  0.00    +0.000 A 
ATOM     16  O   UNL     1      37.683   5.596  15.374  0.00  0.00    +0.000 OA
ENDBRANCH   2   4
BRANCH   1  18
ATOM     17  C   UNL     1      35.878   0.156  16.487  0.00  0.00    +0.000 C 
ATOM     18  N   UNL     1      36.870   0.849  16.090  0.00  0.00    +0.000 NA
BRANCH  17  21
ATOM     19  C   UNL     1      36.369  -3.124  14.719  0.00  0.00    +0.000 A 
ATOM     20  C   UNL     1      36.547  -1.816  15.128  0.00  0.00    +0.000 A 
ATOM     21  C   UNL     1      35.692  -1.242  16.046  0.00  0.00    +0.000 A 
ATOM     22  C   UNL     1      34.659  -2.009  16.543  0.00  0.00    +0.000 A 
ATOM     23  C   UNL     1      34.457  -3.316  16.152  0.00  0.00    +0.000 A 
ATOM     24  C   UNL     1      35.331  -3.872  15.227  0.00  0.00    +0.000 A 
BRANCH  19  26
ATOM     25  C   UNL     1      38.321  -3.019  13.244  0.00  0.00    +0.000 C 
ATOM     26  O   UNL     1      37.222  -3.718  13.793  0.00  0.00    +0.000 OA
ENDBRANCH  19  26
BRANCH  24  27
ATOM     27  O   UNL     1      35.176  -5.177  14.801  0.00  0.00    +0.000 OA
BRANCH  27  28
ATOM     28  C   UNL     1      33.956  -5.706  14.346  0.00  0.00    +0.000 C 
BRANCH  28  29
ATOM     29  C   UNL     1      33.681  -6.951  15.196  0.00  0.00    +0.000 C 
ATOM     30  C   UNL     1      34.860  -7.129  16.158  0.00  0.00    +0.000 C 
ATOM     31  C   UNL     1      33.682  -8.151  14.265  0.00  0.00    +0.000 C 
ENDBRANCH  28  29
ENDBRANCH  27  28
ENDBRANCH  24  27
ENDBRANCH  17  21
ENDBRANCH   1  18
TORSDOF 7
ENDMDL
MODEL 10
REMARK VINA RESULT:      -7.0      6.090      7.856
REMARK  Name = 
REMARK  7 active torsions:
REMARK  status: ('A' for Active; 'I' for Inactive)
REMARK    1  A    between atoms: O_2  and  C_3
REMARK    2  A    between atoms: C_5  and  C_6
REMARK    3  A    between atoms: N_7  and  N_8
REMARK    4  A    between atoms: C_9  and  C_11
REMARK    5  A    between atoms: C_26  and  O_27
REMARK    6  A    between atoms: O_27  and  C_28
REMARK    7  A    between atoms: C_28  and  C_29
REMARK                            x       y       z     vdW  Elec       q    Type
REMARK                         _______ _______ _______ _____ _____    ______ ____
ROOT
ATOM      1  N   UNL     1      35.931   3.350  14.398  0.00  0.00    +0.000 NA
ATOM      2  C   UNL     1      35.017   2.776  15.321  0.00  0.00    +0.000 C 
ATOM      3  O   UNL     1      33.852   3.200  15.368  0.00  0.00    +0.000 OA
ENDROOT
BRANCH   2   4
ATOM      4  C   UNL     1      35.508   1.694  16.185  0.00  0.00    +0.000 A 
ATOM      5  C   UNL     1      36.418   0.709  15.869  0.00  0.00    +0.000 A 
ATOM      6  C   UNL     1      36.588  -0.098  16.978  0.00  0.00    +0.000 A 
ATOM      7  C   UNL     1      35.758   0.442  17.940  0.00  0.00    +0.000 A 
ATOM      8  C   UNL     1      35.715  -0.170  19.190  0.00  0.00    +0.000 A 
ATOM      9  C   UNL     1      36.494  -1.291  19.443  0.00  0.00    +0.000 A 
ATOM     10  C   UNL     1      37.328  -1.840  18.486  0.00  0.00    +0.000 A 
ATOM     11  C   UNL     1      38.108  -2.961  18.736  0.00  0.00    +0.000 A 
ATOM     12  C   UNL     1      38.929  -3.473  17.741  0.00  0.00    +0.000 A 
ATOM     13  C   UNL     1      38.963  -2.863  16.516  0.00  0.00    +0.000 A 
ATOM     14  C   UNL     1      38.177  -1.746  16.288  0.00  0.00    +0.000 A 
ATOM     15  C   UNL     1      37.352  -1.216  17.257  0.00  0.00    +0.000 A 
ATOM     16  O   UNL     1      35.140   1.494  17.434  0.00  0.00    +0.000 OA
ENDBRANCH   2   4
BRANCH   1  18
ATOM     17  C   UNL     1      36.288   5.429  13.321  0.00  0.00    +0.000 C 
ATOM     18  N   UNL     1      35.612   4.370  13.526  0.00  0.00    +0.000 NA
BRANCH  17  21
ATOM     19  C   UNL     1      35.161   8.701  11.853  0.00  0.00    +0.000 A 
ATOM     20  C   UNL     1      35.583   7.748  12.761  0.00  0.00    +0.000 A 
ATOM     21  C   UNL     1      35.837   6.453  12.355  0.00  0.00    +0.000 A 
ATOM     22  C   UNL     1      35.659   6.141  11.024  0.00  0.00    +0.000 A 
ATOM     23  C   UNL     1      35.239   7.072  10.097  0.00  0.00    +0.000 A 
ATOM     24  C   UNL     1      34.990   8.368  10.529  0.00  0.00    +0.000 A 
BRANCH  19  26
ATOM     25  C   UNL     1      35.289  10.495  13.515  0.00  0.00    +0.000 C 
ATOM     26  O   UNL     1      34.900  10.011  12.246  0.00  0.00    +0.000 OA
ENDBRANCH  19  26
BRANCH  24  27
ATOM     27  O   UNL     1      34.568   9.341   9.644  0.00  0.00    +0.000 OA
BRANCH  27  28
ATOM     28  C   UNL     1      35.343   9.798   8.564  0.00  0.00    +0.000 C 
BRANCH  28  29
ATOM     29  C   UNL     1      34.395   9.905   7.366  0.00  0.00    +0.000 C 
ATOM     30  C   UNL     1      34.106   8.485   6.869  0.00  0.00    +0.000 C 
ATOM     31  C   UNL     1      35.141  10.622   6.254  0.00  0.00    +0.000 C 
ENDBRANCH  28  29
ENDBRANCH  27  28
ENDBRANCH  24  27
ENDBRANCH  17  21
ENDBRANCH   1  18
TORSDOF 7
ENDMDL
