MODEL 1
REMARK VINA RESULT:      -7.1      0.000      0.000
REMARK  Name = 
REMARK  3 active torsions:
REMARK  status: ('A' for Active; 'I' for Inactive)
REMARK    1  A    between atoms: C_2  and  C_5
REMARK    2  A    between atoms: C_8  and  O_9
REMARK    3  A    between atoms: O_9  and  C_10
REMARK                            x       y       z     vdW  Elec       q    Type
REMARK                         _______ _______ _______ _____ _____    ______ ____
ROOT
ATOM      1  C   UNL     1      15.518  11.862  33.176  0.00  0.00    +0.000 A 
ATOM      2  C   UNL     1      15.000  12.540  34.263  0.00  0.00    +0.000 A 
ATOM      3  C   UNL     1      15.458  12.237  35.533  0.00  0.00    +0.000 A 
ATOM      4  C   UNL     1      16.407  11.294  35.779  0.00  0.00    +0.000 A 
ATOM      5  C   UNL     1      16.948  10.592  34.688  0.00  0.00    +0.000 A 
ATOM      6 CL   UNL     1      18.186   9.365  34.946  0.00  0.00    +0.000 Cl
ATOM      7  C   UNL     1      16.479  10.907  33.431  0.00  0.00    +0.000 A 
ENDROOT
BRANCH   1   9
ATOM      8  C   UNL     1      13.942  13.225  31.796  0.00  0.00    +0.000 C 
ATOM      9  C   UNL     1      15.021  12.178  31.819  0.00  0.00    +0.000 C 
ATOM     10  C   UNL     1      16.145  12.635  30.898  0.00  0.00    +0.000 C 
ATOM     11  C   UNL     1      14.444  10.923  31.161  0.00  0.00    +0.000 C 
ENDBRANCH   1   9
BRANCH   4  12
ATOM     12  O   UNL     1      16.905  10.941  36.999  0.00  0.00    +0.000 OA
BRANCH  12  13
ATOM     13  C   UNL     1      18.009  11.392  37.647  0.00  0.00    +0.000 A 
ATOM     14  N   UNL     1      18.521  12.615  37.551  0.00  0.00    +0.000 NA
ATOM     15  C   UNL     1      19.635  13.034  38.222  0.00  0.00    +0.000 A 
ATOM     16  C   UNL     1      20.278  12.165  39.043  0.00  0.00    +0.000 A 
ATOM     17  C   UNL     1      19.790  10.869  39.185  0.00  0.00    +0.000 A 
ATOM     18  C   UNL     1      18.664  10.484  38.492  0.00  0.00    +0.000 A 
ATOM     19  N   UNL     1      18.200   9.151  38.657  0.00  0.00    +0.000 NA
ENDBRANCH  12  13
ENDBRANCH   4  12
TORSDOF 3
ENDMDL
MODEL 2
REMARK VINA RESULT:      -6.7      2.175      6.562
REMARK  Name = 
REMARK  3 active torsions:
REMARK  status: ('A' for Active; 'I' for Inactive)
REMARK    1  A    between atoms: C_2  and  C_5
REMARK    2  A    between atoms: C_8  and  O_9
REMARK    3  A    between atoms: O_9  and  C_10
REMARK                            x       y       z     vdW  Elec       q    Type
REMARK                         _______ _______ _______ _____ _____    ______ ____
ROOT
ATOM      1  C   UNL     1      19.215  11.651  37.713  0.00  0.00    +0.000 A 
ATOM      2  C   UNL     1      18.306  12.669  37.503  0.00  0.00    +0.000 A 
ATOM      3  C   UNL     1      17.217  12.446  36.678  0.00  0.00    +0.000 A 
ATOM      4  C   UNL     1      16.985  11.262  36.050  0.00  0.00    +0.000 A 
ATOM      5  C   UNL     1      17.898  10.212  36.250  0.00  0.00    +0.000 A 
ATOM      6 CL   UNL     1      17.645   8.653  35.470  0.00  0.00    +0.000 Cl
ATOM      7  C   UNL     1      18.976  10.452  37.074  0.00  0.00    +0.000 A 
ENDROOT
BRANCH   1   9
ATOM      8  C   UNL     1      20.584  13.335  38.952  0.00  0.00    +0.000 C 
ATOM      9  C   UNL     1      20.385  11.891  38.587  0.00  0.00    +0.000 C 
ATOM     10  C   UNL     1      20.303  11.082  39.875  0.00  0.00    +0.000 C 
ATOM     11  C   UNL     1      21.667  11.421  37.896  0.00  0.00    +0.000 C 
ENDBRANCH   1   9
BRANCH   4  12
ATOM     12  O   UNL     1      15.939  10.971  35.225  0.00  0.00    +0.000 OA
BRANCH  12  13
ATOM     13  C   UNL     1      15.772  11.246  33.907  0.00  0.00    +0.000 A 
ATOM     14  N   UNL     1      16.327  10.579  32.898  0.00  0.00    +0.000 NA
ATOM     15  C   UNL     1      16.134  10.884  31.581  0.00  0.00    +0.000 A 
ATOM     16  C   UNL     1      15.331  11.930  31.255  0.00  0.00    +0.000 A 
ATOM     17  C   UNL     1      14.723  12.668  32.268  0.00  0.00    +0.000 A 
ATOM     18  C   UNL     1      14.942  12.329  33.585  0.00  0.00    +0.000 A 
ATOM     19  N   UNL     1      14.309  13.109  34.590  0.00  0.00    +0.000 NA
ENDBRANCH  12  13
ENDBRANCH   4  12
TORSDOF 3
ENDMDL
MODEL 3
REMARK VINA RESULT:      -6.5      1.759      2.466
REMARK  Name = 
REMARK  3 active torsions:
REMARK  status: ('A' for Active; 'I' for Inactive)
REMARK    1  A    between atoms: C_2  and  C_5
REMARK    2  A    between atoms: C_8  and  O_9
REMARK    3  A    between atoms: O_9  and  C_10
REMARK                            x       y       z     vdW  Elec       q    Type
REMARK                         _______ _______ _______ _____ _____    ______ ____
ROOT
ATOM      1  C   UNL     1      15.680  11.195  33.564  0.00  0.00    +0.000 A 
ATOM      2  C   UNL     1      15.141  11.981  34.564  0.00  0.00    +0.000 A 
ATOM      3  C   UNL     1      15.691  11.936  35.833  0.00  0.00    +0.000 A 
ATOM      4  C   UNL     1      16.751  11.149  36.160  0.00  0.00    +0.000 A 
ATOM      5  C   UNL     1      17.315  10.341  35.158  0.00  0.00    +0.000 A 
ATOM      6 CL   UNL     1      18.694   9.306  35.521  0.00  0.00    +0.000 Cl
ATOM      7  C   UNL     1      16.754  10.398  33.900  0.00  0.00    +0.000 A 
ENDROOT
BRANCH   1   9
ATOM      8  C   UNL     1      14.169  10.081  31.914  0.00  0.00    +0.000 C 
ATOM      9  C   UNL     1      15.086  11.235  32.209  0.00  0.00    +0.000 C 
ATOM     10  C   UNL     1      14.316  12.527  31.968  0.00  0.00    +0.000 C 
ATOM     11  C   UNL     1      16.188  11.216  31.148  0.00  0.00    +0.000 C 
ENDBRANCH   1   9
BRANCH   4  12
ATOM     12  O   UNL     1      17.343  11.051  37.384  0.00  0.00    +0.000 OA
BRANCH  12  13
ATOM     13  C   UNL     1      16.895  10.458  38.520  0.00  0.00    +0.000 A 
ATOM     14  N   UNL     1      15.640  10.474  38.961  0.00  0.00    +0.000 NA
ATOM     15  C   UNL     1      15.224   9.863  40.109  0.00  0.00    +0.000 A 
ATOM     16  C   UNL     1      16.130   9.194  40.867  0.00  0.00    +0.000 A 
ATOM     17  C   UNL     1      17.460   9.143  40.459  0.00  0.00    +0.000 A 
ATOM     18  C   UNL     1      17.841   9.771  39.294  0.00  0.00    +0.000 A 
ATOM     19  N   UNL     1      19.208   9.702  38.913  0.00  0.00    +0.000 NA
ENDBRANCH  12  13
ENDBRANCH   4  12
TORSDOF 3
ENDMDL
MODEL 4
REMARK VINA RESULT:      -6.3     17.683     19.785
REMARK  Name = 
REMARK  3 active torsions:
REMARK  status: ('A' for Active; 'I' for Inactive)
REMARK    1  A    between atoms: C_2  and  C_5
REMARK    2  A    between atoms: C_8  and  O_9
REMARK    3  A    between atoms: O_9  and  C_10
REMARK                            x       y       z     vdW  Elec       q    Type
REMARK                         _______ _______ _______ _____ _____    ______ ____
ROOT
ATOM      1  C   UNL     1      27.315  22.955  28.499  0.00  0.00    +0.000 A 
ATOM      2  C   UNL     1      26.276  23.414  27.712  0.00  0.00    +0.000 A 
ATOM      3  C   UNL     1      26.436  23.461  26.338  0.00  0.00    +0.000 A 
ATOM      4  C   UNL     1      27.576  23.075  25.705  0.00  0.00    +0.000 A 
ATOM      5  C   UNL     1      28.646  22.605  26.487  0.00  0.00    +0.000 A 
ATOM      6 CL   UNL     1      30.145  22.083  25.722  0.00  0.00    +0.000 Cl
ATOM      7  C   UNL     1      28.469  22.565  27.853  0.00  0.00    +0.000 A 
ENDROOT
BRANCH   1   9
ATOM      8  C   UNL     1      28.446  22.938  30.727  0.00  0.00    +0.000 C 
ATOM      9  C   UNL     1      27.148  22.914  29.969  0.00  0.00    +0.000 C 
ATOM     10  C   UNL     1      26.283  24.063  30.472  0.00  0.00    +0.000 C 
ATOM     11  C   UNL     1      26.409  21.640  30.382  0.00  0.00    +0.000 C 
ENDBRANCH   1   9
BRANCH   4  12
ATOM     12  O   UNL     1      27.807  23.095  24.361  0.00  0.00    +0.000 OA
BRANCH  12  13
ATOM     13  C   UNL     1      28.095  24.141  23.546  0.00  0.00    +0.000 A 
ATOM     14  N   UNL     1      29.037  25.054  23.758  0.00  0.00    +0.000 NA
ATOM     15  C   UNL     1      29.301  26.094  22.913  0.00  0.00    +0.000 A 
ATOM     16  C   UNL     1      28.566  26.226  21.779  0.00  0.00    +0.000 A 
ATOM     17  C   UNL     1      27.562  25.301  21.501  0.00  0.00    +0.000 A 
ATOM     18  C   UNL     1      27.327  24.266  22.379  0.00  0.00    +0.000 A 
ATOM     19  N   UNL     1      26.291  23.346  22.065  0.00  0.00    +0.000 NA
ENDBRANCH  12  13
ENDBRANCH   4  12
TORSDOF 3
ENDMDL
MODEL 5
REMARK VINA RESULT:      -5.9     18.826     21.056
REMARK  Name = 
REMARK  3 active torsions:
REMARK  status: ('A' for Active; 'I' for Inactive)
REMARK    1  A    between atoms: C_2  and  C_5
REMARK    2  A    between atoms: C_8  and  O_9
REMARK    3  A    between atoms: O_9  and  C_10
REMARK                            x       y       z     vdW  Elec       q    Type
REMARK                         _______ _______ _______ _____ _____    ______ ____
ROOT
ATOM      1  C   UNL     1      30.751  22.685  27.615  0.00  0.00    +0.000 A 
ATOM      2  C   UNL     1      31.538  22.805  26.485  0.00  0.00    +0.000 A 
ATOM      3  C   UNL     1      30.938  22.813  25.238  0.00  0.00    +0.000 A 
ATOM      4  C   UNL     1      29.595  22.708  25.055  0.00  0.00    +0.000 A 
ATOM      5  C   UNL     1      28.775  22.585  26.190  0.00  0.00    +0.000 A 
ATOM      6 CL   UNL     1      27.026  22.454  26.015  0.00  0.00    +0.000 Cl
ATOM      7  C   UNL     1      29.390  22.579  27.424  0.00  0.00    +0.000 A 
ENDROOT
BRANCH   1   9
ATOM      8  C   UNL     1      30.416  22.668  30.091  0.00  0.00    +0.000 C 
ATOM      9  C   UNL     1      31.392  22.667  28.948  0.00  0.00    +0.000 C 
ATOM     10  C   UNL     1      32.315  21.466  29.114  0.00  0.00    +0.000 C 
ATOM     11  C   UNL     1      32.290  23.893  29.121  0.00  0.00    +0.000 C 
ENDBRANCH   1   9
BRANCH   4  12
ATOM     12  O   UNL     1      28.934  22.707  23.862  0.00  0.00    +0.000 OA
BRANCH  12  13
ATOM     13  C   UNL     1      28.772  23.708  22.960  0.00  0.00    +0.000 A 
ATOM     14  N   UNL     1      29.737  24.493  22.490  0.00  0.00    +0.000 NA
ATOM     15  C   UNL     1      29.537  25.490  21.579  0.00  0.00    +0.000 A 
ATOM     16  C   UNL     1      28.282  25.715  21.110  0.00  0.00    +0.000 A 
ATOM     17  C   UNL     1      27.229  24.927  21.566  0.00  0.00    +0.000 A 
ATOM     18  C   UNL     1      27.472  23.930  22.485  0.00  0.00    +0.000 A 
ATOM     19  N   UNL     1      26.371  23.150  22.931  0.00  0.00    +0.000 NA
ENDBRANCH  12  13
ENDBRANCH   4  12
TORSDOF 3
ENDMDL
MODEL 6
REMARK VINA RESULT:      -5.9     20.350     21.805
REMARK  Name = 
REMARK  3 active torsions:
REMARK  status: ('A' for Active; 'I' for Inactive)
REMARK    1  A    between atoms: C_2  and  C_5
REMARK    2  A    between atoms: C_8  and  O_9
REMARK    3  A    between atoms: O_9  and  C_10
REMARK                            x       y       z     vdW  Elec       q    Type
REMARK                         _______ _______ _______ _____ _____    ______ ____
ROOT
ATOM      1  C   UNL     1      25.684   4.532  17.828  0.00  0.00    +0.000 A 
ATOM      2  C   UNL     1      24.379   4.872  18.129  0.00  0.00    +0.000 A 
ATOM      3  C   UNL     1      23.414   3.882  18.181  0.00  0.00    +0.000 A 
ATOM      4  C   UNL     1      23.679   2.568  17.947  0.00  0.00    +0.000 A 
ATOM      5  C   UNL     1      24.999   2.199  17.639  0.00  0.00    +0.000 A 
ATOM      6 CL   UNL     1      25.404   0.511  17.336  0.00  0.00    +0.000 Cl
ATOM      7  C   UNL     1      25.947   3.199  17.592  0.00  0.00    +0.000 A 
ENDROOT
BRANCH   1   9
ATOM      8  C   UNL     1      27.435   5.818  19.063  0.00  0.00    +0.000 C 
ATOM      9  C   UNL     1      26.715   5.591  17.763  0.00  0.00    +0.000 C 
ATOM     10  C   UNL     1      27.755   5.302  16.688  0.00  0.00    +0.000 C 
ATOM     11  C   UNL     1      26.079   6.924  17.363  0.00  0.00    +0.000 C 
ENDBRANCH   1   9
BRANCH   4  12
ATOM     12  O   UNL     1      22.783   1.540  17.978  0.00  0.00    +0.000 OA
BRANCH  12  13
ATOM     13  C   UNL     1      21.528   1.468  17.465  0.00  0.00    +0.000 A 
ATOM     14  N   UNL     1      20.442   2.031  17.987  0.00  0.00    +0.000 NA
ATOM     15  C   UNL     1      19.194   1.938  17.440  0.00  0.00    +0.000 A 
ATOM     16  C   UNL     1      19.026   1.230  16.294  0.00  0.00    +0.000 A 
ATOM     17  C   UNL     1      20.125   0.615  15.700  0.00  0.00    +0.000 A 
ATOM     18  C   UNL     1      21.369   0.733  16.282  0.00  0.00    +0.000 A 
ATOM     19  N   UNL     1      22.465   0.087  15.650  0.00  0.00    +0.000 NA
ENDBRANCH  12  13
ENDBRANCH   4  12
TORSDOF 3
ENDMDL
MODEL 7
REMARK VINA RESULT:      -5.9     20.947     22.536
REMARK  Name = 
REMARK  3 active torsions:
REMARK  status: ('A' for Active; 'I' for Inactive)
REMARK    1  A    between atoms: C_2  and  C_5
REMARK    2  A    between atoms: C_8  and  O_9
REMARK    3  A    between atoms: O_9  and  C_10
REMARK                            x       y       z     vdW  Elec       q    Type
REMARK                         _______ _______ _______ _____ _____    ______ ____
ROOT
ATOM      1  C   UNL     1      21.929  -7.520  24.891  0.00  0.00    +0.000 A 
ATOM      2  C   UNL     1      21.529  -8.751  25.374  0.00  0.00    +0.000 A 
ATOM      3  C   UNL     1      20.363  -8.843  26.114  0.00  0.00    +0.000 A 
ATOM      4  C   UNL     1      19.573  -7.774  26.398  0.00  0.00    +0.000 A 
ATOM      5  C   UNL     1      19.960  -6.512  25.916  0.00  0.00    +0.000 A 
ATOM      6 CL   UNL     1      18.971  -5.091  26.246  0.00  0.00    +0.000 Cl
ATOM      7  C   UNL     1      21.125  -6.439  25.182  0.00  0.00    +0.000 A 
ENDROOT
BRANCH   1   9
ATOM      8  C   UNL     1      24.001  -6.200  24.431  0.00  0.00    +0.000 C 
ATOM      9  C   UNL     1      23.181  -7.419  24.109  0.00  0.00    +0.000 C 
ATOM     10  C   UNL     1      24.063  -8.647  24.294  0.00  0.00    +0.000 C 
ATOM     11  C   UNL     1      22.868  -7.368  22.613  0.00  0.00    +0.000 C 
ENDBRANCH   1   9
BRANCH   4  12
ATOM     12  O   UNL     1      18.415  -7.787  27.119  0.00  0.00    +0.000 OA
BRANCH  12  13
ATOM     13  C   UNL     1      17.219  -8.361  26.829  0.00  0.00    +0.000 A 
ATOM     14  N   UNL     1      16.301  -7.868  26.004  0.00  0.00    +0.000 NA
ATOM     15  C   UNL     1      15.108  -8.475  25.734  0.00  0.00    +0.000 A 
ATOM     16  C   UNL     1      14.818  -9.658  26.336  0.00  0.00    +0.000 A 
ATOM     17  C   UNL     1      15.739 -10.224  27.212  0.00  0.00    +0.000 A 
ATOM     18  C   UNL     1      16.932  -9.581  27.458  0.00  0.00    +0.000 A 
ATOM     19  N   UNL     1      17.844 -10.187  28.363  0.00  0.00    +0.000 NA
ENDBRANCH  12  13
ENDBRANCH   4  12
TORSDOF 3
ENDMDL
MODEL 8
REMARK VINA RESULT:      -5.7      1.885      6.740
REMARK  Name = 
REMARK  3 active torsions:
REMARK  status: ('A' for Active; 'I' for Inactive)
REMARK    1  A    between atoms: C_2  and  C_5
REMARK    2  A    between atoms: C_8  and  O_9
REMARK    3  A    between atoms: O_9  and  C_10
REMARK                            x       y       z     vdW  Elec       q    Type
REMARK                         _______ _______ _______ _____ _____    ______ ____
ROOT
ATOM      1  C   UNL     1      20.404  12.531  38.836  0.00  0.00    +0.000 A 
ATOM      2  C   UNL     1      19.562  13.342  38.101  0.00  0.00    +0.000 A 
ATOM      3  C   UNL     1      18.453  12.789  37.485  0.00  0.00    +0.000 A 
ATOM      4  C   UNL     1      18.138  11.468  37.562  0.00  0.00    +0.000 A 
ATOM      5  C   UNL     1      18.981  10.624  38.305  0.00  0.00    +0.000 A 
ATOM      6 CL   UNL     1      18.619   8.905  38.448  0.00  0.00    +0.000 Cl
ATOM      7  C   UNL     1      20.081  11.193  38.911  0.00  0.00    +0.000 A 
ENDROOT
BRANCH   1   9
ATOM      8  C   UNL     1      21.643  12.907  40.973  0.00  0.00    +0.000 C 
ATOM      9  C   UNL     1      21.596  13.121  39.486  0.00  0.00    +0.000 C 
ATOM     10  C   UNL     1      22.890  12.583  38.888  0.00  0.00    +0.000 C 
ATOM     11  C   UNL     1      21.636  14.631  39.247  0.00  0.00    +0.000 C 
ENDBRANCH   1   9
BRANCH   4  12
ATOM     12  O   UNL     1      17.068  10.852  36.984  0.00  0.00    +0.000 OA
BRANCH  12  13
ATOM     13  C   UNL     1      16.485  11.077  35.778  0.00  0.00    +0.000 A 
ATOM     14  N   UNL     1      15.551  11.989  35.525  0.00  0.00    +0.000 NA
ATOM     15  C   UNL     1      14.988  12.189  34.297  0.00  0.00    +0.000 A 
ATOM     16  C   UNL     1      15.390  11.419  33.253  0.00  0.00    +0.000 A 
ATOM     17  C   UNL     1      16.364  10.445  33.456  0.00  0.00    +0.000 A 
ATOM     18  C   UNL     1      16.908  10.274  34.709  0.00  0.00    +0.000 A 
ATOM     19  N   UNL     1      17.895   9.266  34.878  0.00  0.00    +0.000 NA
ENDBRANCH  12  13
ENDBRANCH   4  12
TORSDOF 3
ENDMDL
MODEL 9
REMARK VINA RESULT:      -5.6     17.316     18.670
REMARK  Name = 
REMARK  3 active torsions:
REMARK  status: ('A' for Active; 'I' for Inactive)
REMARK    1  A    between atoms: C_2  and  C_5
REMARK    2  A    between atoms: C_8  and  O_9
REMARK    3  A    between atoms: O_9  and  C_10
REMARK                            x       y       z     vdW  Elec       q    Type
REMARK                         _______ _______ _______ _____ _____    ______ ____
ROOT
ATOM      1  C   UNL     1      24.927  25.578  28.776  0.00  0.00    +0.000 A 
ATOM      2  C   UNL     1      24.786  25.674  27.405  0.00  0.00    +0.000 A 
ATOM      3  C   UNL     1      25.395  24.734  26.592  0.00  0.00    +0.000 A 
ATOM      4  C   UNL     1      26.138  23.701  27.073  0.00  0.00    +0.000 A 
ATOM      5  C   UNL     1      26.294  23.584  28.465  0.00  0.00    +0.000 A 
ATOM      6 CL   UNL     1      27.239  22.261  29.145  0.00  0.00    +0.000 Cl
ATOM      7  C   UNL     1      25.681  24.529  29.258  0.00  0.00    +0.000 A 
ENDROOT
BRANCH   1   9
ATOM      8  C   UNL     1      24.896  27.957  29.539  0.00  0.00    +0.000 C 
ATOM      9  C   UNL     1      24.284  26.588  29.645  0.00  0.00    +0.000 C 
ATOM     10  C   UNL     1      22.793  26.712  29.360  0.00  0.00    +0.000 C 
ATOM     11  C   UNL     1      24.383  26.165  31.111  0.00  0.00    +0.000 C 
ENDBRANCH   1   9
BRANCH   4  12
ATOM     12  O   UNL     1      26.767  22.741  26.337  0.00  0.00    +0.000 OA
BRANCH  12  13
ATOM     13  C   UNL     1      27.986  22.766  25.739  0.00  0.00    +0.000 A 
ATOM     14  N   UNL     1      29.154  22.603  26.353  0.00  0.00    +0.000 NA
ATOM     15  C   UNL     1      30.363  22.632  25.717  0.00  0.00    +0.000 A 
ATOM     16  C   UNL     1      30.400  22.841  24.376  0.00  0.00    +0.000 A 
ATOM     17  C   UNL     1      29.209  23.020  23.678  0.00  0.00    +0.000 A 
ATOM     18  C   UNL     1      28.009  22.983  24.354  0.00  0.00    +0.000 A 
ATOM     19  N   UNL     1      26.815  23.176  23.609  0.00  0.00    +0.000 NA
ENDBRANCH  12  13
ENDBRANCH   4  12
TORSDOF 3
ENDMDL
MODEL 10
REMARK VINA RESULT:      -5.6     22.302     23.729
REMARK  Name = 
REMARK  3 active torsions:
REMARK  status: ('A' for Active; 'I' for Inactive)
REMARK    1  A    between atoms: C_2  and  C_5
REMARK    2  A    between atoms: C_8  and  O_9
REMARK    3  A    between atoms: O_9  and  C_10
REMARK                            x       y       z     vdW  Elec       q    Type
REMARK                         _______ _______ _______ _____ _____    ______ ____
ROOT
ATOM      1  C   UNL     1      34.067  -6.494  30.374  0.00  0.00    +0.000 A 
ATOM      2  C   UNL     1      33.101  -5.517  30.526  0.00  0.00    +0.000 A 
ATOM      3  C   UNL     1      33.120  -4.714  31.653  0.00  0.00    +0.000 A 
ATOM      4  C   UNL     1      34.050  -4.832  32.638  0.00  0.00    +0.000 A 
ATOM      5  C   UNL     1      35.042  -5.819  32.504  0.00  0.00    +0.000 A 
ATOM      6 CL   UNL     1      36.278  -6.012  33.745  0.00  0.00    +0.000 Cl
ATOM      7  C   UNL     1      35.007  -6.609  31.376  0.00  0.00    +0.000 A 
ENDROOT
BRANCH   1   9
ATOM      8  C   UNL     1      34.144  -6.604  27.879  0.00  0.00    +0.000 C 
ATOM      9  C   UNL     1      34.041  -7.360  29.175  0.00  0.00    +0.000 C 
ATOM     10  C   UNL     1      35.153  -8.401  29.206  0.00  0.00    +0.000 C 
ATOM     11  C   UNL     1      32.738  -8.159  29.127  0.00  0.00    +0.000 C 
ENDBRANCH   1   9
BRANCH   4  12
ATOM     12  O   UNL     1      34.132  -4.081  33.774  0.00  0.00    +0.000 OA
BRANCH  12  13
ATOM     13  C   UNL     1      33.596  -2.864  34.049  0.00  0.00    +0.000 A 
ATOM     14  N   UNL     1      33.931  -1.718  33.464  0.00  0.00    +0.000 NA
ATOM     15  C   UNL     1      33.367  -0.511  33.766  0.00  0.00    +0.000 A 
ATOM     16  C   UNL     1      32.404  -0.452  34.721  0.00  0.00    +0.000 A 
ATOM     17  C   UNL     1      32.011  -1.619  35.370  0.00  0.00    +0.000 A 
ATOM     18  C   UNL     1      32.602  -2.817  35.038  0.00  0.00    +0.000 A 
ATOM     19  N   UNL     1      32.180  -3.986  35.727  0.00  0.00    +0.000 NA
ENDBRANCH  12  13
ENDBRANCH   4  12
TORSDOF 3
ENDMDL
