MODEL 1
REMARK VINA RESULT:      -8.2      0.000      0.000
REMARK  Name = 
REMARK  9 active torsions:
REMARK  status: ('A' for Active; 'I' for Inactive)
REMARK    1  A    between atoms: O_2  and  C_3
REMARK    2  A    between atoms: C_6  and  S_7
REMARK    3  A    between atoms: S_7  and  N_10
REMARK    4  A    between atoms: N_10  and  C_11
REMARK    5  A    between atoms: C_11  and  C_12
REMARK    6  A    between atoms: C_12  and  C_13
REMARK    7  A    between atoms: C_13  and  C_14
REMARK    8  A    between atoms: N_16  and  C_17
REMARK    9  A    between atoms: C_17  and  C_18
REMARK                            x       y       z     vdW  Elec       q    Type
REMARK                         _______ _______ _______ _____ _____    ______ ____
ROOT
ATOM      1  C   UNL     1      36.239  -0.662  16.750  0.00  0.00    +0.000 A 
ATOM      2  C   UNL     1      36.830  -1.023  15.545  0.00  0.00    +0.000 A 
ATOM      3  N   UNL     1      37.795  -1.919  15.815  0.00  0.00    +0.000 N 
ATOM      4  C   UNL     1      37.877  -2.171  17.132  0.00  0.00    +0.000 A 
ATOM      5  C   UNL     1      38.690  -2.999  17.907  0.00  0.00    +0.000 A 
ATOM      6  C   UNL     1      38.528  -3.041  19.279  0.00  0.00    +0.000 A 
ATOM      7  C   UNL     1      37.551  -2.244  19.817  0.00  0.00    +0.000 A 
ATOM      8  C   UNL     1      36.732  -1.416  19.077  0.00  0.00    +0.000 A 
ATOM      9  C   UNL     1      36.897  -1.377  17.708  0.00  0.00    +0.000 A 
ENDROOT
BRANCH   1  10
ATOM     10  C   UNL     1      35.127   0.312  16.846  0.00  0.00    +0.000 C 
BRANCH  10  11
ATOM     11  C   UNL     1      35.369   1.401  15.823  0.00  0.00    +0.000 C 
BRANCH  11  12
ATOM     12  C   UNL     1      35.530   2.756  16.467  0.00  0.00    +0.000 C 
BRANCH  12  13
ATOM     13  N   UNL     1      36.841   2.911  17.068  0.00  0.00    +0.000 NA
BRANCH  13  14
ATOM     14  S   UNL     1      37.916   3.796  16.092  0.00  0.00    +0.000 S 
ATOM     15  O   UNL     1      38.787   2.816  15.348  0.00  0.00    +0.000 OA
ATOM     16  O   UNL     1      37.075   4.600  15.117  0.00  0.00    +0.000 OA
BRANCH  14  20
ATOM     17  C   UNL     1      40.635   6.552  18.464  0.00  0.00    +0.000 A 
ATOM     18  C   UNL     1      39.607   5.829  19.072  0.00  0.00    +0.000 A 
ATOM     19  C   UNL     1      38.788   4.993  18.330  0.00  0.00    +0.000 A 
ATOM     20  C   UNL     1      38.964   4.853  16.982  0.00  0.00    +0.000 A 
ATOM     21  C   UNL     1      39.966   5.550  16.357  0.00  0.00    +0.000 A 
ATOM     22  C   UNL     1      40.791   6.394  17.112  0.00  0.00    +0.000 A 
BRANCH  17  24
ATOM     23  C   UNL     1      41.964   8.574  18.793  0.00  0.00    +0.000 C 
ATOM     24  O   UNL     1      41.415   7.369  19.265  0.00  0.00    +0.000 OA
ENDBRANCH  17  24
ENDBRANCH  14  20
ENDBRANCH  13  14
ENDBRANCH  12  13
ENDBRANCH  11  12
ENDBRANCH  10  11
ENDBRANCH   1  10
BRANCH   3  25
ATOM     25  C   UNL     1      38.624  -2.524  14.814  0.00  0.00    +0.000 C 
BRANCH  25  26
ATOM     26  C   UNL     1      39.867  -1.745  14.596  0.00  0.00    +0.000 A 
ATOM     27  C   UNL     1      41.091  -2.424  14.566  0.00  0.00    +0.000 A 
ATOM     28  C   UNL     1      42.284  -1.751  14.366  0.00  0.00    +0.000 A 
ATOM     29  C   UNL     1      42.245  -0.398  14.197  0.00  0.00    +0.000 A 
ATOM     30  C   UNL     1      41.086   0.321  14.215  0.00  0.00    +0.000 A 
ATOM     31  C   UNL     1      39.906  -0.384  14.417  0.00  0.00    +0.000 A 
ENDBRANCH  25  26
ENDBRANCH   3  25
TORSDOF 9
ENDMDL
MODEL 2
REMARK VINA RESULT:      -7.9      3.530      6.070
REMARK  Name = 
REMARK  9 active torsions:
REMARK  status: ('A' for Active; 'I' for Inactive)
REMARK    1  A    between atoms: O_2  and  C_3
REMARK    2  A    between atoms: C_6  and  S_7
REMARK    3  A    between atoms: S_7  and  N_10
REMARK    4  A    between atoms: N_10  and  C_11
REMARK    5  A    between atoms: C_11  and  C_12
REMARK    6  A    between atoms: C_12  and  C_13
REMARK    7  A    between atoms: C_13  and  C_14
REMARK    8  A    between atoms: N_16  and  C_17
REMARK    9  A    between atoms: C_17  and  C_18
REMARK                            x       y       z     vdW  Elec       q    Type
REMARK                         _______ _______ _______ _____ _____    ______ ____
ROOT
ATOM      1  C   UNL     1      36.231  -0.705  17.257  0.00  0.00    +0.000 A 
ATOM      2  C   UNL     1      35.735  -1.187  16.052  0.00  0.00    +0.000 A 
ATOM      3  N   UNL     1      36.290  -2.392  15.834  0.00  0.00    +0.000 N 
ATOM      4  C   UNL     1      37.125  -2.736  16.827  0.00  0.00    +0.000 A 
ATOM      5  C   UNL     1      37.927  -3.851  17.072  0.00  0.00    +0.000 A 
ATOM      6  C   UNL     1      38.697  -3.913  18.218  0.00  0.00    +0.000 A 
ATOM      7  C   UNL     1      38.631  -2.843  19.073  0.00  0.00    +0.000 A 
ATOM      8  C   UNL     1      37.850  -1.727  18.858  0.00  0.00    +0.000 A 
ATOM      9  C   UNL     1      37.081  -1.670  17.714  0.00  0.00    +0.000 A 
ENDROOT
BRANCH   1  10
ATOM     10  C   UNL     1      35.840   0.606  17.828  0.00  0.00    +0.000 C 
BRANCH  10  11
ATOM     11  C   UNL     1      34.804   1.223  16.913  0.00  0.00    +0.000 C 
BRANCH  11  12
ATOM     12  C   UNL     1      35.258   2.553  16.363  0.00  0.00    +0.000 C 
BRANCH  12  13
ATOM     13  N   UNL     1      35.679   2.445  14.979  0.00  0.00    +0.000 NA
BRANCH  13  14
ATOM     14  S   UNL     1      37.370   2.464  14.798  0.00  0.00    +0.000 S 
ATOM     15  O   UNL     1      37.715   3.472  13.732  0.00  0.00    +0.000 OA
ATOM     16  O   UNL     1      37.956   2.886  16.133  0.00  0.00    +0.000 OA
BRANCH  14  20
ATOM     17  C   UNL     1      39.098  -1.523  13.485  0.00  0.00    +0.000 A 
ATOM     18  C   UNL     1      38.120  -0.863  12.738  0.00  0.00    +0.000 A 
ATOM     19  C   UNL     1      37.605   0.354  13.157  0.00  0.00    +0.000 A 
ATOM     20  C   UNL     1      38.041   0.941  14.312  0.00  0.00    +0.000 A 
ATOM     21  C   UNL     1      39.001   0.316  15.066  0.00  0.00    +0.000 A 
ATOM     22  C   UNL     1      39.518  -0.914  14.638  0.00  0.00    +0.000 A 
BRANCH  17  24
ATOM     23  C   UNL     1      40.156  -2.862  11.737  0.00  0.00    +0.000 C 
ATOM     24  O   UNL     1      39.568  -2.736  13.008  0.00  0.00    +0.000 OA
ENDBRANCH  17  24
ENDBRANCH  14  20
ENDBRANCH  13  14
ENDBRANCH  12  13
ENDBRANCH  11  12
ENDBRANCH  10  11
ENDBRANCH   1  10
BRANCH   3  25
ATOM     25  C   UNL     1      36.013  -3.200  14.682  0.00  0.00    +0.000 C 
BRANCH  25  26
ATOM     26  C   UNL     1      34.985  -4.227  14.974  0.00  0.00    +0.000 A 
ATOM     27  C   UNL     1      35.384  -5.564  15.095  0.00  0.00    +0.000 A 
ATOM     28  C   UNL     1      34.469  -6.567  15.367  0.00  0.00    +0.000 A 
ATOM     29  C   UNL     1      33.157  -6.225  15.517  0.00  0.00    +0.000 A 
ATOM     30  C   UNL     1      32.706  -4.942  15.412  0.00  0.00    +0.000 A 
ATOM     31  C   UNL     1      33.649  -3.959  15.138  0.00  0.00    +0.000 A 
ENDBRANCH  25  26
ENDBRANCH   3  25
TORSDOF 9
ENDMDL
MODEL 3
REMARK VINA RESULT:      -7.8      1.428      1.927
REMARK  Name = 
REMARK  9 active torsions:
REMARK  status: ('A' for Active; 'I' for Inactive)
REMARK    1  A    between atoms: O_2  and  C_3
REMARK    2  A    between atoms: C_6  and  S_7
REMARK    3  A    between atoms: S_7  and  N_10
REMARK    4  A    between atoms: N_10  and  C_11
REMARK    5  A    between atoms: C_11  and  C_12
REMARK    6  A    between atoms: C_12  and  C_13
REMARK    7  A    between atoms: C_13  and  C_14
REMARK    8  A    between atoms: N_16  and  C_17
REMARK    9  A    between atoms: C_17  and  C_18
REMARK                            x       y       z     vdW  Elec       q    Type
REMARK                         _______ _______ _______ _____ _____    ______ ____
ROOT
ATOM      1  C   UNL     1      36.096   0.396  15.522  0.00  0.00    +0.000 A 
ATOM      2  C   UNL     1      36.559  -0.640  14.718  0.00  0.00    +0.000 A 
ATOM      3  N   UNL     1      36.941  -1.644  15.525  0.00  0.00    +0.000 N 
ATOM      4  C   UNL     1      36.758  -1.333  16.819  0.00  0.00    +0.000 A 
ATOM      5  C   UNL     1      36.989  -2.010  18.017  0.00  0.00    +0.000 A 
ATOM      6  C   UNL     1      36.688  -1.406  19.223  0.00  0.00    +0.000 A 
ATOM      7  C   UNL     1      36.166  -0.140  19.175  0.00  0.00    +0.000 A 
ATOM      8  C   UNL     1      35.927   0.555  18.007  0.00  0.00    +0.000 A 
ATOM      9  C   UNL     1      36.228  -0.052  16.805  0.00  0.00    +0.000 A 
ENDROOT
BRANCH   1  10
ATOM     10  C   UNL     1      35.587   1.677  14.979  0.00  0.00    +0.000 C 
BRANCH  10  11
ATOM     11  C   UNL     1      36.734   2.665  14.959  0.00  0.00    +0.000 C 
BRANCH  11  12
ATOM     12  C   UNL     1      36.693   3.601  16.142  0.00  0.00    +0.000 C 
BRANCH  12  13
ATOM     13  N   UNL     1      37.989   3.706  16.786  0.00  0.00    +0.000 NA
BRANCH  13  14
ATOM     14  S   UNL     1      38.846   5.100  16.322  0.00  0.00    +0.000 S 
ATOM     15  O   UNL     1      39.717   4.743  15.144  0.00  0.00    +0.000 OA
ATOM     16  O   UNL     1      37.819   6.144  15.922  0.00  0.00    +0.000 OA
BRANCH  14  20
ATOM     17  C   UNL     1      41.517   6.749  19.602  0.00  0.00    +0.000 A 
ATOM     18  C   UNL     1      40.214   6.320  19.860  0.00  0.00    +0.000 A 
ATOM     19  C   UNL     1      39.415   5.820  18.845  0.00  0.00    +0.000 A 
ATOM     20  C   UNL     1      39.880   5.733  17.562  0.00  0.00    +0.000 A 
ATOM     21  C   UNL     1      41.156   6.147  17.279  0.00  0.00    +0.000 A 
ATOM     22  C   UNL     1      41.961   6.651  18.310  0.00  0.00    +0.000 A 
BRANCH  17  24
ATOM     23  C   UNL     1      43.621   6.925  20.831  0.00  0.00    +0.000 C 
ATOM     24  O   UNL     1      42.260   7.239  20.664  0.00  0.00    +0.000 OA
ENDBRANCH  17  24
ENDBRANCH  14  20
ENDBRANCH  13  14
ENDBRANCH  12  13
ENDBRANCH  11  12
ENDBRANCH  10  11
ENDBRANCH   1  10
BRANCH   3  25
ATOM     25  C   UNL     1      37.474  -2.888  15.052  0.00  0.00    +0.000 C 
BRANCH  25  26
ATOM     26  C   UNL     1      38.794  -2.702  14.404  0.00  0.00    +0.000 A 
ATOM     27  C   UNL     1      39.885  -2.320  15.194  0.00  0.00    +0.000 A 
ATOM     28  C   UNL     1      41.142  -2.131  14.645  0.00  0.00    +0.000 A 
ATOM     29  C   UNL     1      41.300  -2.326  13.304  0.00  0.00    +0.000 A 
ATOM     30  C   UNL     1      40.278  -2.699  12.481  0.00  0.00    +0.000 A 
ATOM     31  C   UNL     1      39.030  -2.880  13.063  0.00  0.00    +0.000 A 
ENDBRANCH  25  26
ENDBRANCH   3  25
TORSDOF 9
ENDMDL
MODEL 4
REMARK VINA RESULT:      -7.5      1.926      2.268
REMARK  Name = 
REMARK  9 active torsions:
REMARK  status: ('A' for Active; 'I' for Inactive)
REMARK    1  A    between atoms: O_2  and  C_3
REMARK    2  A    between atoms: C_6  and  S_7
REMARK    3  A    between atoms: S_7  and  N_10
REMARK    4  A    between atoms: N_10  and  C_11
REMARK    5  A    between atoms: C_11  and  C_12
REMARK    6  A    between atoms: C_12  and  C_13
REMARK    7  A    between atoms: C_13  and  C_14
REMARK    8  A    between atoms: N_16  and  C_17
REMARK    9  A    between atoms: C_17  and  C_18
REMARK                            x       y       z     vdW  Elec       q    Type
REMARK                         _______ _______ _______ _____ _____    ______ ____
ROOT
ATOM      1  C   UNL     1      36.294  -0.373  15.729  0.00  0.00    +0.000 A 
ATOM      2  C   UNL     1      37.229  -0.017  14.764  0.00  0.00    +0.000 A 
ATOM      3  N   UNL     1      37.520  -1.118  14.051  0.00  0.00    +0.000 N 
ATOM      4  C   UNL     1      36.830  -2.185  14.488  0.00  0.00    +0.000 A 
ATOM      5  C   UNL     1      36.773  -3.523  14.100  0.00  0.00    +0.000 A 
ATOM      6  C   UNL     1      35.941  -4.403  14.766  0.00  0.00    +0.000 A 
ATOM      7  C   UNL     1      35.199  -3.898  15.802  0.00  0.00    +0.000 A 
ATOM      8  C   UNL     1      35.234  -2.581  16.210  0.00  0.00    +0.000 A 
ATOM      9  C   UNL     1      36.065  -1.706  15.541  0.00  0.00    +0.000 A 
ENDROOT
BRANCH   1  10
ATOM     10  C   UNL     1      35.733   0.589  16.706  0.00  0.00    +0.000 C 
BRANCH  10  11
ATOM     11  C   UNL     1      34.883   1.585  15.947  0.00  0.00    +0.000 C 
BRANCH  11  12
ATOM     12  C   UNL     1      35.318   3.008  16.202  0.00  0.00    +0.000 C 
BRANCH  12  13
ATOM     13  N   UNL     1      36.577   3.062  16.921  0.00  0.00    +0.000 NA
BRANCH  13  14
ATOM     14  S   UNL     1      37.724   4.068  16.171  0.00  0.00    +0.000 S 
ATOM     15  O   UNL     1      38.887   3.212  15.739  0.00  0.00    +0.000 OA
ATOM     16  O   UNL     1      37.049   4.691  14.962  0.00  0.00    +0.000 OA
BRANCH  14  20
ATOM     17  C   UNL     1      39.344   7.362  18.844  0.00  0.00    +0.000 A 
ATOM     18  C   UNL     1      38.738   7.640  17.618  0.00  0.00    +0.000 A 
ATOM     19  C   UNL     1      38.250   6.621  16.816  0.00  0.00    +0.000 A 
ATOM     20  C   UNL     1      38.349   5.313  17.205  0.00  0.00    +0.000 A 
ATOM     21  C   UNL     1      38.938   5.010  18.404  0.00  0.00    +0.000 A 
ATOM     22  C   UNL     1      39.429   6.044  19.211  0.00  0.00    +0.000 A 
BRANCH  17  24
ATOM     23  C   UNL     1      39.054   8.999  20.633  0.00  0.00    +0.000 C 
ATOM     24  O   UNL     1      39.810   8.429  19.594  0.00  0.00    +0.000 OA
ENDBRANCH  17  24
ENDBRANCH  14  20
ENDBRANCH  13  14
ENDBRANCH  12  13
ENDBRANCH  11  12
ENDBRANCH  10  11
ENDBRANCH   1  10
BRANCH   3  25
ATOM     25  C   UNL     1      38.450  -1.139  12.960  0.00  0.00    +0.000 C 
BRANCH  25  26
ATOM     26  C   UNL     1      39.850  -1.064  13.439  0.00  0.00    +0.000 A 
ATOM     27  C   UNL     1      40.420  -2.194  14.038  0.00  0.00    +0.000 A 
ATOM     28  C   UNL     1      41.723  -2.183  14.504  0.00  0.00    +0.000 A 
ATOM     29  C   UNL     1      42.451  -1.038  14.369  0.00  0.00    +0.000 A 
ATOM     30  C   UNL     1      41.955   0.095  13.794  0.00  0.00    +0.000 A 
ATOM     31  C   UNL     1      40.644   0.052  13.337  0.00  0.00    +0.000 A 
ENDBRANCH  25  26
ENDBRANCH   3  25
TORSDOF 9
ENDMDL
MODEL 5
REMARK VINA RESULT:      -7.5      4.100      7.036
REMARK  Name = 
REMARK  9 active torsions:
REMARK  status: ('A' for Active; 'I' for Inactive)
REMARK    1  A    between atoms: O_2  and  C_3
REMARK    2  A    between atoms: C_6  and  S_7
REMARK    3  A    between atoms: S_7  and  N_10
REMARK    4  A    between atoms: N_10  and  C_11
REMARK    5  A    between atoms: C_11  and  C_12
REMARK    6  A    between atoms: C_12  and  C_13
REMARK    7  A    between atoms: C_13  and  C_14
REMARK    8  A    between atoms: N_16  and  C_17
REMARK    9  A    between atoms: C_17  and  C_18
REMARK                            x       y       z     vdW  Elec       q    Type
REMARK                         _______ _______ _______ _____ _____    ______ ____
ROOT
ATOM      1  C   UNL     1      35.756   0.712  16.065  0.00  0.00    +0.000 A 
ATOM      2  C   UNL     1      37.067   0.390  15.733  0.00  0.00    +0.000 A 
ATOM      3  N   UNL     1      37.580   1.424  15.045  0.00  0.00    +0.000 N 
ATOM      4  C   UNL     1      36.683   2.414  14.903  0.00  0.00    +0.000 A 
ATOM      5  C   UNL     1      36.716   3.666  14.289  0.00  0.00    +0.000 A 
ATOM      6  C   UNL     1      35.599   4.480  14.313  0.00  0.00    +0.000 A 
ATOM      7  C   UNL     1      34.489   3.997  14.956  0.00  0.00    +0.000 A 
ATOM      8  C   UNL     1      34.425   2.765  15.572  0.00  0.00    +0.000 A 
ATOM      9  C   UNL     1      35.543   1.956  15.546  0.00  0.00    +0.000 A 
ENDROOT
BRANCH   1  10
ATOM     10  C   UNL     1      34.869  -0.195  16.832  0.00  0.00    +0.000 C 
BRANCH  10  11
ATOM     11  C   UNL     1      35.197  -1.618  16.432  0.00  0.00    +0.000 C 
BRANCH  11  12
ATOM     12  C   UNL     1      35.857  -2.382  17.553  0.00  0.00    +0.000 C 
BRANCH  12  13
ATOM     13  N   UNL     1      36.724  -3.430  17.049  0.00  0.00    +0.000 NA
BRANCH  13  14
ATOM     14  S   UNL     1      38.364  -2.981  17.035  0.00  0.00    +0.000 S 
ATOM     15  O   UNL     1      38.505  -1.698  17.813  0.00  0.00    +0.000 OA
ATOM     16  O   UNL     1      39.139  -4.097  17.712  0.00  0.00    +0.000 OA
BRANCH  14  20
ATOM     17  C   UNL     1      40.073  -2.226  12.896  0.00  0.00    +0.000 A 
ATOM     18  C   UNL     1      40.776  -1.893  14.055  0.00  0.00    +0.000 A 
ATOM     19  C   UNL     1      40.237  -2.132  15.310  0.00  0.00    +0.000 A 
ATOM     20  C   UNL     1      39.001  -2.700  15.446  0.00  0.00    +0.000 A 
ATOM     21  C   UNL     1      38.287  -3.037  14.326  0.00  0.00    +0.000 A 
ATOM     22  C   UNL     1      38.837  -2.795  13.060  0.00  0.00    +0.000 A 
BRANCH  17  24
ATOM     23  C   UNL     1      40.268  -2.599  10.491  0.00  0.00    +0.000 C 
ATOM     24  O   UNL     1      40.671  -1.959  11.676  0.00  0.00    +0.000 OA
ENDBRANCH  17  24
ENDBRANCH  14  20
ENDBRANCH  13  14
ENDBRANCH  12  13
ENDBRANCH  11  12
ENDBRANCH  10  11
ENDBRANCH   1  10
BRANCH   3  25
ATOM     25  C   UNL     1      38.919   1.456  14.535  0.00  0.00    +0.000 C 
BRANCH  25  26
ATOM     26  C   UNL     1      38.945   1.259  13.066  0.00  0.00    +0.000 A 
ATOM     27  C   UNL     1      40.079   1.664  12.351  0.00  0.00    +0.000 A 
ATOM     28  C   UNL     1      40.160   1.505  10.978  0.00  0.00    +0.000 A 
ATOM     29  C   UNL     1      39.104   0.941  10.327  0.00  0.00    +0.000 A 
ATOM     30  C   UNL     1      37.972   0.526  10.965  0.00  0.00    +0.000 A 
ATOM     31  C   UNL     1      37.921   0.699  12.342  0.00  0.00    +0.000 A 
ENDBRANCH  25  26
ENDBRANCH   3  25
TORSDOF 9
ENDMDL
MODEL 6
REMARK VINA RESULT:      -7.4      2.298      3.105
REMARK  Name = 
REMARK  9 active torsions:
REMARK  status: ('A' for Active; 'I' for Inactive)
REMARK    1  A    between atoms: O_2  and  C_3
REMARK    2  A    between atoms: C_6  and  S_7
REMARK    3  A    between atoms: S_7  and  N_10
REMARK    4  A    between atoms: N_10  and  C_11
REMARK    5  A    between atoms: C_11  and  C_12
REMARK    6  A    between atoms: C_12  and  C_13
REMARK    7  A    between atoms: C_13  and  C_14
REMARK    8  A    between atoms: N_16  and  C_17
REMARK    9  A    between atoms: C_17  and  C_18
REMARK                            x       y       z     vdW  Elec       q    Type
REMARK                         _______ _______ _______ _____ _____    ______ ____
ROOT
ATOM      1  C   UNL     1      36.547   1.940  15.433  0.00  0.00    +0.000 A 
ATOM      2  C   UNL     1      37.332   1.531  14.361  0.00  0.00    +0.000 A 
ATOM      3  N   UNL     1      37.212   0.197  14.252  0.00  0.00    +0.000 N 
ATOM      4  C   UNL     1      36.391  -0.302  15.191  0.00  0.00    +0.000 A 
ATOM      5  C   UNL     1      35.947  -1.587  15.502  0.00  0.00    +0.000 A 
ATOM      6  C   UNL     1      35.080  -1.784  16.559  0.00  0.00    +0.000 A 
ATOM      7  C   UNL     1      34.694  -0.675  17.266  0.00  0.00    +0.000 A 
ATOM      8  C   UNL     1      35.116   0.608  16.984  0.00  0.00    +0.000 A 
ATOM      9  C   UNL     1      35.981   0.800  15.926  0.00  0.00    +0.000 A 
ENDROOT
BRANCH   1  10
ATOM     10  C   UNL     1      36.430   3.355  15.857  0.00  0.00    +0.000 C 
BRANCH  10  11
ATOM     11  C   UNL     1      37.242   4.199  14.898  0.00  0.00    +0.000 C 
BRANCH  11  12
ATOM     12  C   UNL     1      37.742   5.467  15.547  0.00  0.00    +0.000 C 
BRANCH  12  13
ATOM     13  N   UNL     1      39.049   5.280  16.148  0.00  0.00    +0.000 NA
BRANCH  13  14
ATOM     14  S   UNL     1      39.053   5.567  17.824  0.00  0.00    +0.000 S 
ATOM     15  O   UNL     1      38.065   6.668  18.112  0.00  0.00    +0.000 OA
ATOM     16  O   UNL     1      38.620   4.279  18.500  0.00  0.00    +0.000 OA
BRANCH  14  20
ATOM     17  C   UNL     1      43.063   6.885  19.498  0.00  0.00    +0.000 A 
ATOM     18  C   UNL     1      41.988   6.564  20.329  0.00  0.00    +0.000 A 
ATOM     19  C   UNL     1      40.772   6.164  19.798  0.00  0.00    +0.000 A 
ATOM     20  C   UNL     1      40.592   6.073  18.446  0.00  0.00    +0.000 A 
ATOM     21  C   UNL     1      41.630   6.382  17.605  0.00  0.00    +0.000 A 
ATOM     22  C   UNL     1      42.857   6.785  18.147  0.00  0.00    +0.000 A 
BRANCH  17  24
ATOM     23  C   UNL     1      45.237   6.353  20.476  0.00  0.00    +0.000 C 
ATOM     24  O   UNL     1      44.249   7.278  20.096  0.00  0.00    +0.000 OA
ENDBRANCH  17  24
ENDBRANCH  14  20
ENDBRANCH  13  14
ENDBRANCH  12  13
ENDBRANCH  11  12
ENDBRANCH  10  11
ENDBRANCH   1  10
BRANCH   3  25
ATOM     25  C   UNL     1      37.879  -0.584  13.252  0.00  0.00    +0.000 C 
BRANCH  25  26
ATOM     26  C   UNL     1      39.207  -1.045  13.720  0.00  0.00    +0.000 A 
ATOM     27  C   UNL     1      40.278  -0.143  13.704  0.00  0.00    +0.000 A 
ATOM     28  C   UNL     1      41.541  -0.517  14.130  0.00  0.00    +0.000 A 
ATOM     29  C   UNL     1      41.727  -1.794  14.569  0.00  0.00    +0.000 A 
ATOM     30  C   UNL     1      40.725  -2.719  14.610  0.00  0.00    +0.000 A 
ATOM     31  C   UNL     1      39.469  -2.313  14.176  0.00  0.00    +0.000 A 
ENDBRANCH  25  26
ENDBRANCH   3  25
TORSDOF 9
ENDMDL
MODEL 7
REMARK VINA RESULT:      -7.3      2.073      4.534
REMARK  Name = 
REMARK  9 active torsions:
REMARK  status: ('A' for Active; 'I' for Inactive)
REMARK    1  A    between atoms: O_2  and  C_3
REMARK    2  A    between atoms: C_6  and  S_7
REMARK    3  A    between atoms: S_7  and  N_10
REMARK    4  A    between atoms: N_10  and  C_11
REMARK    5  A    between atoms: C_11  and  C_12
REMARK    6  A    between atoms: C_12  and  C_13
REMARK    7  A    between atoms: C_13  and  C_14
REMARK    8  A    between atoms: N_16  and  C_17
REMARK    9  A    between atoms: C_17  and  C_18
REMARK                            x       y       z     vdW  Elec       q    Type
REMARK                         _______ _______ _______ _____ _____    ______ ____
ROOT
ATOM      1  C   UNL     1      39.413   1.252  14.391  0.00  0.00    +0.000 A 
ATOM      2  C   UNL     1      38.188   0.720  14.776  0.00  0.00    +0.000 A 
ATOM      3  N   UNL     1      38.359  -0.598  14.977  0.00  0.00    +0.000 N 
ATOM      4  C   UNL     1      39.629  -0.970  14.748  0.00  0.00    +0.000 A 
ATOM      5  C   UNL     1      40.305  -2.188  14.812  0.00  0.00    +0.000 A 
ATOM      6  C   UNL     1      41.652  -2.251  14.508  0.00  0.00    +0.000 A 
ATOM      7  C   UNL     1      42.266  -1.079  14.148  0.00  0.00    +0.000 A 
ATOM      8  C   UNL     1      41.625   0.140  14.075  0.00  0.00    +0.000 A 
ATOM      9  C   UNL     1      40.281   0.198  14.380  0.00  0.00    +0.000 A 
ENDROOT
BRANCH   1  10
ATOM     10  C   UNL     1      39.611   2.687  14.083  0.00  0.00    +0.000 C 
BRANCH  10  11
ATOM     11  C   UNL     1      38.487   3.465  14.733  0.00  0.00    +0.000 C 
BRANCH  11  12
ATOM     12  C   UNL     1      38.958   4.795  15.270  0.00  0.00    +0.000 C 
BRANCH  12  13
ATOM     13  N   UNL     1      39.104   4.767  16.713  0.00  0.00    +0.000 NA
BRANCH  13  14
ATOM     14  S   UNL     1      39.351   6.311  17.382  0.00  0.00    +0.000 S 
ATOM     15  O   UNL     1      39.535   7.288  16.249  0.00  0.00    +0.000 OA
ATOM     16  O   UNL     1      38.107   6.657  18.180  0.00  0.00    +0.000 OA
BRANCH  14  20
ATOM     17  C   UNL     1      42.992   6.589  20.080  0.00  0.00    +0.000 A 
ATOM     18  C   UNL     1      41.711   6.376  20.592  0.00  0.00    +0.000 A 
ATOM     19  C   UNL     1      40.612   6.295  19.751  0.00  0.00    +0.000 A 
ATOM     20  C   UNL     1      40.753   6.420  18.397  0.00  0.00    +0.000 A 
ATOM     21  C   UNL     1      41.999   6.629  17.866  0.00  0.00    +0.000 A 
ATOM     22  C   UNL     1      43.107   6.710  18.720  0.00  0.00    +0.000 A 
BRANCH  17  24
ATOM     23  C   UNL     1      43.878   6.397  22.348  0.00  0.00    +0.000 C 
ATOM     24  O   UNL     1      44.045   6.660  20.977  0.00  0.00    +0.000 OA
ENDBRANCH  17  24
ENDBRANCH  14  20
ENDBRANCH  13  14
ENDBRANCH  12  13
ENDBRANCH  11  12
ENDBRANCH  10  11
ENDBRANCH   1  10
BRANCH   3  25
ATOM     25  C   UNL     1      37.310  -1.484  15.388  0.00  0.00    +0.000 C 
BRANCH  25  26
ATOM     26  C   UNL     1      36.931  -1.257  16.803  0.00  0.00    +0.000 A 
ATOM     27  C   UNL     1      37.774  -1.735  17.813  0.00  0.00    +0.000 A 
ATOM     28  C   UNL     1      37.472  -1.552  19.151  0.00  0.00    +0.000 A 
ATOM     29  C   UNL     1      36.324  -0.890  19.473  0.00  0.00    +0.000 A 
ATOM     30  C   UNL     1      35.461  -0.400  18.537  0.00  0.00    +0.000 A 
ATOM     31  C   UNL     1      35.793  -0.600  17.203  0.00  0.00    +0.000 A 
ENDBRANCH  25  26
ENDBRANCH   3  25
TORSDOF 9
ENDMDL
MODEL 8
REMARK VINA RESULT:      -7.3      3.122      8.173
REMARK  Name = 
REMARK  9 active torsions:
REMARK  status: ('A' for Active; 'I' for Inactive)
REMARK    1  A    between atoms: O_2  and  C_3
REMARK    2  A    between atoms: C_6  and  S_7
REMARK    3  A    between atoms: S_7  and  N_10
REMARK    4  A    between atoms: N_10  and  C_11
REMARK    5  A    between atoms: C_11  and  C_12
REMARK    6  A    between atoms: C_12  and  C_13
REMARK    7  A    between atoms: C_13  and  C_14
REMARK    8  A    between atoms: N_16  and  C_17
REMARK    9  A    between atoms: C_17  and  C_18
REMARK                            x       y       z     vdW  Elec       q    Type
REMARK                         _______ _______ _______ _____ _____    ______ ____
ROOT
ATOM      1  C   UNL     1      36.644   3.532  15.274  0.00  0.00    +0.000 A 
ATOM      2  C   UNL     1      37.905   3.875  15.747  0.00  0.00    +0.000 A 
ATOM      3  N   UNL     1      38.096   5.182  15.494  0.00  0.00    +0.000 N 
ATOM      4  C   UNL     1      37.031   5.724  14.880  0.00  0.00    +0.000 A 
ATOM      5  C   UNL     1      36.734   7.006  14.415  0.00  0.00    +0.000 A 
ATOM      6  C   UNL     1      35.518   7.258  13.808  0.00  0.00    +0.000 A 
ATOM      7  C   UNL     1      34.648   6.205  13.692  0.00  0.00    +0.000 A 
ATOM      8  C   UNL     1      34.913   4.928  14.141  0.00  0.00    +0.000 A 
ATOM      9  C   UNL     1      36.128   4.681  14.746  0.00  0.00    +0.000 A 
ENDROOT
BRANCH   1  10
ATOM     10  C   UNL     1      36.084   2.165  15.380  0.00  0.00    +0.000 C 
BRANCH  10  11
ATOM     11  C   UNL     1      35.333   2.067  16.690  0.00  0.00    +0.000 C 
BRANCH  11  12
ATOM     12  C   UNL     1      35.346   0.663  17.244  0.00  0.00    +0.000 C 
BRANCH  12  13
ATOM     13  N   UNL     1      36.578   0.379  17.954  0.00  0.00    +0.000 NA
BRANCH  13  14
ATOM     14  S   UNL     1      37.007  -1.266  17.901  0.00  0.00    +0.000 S 
ATOM     15  O   UNL     1      37.617  -1.634  19.229  0.00  0.00    +0.000 OA
ATOM     16  O   UNL     1      35.730  -2.053  17.670  0.00  0.00    +0.000 OA
BRANCH  14  20
ATOM     17  C   UNL     1      40.031  -2.228  14.653  0.00  0.00    +0.000 A 
ATOM     18  C   UNL     1      39.172  -1.132  14.558  0.00  0.00    +0.000 A 
ATOM     19  C   UNL     1      38.256  -0.855  15.561  0.00  0.00    +0.000 A 
ATOM     20  C   UNL     1      38.168  -1.649  16.671  0.00  0.00    +0.000 A 
ATOM     21  C   UNL     1      38.998  -2.733  16.791  0.00  0.00    +0.000 A 
ATOM     22  C   UNL     1      39.923  -3.008  15.775  0.00  0.00    +0.000 A 
BRANCH  17  24
ATOM     23  C   UNL     1      42.313  -2.353  13.792  0.00  0.00    +0.000 C 
ATOM     24  O   UNL     1      40.921  -2.446  13.615  0.00  0.00    +0.000 OA
ENDBRANCH  17  24
ENDBRANCH  14  20
ENDBRANCH  13  14
ENDBRANCH  12  13
ENDBRANCH  11  12
ENDBRANCH  10  11
ENDBRANCH   1  10
BRANCH   3  25
ATOM     25  C   UNL     1      39.289   5.896  15.843  0.00  0.00    +0.000 C 
BRANCH  25  26
ATOM     26  C   UNL     1      39.285   6.293  17.271  0.00  0.00    +0.000 A 
ATOM     27  C   UNL     1      38.326   7.213  17.713  0.00  0.00    +0.000 A 
ATOM     28  C   UNL     1      38.274   7.621  19.035  0.00  0.00    +0.000 A 
ATOM     29  C   UNL     1      39.184   7.105  19.910  0.00  0.00    +0.000 A 
ATOM     30  C   UNL     1      40.141   6.205  19.543  0.00  0.00    +0.000 A 
ATOM     31  C   UNL     1      40.167   5.816  18.209  0.00  0.00    +0.000 A 
ENDBRANCH  25  26
ENDBRANCH   3  25
TORSDOF 9
ENDMDL
MODEL 9
REMARK VINA RESULT:      -7.3      3.269      8.702
REMARK  Name = 
REMARK  9 active torsions:
REMARK  status: ('A' for Active; 'I' for Inactive)
REMARK    1  A    between atoms: O_2  and  C_3
REMARK    2  A    between atoms: C_6  and  S_7
REMARK    3  A    between atoms: S_7  and  N_10
REMARK    4  A    between atoms: N_10  and  C_11
REMARK    5  A    between atoms: C_11  and  C_12
REMARK    6  A    between atoms: C_12  and  C_13
REMARK    7  A    between atoms: C_13  and  C_14
REMARK    8  A    between atoms: N_16  and  C_17
REMARK    9  A    between atoms: C_17  and  C_18
REMARK                            x       y       z     vdW  Elec       q    Type
REMARK                         _______ _______ _______ _____ _____    ______ ____
ROOT
ATOM      1  C   UNL     1      38.711   6.176  17.902  0.00  0.00    +0.000 A 
ATOM      2  C   UNL     1      39.868   5.652  18.466  0.00  0.00    +0.000 A 
ATOM      3  N   UNL     1      40.150   6.372  19.566  0.00  0.00    +0.000 N 
ATOM      4  C   UNL     1      39.243   7.343  19.763  0.00  0.00    +0.000 A 
ATOM      5  C   UNL     1      39.086   8.334  20.732  0.00  0.00    +0.000 A 
ATOM      6  C   UNL     1      38.019   9.210  20.661  0.00  0.00    +0.000 A 
ATOM      7  C   UNL     1      37.151   9.053  19.612  0.00  0.00    +0.000 A 
ATOM      8  C   UNL     1      37.280   8.084  18.639  0.00  0.00    +0.000 A 
ATOM      9  C   UNL     1      38.346   7.211  18.714  0.00  0.00    +0.000 A 
ENDROOT
BRANCH   1  10
ATOM     10  C   UNL     1      38.093   5.633  16.670  0.00  0.00    +0.000 C 
BRANCH  10  11
ATOM     11  C   UNL     1      38.738   4.296  16.373  0.00  0.00    +0.000 C 
BRANCH  11  12
ATOM     12  C   UNL     1      37.810   3.378  15.615  0.00  0.00    +0.000 C 
BRANCH  12  13
ATOM     13  N   UNL     1      36.438   3.512  16.066  0.00  0.00    +0.000 NA
BRANCH  13  14
ATOM     14  S   UNL     1      35.527   2.094  15.840  0.00  0.00    +0.000 S 
ATOM     15  O   UNL     1      34.104   2.383  16.244  0.00  0.00    +0.000 OA
ATOM     16  O   UNL     1      35.597   1.748  14.364  0.00  0.00    +0.000 OA
BRANCH  14  20
ATOM     17  C   UNL     1      36.944  -1.402  18.367  0.00  0.00    +0.000 A 
ATOM     18  C   UNL     1      36.324  -0.288  18.934  0.00  0.00    +0.000 A 
ATOM     19  C   UNL     1      35.899   0.769  18.146  0.00  0.00    +0.000 A 
ATOM     20  C   UNL     1      36.075   0.750  16.790  0.00  0.00    +0.000 A 
ATOM     21  C   UNL     1      36.681  -0.332  16.205  0.00  0.00    +0.000 A 
ATOM     22  C   UNL     1      37.108  -1.398  17.007  0.00  0.00    +0.000 A 
BRANCH  17  24
ATOM     23  C   UNL     1      38.590  -3.062  19.077  0.00  0.00    +0.000 C 
ATOM     24  O   UNL     1      37.345  -2.422  19.214  0.00  0.00    +0.000 OA
ENDBRANCH  17  24
ENDBRANCH  14  20
ENDBRANCH  13  14
ENDBRANCH  12  13
ENDBRANCH  11  12
ENDBRANCH  10  11
ENDBRANCH   1  10
BRANCH   3  25
ATOM     25  C   UNL     1      41.278   6.122  20.414  0.00  0.00    +0.000 C 
BRANCH  25  26
ATOM     26  C   UNL     1      42.455   6.922  20.002  0.00  0.00    +0.000 A 
ATOM     27  C   UNL     1      42.919   7.930  20.856  0.00  0.00    +0.000 A 
ATOM     28  C   UNL     1      44.014   8.709  20.524  0.00  0.00    +0.000 A 
ATOM     29  C   UNL     1      44.640   8.475  19.336  0.00  0.00    +0.000 A 
ATOM     30  C   UNL     1      44.239   7.509  18.461  0.00  0.00    +0.000 A 
ATOM     31  C   UNL     1      43.137   6.744  18.823  0.00  0.00    +0.000 A 
ENDBRANCH  25  26
ENDBRANCH   3  25
TORSDOF 9
ENDMDL
MODEL 10
REMARK VINA RESULT:      -7.2     25.627     29.262
REMARK  Name = 
REMARK  9 active torsions:
REMARK  status: ('A' for Active; 'I' for Inactive)
REMARK    1  A    between atoms: O_2  and  C_3
REMARK    2  A    between atoms: C_6  and  S_7
REMARK    3  A    between atoms: S_7  and  N_10
REMARK    4  A    between atoms: N_10  and  C_11
REMARK    5  A    between atoms: C_11  and  C_12
REMARK    6  A    between atoms: C_12  and  C_13
REMARK    7  A    between atoms: C_13  and  C_14
REMARK    8  A    between atoms: N_16  and  C_17
REMARK    9  A    between atoms: C_17  and  C_18
REMARK                            x       y       z     vdW  Elec       q    Type
REMARK                         _______ _______ _______ _____ _____    ______ ____
ROOT
ATOM      1  C   UNL     1      24.989  17.931  35.061  0.00  0.00    +0.000 A 
ATOM      2  C   UNL     1      24.578  18.830  34.083  0.00  0.00    +0.000 A 
ATOM      3  N   UNL     1      24.537  18.171  32.913  0.00  0.00    +0.000 N 
ATOM      4  C   UNL     1      24.897  16.885  33.059  0.00  0.00    +0.000 A 
ATOM      5  C   UNL     1      25.017  15.810  32.178  0.00  0.00    +0.000 A 
ATOM      6  C   UNL     1      25.423  14.574  32.644  0.00  0.00    +0.000 A 
ATOM      7  C   UNL     1      25.694  14.470  33.984  0.00  0.00    +0.000 A 
ATOM      8  C   UNL     1      25.585  15.514  34.879  0.00  0.00    +0.000 A 
ATOM      9  C   UNL     1      25.179  16.746  34.409  0.00  0.00    +0.000 A 
ENDROOT
BRANCH   1  10
ATOM     10  C   UNL     1      25.150  18.302  36.486  0.00  0.00    +0.000 C 
BRANCH  10  11
ATOM     11  C   UNL     1      26.410  19.131  36.614  0.00  0.00    +0.000 C 
BRANCH  11  12
ATOM     12  C   UNL     1      27.646  18.270  36.704  0.00  0.00    +0.000 C 
BRANCH  12  13
ATOM     13  N   UNL     1      28.070  18.086  38.079  0.00  0.00    +0.000 NA
BRANCH  13  14
ATOM     14  S   UNL     1      27.949  16.470  38.597  0.00  0.00    +0.000 S 
ATOM     15  O   UNL     1      28.377  15.580  37.459  0.00  0.00    +0.000 OA
ATOM     16  O   UNL     1      28.889  16.308  39.778  0.00  0.00    +0.000 OA
BRANCH  14  20
ATOM     17  C   UNL     1      23.747  15.265  39.828  0.00  0.00    +0.000 A 
ATOM     18  C   UNL     1      24.499  16.178  40.570  0.00  0.00    +0.000 A 
ATOM     19  C   UNL     1      25.780  16.533  40.178  0.00  0.00    +0.000 A 
ATOM     20  C   UNL     1      26.343  15.998  39.052  0.00  0.00    +0.000 A 
ATOM     21  C   UNL     1      25.629  15.099  38.303  0.00  0.00    +0.000 A 
ATOM     22  C   UNL     1      24.334  14.745  38.704  0.00  0.00    +0.000 A 
BRANCH  17  24
ATOM     23  C   UNL     1      21.822  15.723  41.258  0.00  0.00    +0.000 C 
ATOM     24  O   UNL     1      22.475  14.956  40.278  0.00  0.00    +0.000 OA
ENDBRANCH  17  24
ENDBRANCH  14  20
ENDBRANCH  13  14
ENDBRANCH  12  13
ENDBRANCH  11  12
ENDBRANCH  10  11
ENDBRANCH   1  10
BRANCH   3  25
ATOM     25  C   UNL     1      24.152  18.776  31.671  0.00  0.00    +0.000 C 
BRANCH  25  26
ATOM     26  C   UNL     1      23.786  20.200  31.852  0.00  0.00    +0.000 A 
ATOM     27  C   UNL     1      24.807  21.142  32.026  0.00  0.00    +0.000 A 
ATOM     28  C   UNL     1      24.526  22.487  32.198  0.00  0.00    +0.000 A 
ATOM     29  C   UNL     1      23.221  22.882  32.197  0.00  0.00    +0.000 A 
ATOM     30  C   UNL     1      22.181  22.015  32.032  0.00  0.00    +0.000 A 
ATOM     31  C   UNL     1      22.496  20.673  31.861  0.00  0.00    +0.000 A 
ENDBRANCH  25  26
ENDBRANCH   3  25
TORSDOF 9
ENDMDL
