MODEL 1
REMARK VINA RESULT:      -6.5      0.000      0.000
REMARK  Name = 
REMARK  4 active torsions:
REMARK  status: ('A' for Active; 'I' for Inactive)
REMARK    1  A    between atoms: O_2  and  C_3
REMARK    2  A    between atoms: C_6  and  O_7
REMARK    3  A    between atoms: O_7  and  C_8
REMARK    4  A    between atoms: C_15  and  C_16
REMARK                            x       y       z     vdW  Elec       q    Type
REMARK                         _______ _______ _______ _____ _____    ______ ____
ROOT
ATOM      1  C   UNL     1      30.394  22.798  24.848  0.00  0.00    +0.000 A 
ATOM      2  C   UNL     1      30.142  22.359  26.130  0.00  0.00    +0.000 A 
ATOM      3  C   UNL     1      28.870  22.448  26.652  0.00  0.00    +0.000 A 
ATOM      4  C   UNL     1      27.834  22.969  25.921  0.00  0.00    +0.000 A 
ATOM      5  C   UNL     1      28.106  23.404  24.639  0.00  0.00    +0.000 A 
ATOM      6  C   UNL     1      29.378  23.324  24.093  0.00  0.00    +0.000 A 
ENDROOT
BRANCH   5   7
ATOM      7  C   UNL     1      26.980  23.964  23.861  0.00  0.00    +0.000 C 
ATOM      8  C   UNL     1      26.726  25.370  24.335  0.00  0.00    +0.000 C 
ATOM      9  C   UNL     1      27.303  23.972  22.362  0.00  0.00    +0.000 C 
ATOM     10  C   UNL     1      25.727  23.105  24.014  0.00  0.00    +0.000 C 
ENDBRANCH   5   7
BRANCH   1  12
ATOM     11  C   UNL     1      32.559  23.773  24.579  0.00  0.00    +0.000 C 
ATOM     12  O   UNL     1      31.659  22.736  24.260  0.00  0.00    +0.000 OA
ENDBRANCH   1  12
BRANCH   4  13
ATOM     13  O   UNL     1      26.538  23.072  26.423  0.00  0.00    +0.000 OA
BRANCH  13  14
ATOM     14  C   UNL     1      26.261  23.580  27.674  0.00  0.00    +0.000 A 
ATOM     15  C   UNL     1      25.616  24.789  27.757  0.00  0.00    +0.000 A 
ATOM     16  C   UNL     1      25.296  25.378  28.983  0.00  0.00    +0.000 A 
ATOM     17  C   UNL     1      25.632  24.736  30.155  0.00  0.00    +0.000 A 
ATOM     18  N   UNL     1      25.308  25.330  31.407  0.00  0.00    +0.000 NA
ATOM     19  C   UNL     1      26.281  23.519  30.062  0.00  0.00    +0.000 A 
ATOM     20  C   UNL     1      26.597  22.938  28.846  0.00  0.00    +0.000 A 
ENDBRANCH  13  14
ENDBRANCH   4  13
TORSDOF 4
ENDMDL
MODEL 2
REMARK VINA RESULT:      -6.3      1.541      3.370
REMARK  Name = 
REMARK  4 active torsions:
REMARK  status: ('A' for Active; 'I' for Inactive)
REMARK    1  A    between atoms: O_2  and  C_3
REMARK    2  A    between atoms: C_6  and  O_7
REMARK    3  A    between atoms: O_7  and  C_8
REMARK    4  A    between atoms: C_15  and  C_16
REMARK                            x       y       z     vdW  Elec       q    Type
REMARK                         _______ _______ _______ _____ _____    ______ ____
ROOT
ATOM      1  C   UNL     1      27.302  23.519  23.199  0.00  0.00    +0.000 A 
ATOM      2  C   UNL     1      26.211  23.230  23.989  0.00  0.00    +0.000 A 
ATOM      3  C   UNL     1      26.388  22.886  25.312  0.00  0.00    +0.000 A 
ATOM      4  C   UNL     1      27.638  22.825  25.871  0.00  0.00    +0.000 A 
ATOM      5  C   UNL     1      28.718  23.118  25.064  0.00  0.00    +0.000 A 
ATOM      6  C   UNL     1      28.565  23.466  23.730  0.00  0.00    +0.000 A 
ENDROOT
BRANCH   5   7
ATOM      7  C   UNL     1      30.062  23.048  25.679  0.00  0.00    +0.000 C 
ATOM      8  C   UNL     1      30.310  24.332  26.426  0.00  0.00    +0.000 C 
ATOM      9  C   UNL     1      30.160  21.860  26.642  0.00  0.00    +0.000 C 
ATOM     10  C   UNL     1      31.138  22.820  24.622  0.00  0.00    +0.000 C 
ENDBRANCH   5   7
BRANCH   1  12
ATOM     11  C   UNL     1      27.697  25.137  21.485  0.00  0.00    +0.000 C 
ATOM     12  O   UNL     1      27.192  23.873  21.853  0.00  0.00    +0.000 OA
ENDBRANCH   1  12
BRANCH   4  13
ATOM     13  O   UNL     1      27.847  22.481  27.205  0.00  0.00    +0.000 OA
BRANCH  13  14
ATOM     14  C   UNL     1      27.280  23.176  28.252  0.00  0.00    +0.000 A 
ATOM     15  C   UNL     1      26.882  22.470  29.361  0.00  0.00    +0.000 A 
ATOM     16  C   UNL     1      26.299  23.093  30.467  0.00  0.00    +0.000 A 
ATOM     17  C   UNL     1      26.111  24.459  30.460  0.00  0.00    +0.000 A 
ATOM     18  N   UNL     1      25.519  25.099  31.584  0.00  0.00    +0.000 NA
ATOM     19  C   UNL     1      26.516  25.160  29.340  0.00  0.00    +0.000 A 
ATOM     20  C   UNL     1      27.094  24.541  28.245  0.00  0.00    +0.000 A 
ENDBRANCH  13  14
ENDBRANCH   4  13
TORSDOF 4
ENDMDL
MODEL 3
REMARK VINA RESULT:      -5.8      3.355      6.069
REMARK  Name = 
REMARK  4 active torsions:
REMARK  status: ('A' for Active; 'I' for Inactive)
REMARK    1  A    between atoms: O_2  and  C_3
REMARK    2  A    between atoms: C_6  and  O_7
REMARK    3  A    between atoms: O_7  and  C_8
REMARK    4  A    between atoms: C_15  and  C_16
REMARK                            x       y       z     vdW  Elec       q    Type
REMARK                         _______ _______ _______ _____ _____    ______ ____
ROOT
ATOM      1  C   UNL     1      27.302  22.644  28.827  0.00  0.00    +0.000 A 
ATOM      2  C   UNL     1      27.938  22.346  27.642  0.00  0.00    +0.000 A 
ATOM      3  C   UNL     1      27.732  23.134  26.531  0.00  0.00    +0.000 A 
ATOM      4  C   UNL     1      26.900  24.223  26.573  0.00  0.00    +0.000 A 
ATOM      5  C   UNL     1      26.271  24.505  27.770  0.00  0.00    +0.000 A 
ATOM      6  C   UNL     1      26.464  23.726  28.901  0.00  0.00    +0.000 A 
ENDROOT
BRANCH   5   7
ATOM      7  C   UNL     1      25.376  25.682  27.803  0.00  0.00    +0.000 C 
ATOM      8  C   UNL     1      24.218  25.425  26.875  0.00  0.00    +0.000 C 
ATOM      9  C   UNL     1      24.857  25.934  29.223  0.00  0.00    +0.000 C 
ATOM     10  C   UNL     1      26.122  26.950  27.399  0.00  0.00    +0.000 C 
ENDBRANCH   5   7
BRANCH   1  12
ATOM     11  C   UNL     1      26.294  21.408  30.607  0.00  0.00    +0.000 C 
ATOM     12  O   UNL     1      27.467  21.886  29.988  0.00  0.00    +0.000 OA
ENDBRANCH   1  12
BRANCH   4  13
ATOM     13  O   UNL     1      26.672  25.037  25.467  0.00  0.00    +0.000 OA
BRANCH  13  14
ATOM     14  C   UNL     1      27.361  24.895  24.281  0.00  0.00    +0.000 A 
ATOM     15  C   UNL     1      28.512  25.624  24.106  0.00  0.00    +0.000 A 
ATOM     16  C   UNL     1      29.273  25.541  22.937  0.00  0.00    +0.000 A 
ATOM     17  C   UNL     1      28.868  24.705  21.919  0.00  0.00    +0.000 A 
ATOM     18  N   UNL     1      29.639  24.616  20.726  0.00  0.00    +0.000 NA
ATOM     19  C   UNL     1      27.709  23.975  22.104  0.00  0.00    +0.000 A 
ATOM     20  C   UNL     1      26.957  24.059  23.264  0.00  0.00    +0.000 A 
ENDBRANCH  13  14
ENDBRANCH   4  13
TORSDOF 4
ENDMDL
MODEL 4
REMARK VINA RESULT:      -5.7     17.879     20.276
REMARK  Name = 
REMARK  4 active torsions:
REMARK  status: ('A' for Active; 'I' for Inactive)
REMARK    1  A    between atoms: O_2  and  C_3
REMARK    2  A    between atoms: C_6  and  O_7
REMARK    3  A    between atoms: O_7  and  C_8
REMARK    4  A    between atoms: C_15  and  C_16
REMARK                            x       y       z     vdW  Elec       q    Type
REMARK                         _______ _______ _______ _____ _____    ______ ____
ROOT
ATOM      1  C   UNL     1      20.775  12.076  39.547  0.00  0.00    +0.000 A 
ATOM      2  C   UNL     1      20.252  12.590  38.381  0.00  0.00    +0.000 A 
ATOM      3  C   UNL     1      19.138  12.011  37.810  0.00  0.00    +0.000 A 
ATOM      4  C   UNL     1      18.528  10.924  38.380  0.00  0.00    +0.000 A 
ATOM      5  C   UNL     1      19.068  10.424  39.548  0.00  0.00    +0.000 A 
ATOM      6  C   UNL     1      20.187  10.989  40.141  0.00  0.00    +0.000 A 
ENDROOT
BRANCH   5   7
ATOM      7  C   UNL     1      18.401   9.250  40.154  0.00  0.00    +0.000 C 
ATOM      8  C   UNL     1      18.640   8.057  39.267  0.00  0.00    +0.000 C 
ATOM      9  C   UNL     1      18.951   8.973  41.557  0.00  0.00    +0.000 C 
ATOM     10  C   UNL     1      16.906   9.501  40.332  0.00  0.00    +0.000 C 
ENDBRANCH   5   7
BRANCH   1  12
ATOM     11  C   UNL     1      22.701  13.484  39.409  0.00  0.00    +0.000 C 
ATOM     12  O   UNL     1      21.899  12.614  40.175  0.00  0.00    +0.000 OA
ENDBRANCH   1  12
BRANCH   4  13
ATOM     13  O   UNL     1      17.403  10.319  37.826  0.00  0.00    +0.000 OA
BRANCH  13  14
ATOM     14  C   UNL     1      17.059  10.457  36.499  0.00  0.00    +0.000 A 
ATOM     15  C   UNL     1      17.737   9.708  35.569  0.00  0.00    +0.000 A 
ATOM     16  C   UNL     1      17.454   9.785  34.203  0.00  0.00    +0.000 A 
ATOM     17  C   UNL     1      16.465  10.636  33.759  0.00  0.00    +0.000 A 
ATOM     18  N   UNL     1      16.171  10.717  32.370  0.00  0.00    +0.000 NA
ATOM     19  C   UNL     1      15.786  11.385  34.702  0.00  0.00    +0.000 A 
ATOM     20  C   UNL     1      16.069  11.307  36.055  0.00  0.00    +0.000 A 
ENDBRANCH  13  14
ENDBRANCH   4  13
TORSDOF 4
ENDMDL
MODEL 5
REMARK VINA RESULT:      -5.6      3.575      6.595
REMARK  Name = 
REMARK  4 active torsions:
REMARK  status: ('A' for Active; 'I' for Inactive)
REMARK    1  A    between atoms: O_2  and  C_3
REMARK    2  A    between atoms: C_6  and  O_7
REMARK    3  A    between atoms: O_7  and  C_8
REMARK    4  A    between atoms: C_15  and  C_16
REMARK                            x       y       z     vdW  Elec       q    Type
REMARK                         _______ _______ _______ _____ _____    ______ ____
ROOT
ATOM      1  C   UNL     1      27.835  23.455  23.499  0.00  0.00    +0.000 A 
ATOM      2  C   UNL     1      28.972  23.805  22.804  0.00  0.00    +0.000 A 
ATOM      3  C   UNL     1      30.190  23.847  23.448  0.00  0.00    +0.000 A 
ATOM      4  C   UNL     1      30.302  23.546  24.780  0.00  0.00    +0.000 A 
ATOM      5  C   UNL     1      29.152  23.199  25.460  0.00  0.00    +0.000 A 
ATOM      6  C   UNL     1      27.916  23.149  24.833  0.00  0.00    +0.000 A 
ENDROOT
BRANCH   5   7
ATOM      7  C   UNL     1      29.286  22.876  26.897  0.00  0.00    +0.000 C 
ATOM      8  C   UNL     1      28.029  22.182  27.349  0.00  0.00    +0.000 C 
ATOM      9  C   UNL     1      30.496  21.968  27.143  0.00  0.00    +0.000 C 
ATOM     10  C   UNL     1      29.535  24.137  27.721  0.00  0.00    +0.000 C 
ENDBRANCH   5   7
BRANCH   1  12
ATOM     11  C   UNL     1      25.471  23.232  23.773  0.00  0.00    +0.000 C 
ATOM     12  O   UNL     1      26.572  23.393  22.907  0.00  0.00    +0.000 OA
ENDBRANCH   1  12
BRANCH   4  13
ATOM     13  O   UNL     1      31.519  23.581  25.458  0.00  0.00    +0.000 OA
BRANCH  13  14
ATOM     14  C   UNL     1      32.426  24.607  25.308  0.00  0.00    +0.000 A 
ATOM     15  C   UNL     1      33.673  24.308  24.815  0.00  0.00    +0.000 A 
ATOM     16  C   UNL     1      34.654  25.286  24.632  0.00  0.00    +0.000 A 
ATOM     17  C   UNL     1      34.376  26.597  24.951  0.00  0.00    +0.000 A 
ATOM     18  N   UNL     1      35.371  27.598  24.765  0.00  0.00    +0.000 NA
ATOM     19  C   UNL     1      33.119  26.890  25.445  0.00  0.00    +0.000 A 
ATOM     20  C   UNL     1      32.149  25.919  25.626  0.00  0.00    +0.000 A 
ENDBRANCH  13  14
ENDBRANCH   4  13
TORSDOF 4
ENDMDL
MODEL 6
REMARK VINA RESULT:      -5.6     20.431     23.219
REMARK  Name = 
REMARK  4 active torsions:
REMARK  status: ('A' for Active; 'I' for Inactive)
REMARK    1  A    between atoms: O_2  and  C_3
REMARK    2  A    between atoms: C_6  and  O_7
REMARK    3  A    between atoms: O_7  and  C_8
REMARK    4  A    between atoms: C_15  and  C_16
REMARK                            x       y       z     vdW  Elec       q    Type
REMARK                         _______ _______ _______ _____ _____    ______ ____
ROOT
ATOM      1  C   UNL     1      17.900  10.391  37.931  0.00  0.00    +0.000 A 
ATOM      2  C   UNL     1      19.147   9.806  37.905  0.00  0.00    +0.000 A 
ATOM      3  C   UNL     1      19.524   8.941  38.910  0.00  0.00    +0.000 A 
ATOM      4  C   UNL     1      18.680   8.643  39.948  0.00  0.00    +0.000 A 
ATOM      5  C   UNL     1      17.435   9.239  39.956  0.00  0.00    +0.000 A 
ATOM      6  C   UNL     1      17.034  10.112  38.956  0.00  0.00    +0.000 A 
ENDROOT
BRANCH   5   7
ATOM      7  C   UNL     1      16.533   8.909  41.081  0.00  0.00    +0.000 C 
ATOM      8  C   UNL     1      17.143   9.441  42.351  0.00  0.00    +0.000 C 
ATOM      9  C   UNL     1      15.148   9.531  40.871  0.00  0.00    +0.000 C 
ATOM     10  C   UNL     1      16.306   7.403  41.178  0.00  0.00    +0.000 C 
ENDBRANCH   5   7
BRANCH   1  12
ATOM     11  C   UNL     1      16.133  11.107  36.489  0.00  0.00    +0.000 C 
ATOM     12  O   UNL     1      17.457  11.275  36.945  0.00  0.00    +0.000 OA
ENDBRANCH   1  12
BRANCH   4  13
ATOM     13  O   UNL     1      19.034   7.773  40.977  0.00  0.00    +0.000 OA
BRANCH  13  14
ATOM     14  C   UNL     1      19.776   6.631  40.766  0.00  0.00    +0.000 A 
ATOM     15  C   UNL     1      21.100   6.639  41.131  0.00  0.00    +0.000 A 
ATOM     16  C   UNL     1      21.926   5.526  40.953  0.00  0.00    +0.000 A 
ATOM     17  C   UNL     1      21.410   4.377  40.395  0.00  0.00    +0.000 A 
ATOM     18  N   UNL     1      22.246   3.240  40.213  0.00  0.00    +0.000 NA
ATOM     19  C   UNL     1      20.076   4.377  40.032  0.00  0.00    +0.000 A 
ATOM     20  C   UNL     1      19.260   5.481  40.209  0.00  0.00    +0.000 A 
ENDBRANCH  13  14
ENDBRANCH   4  13
TORSDOF 4
ENDMDL
MODEL 7
REMARK VINA RESULT:      -5.6      3.058      6.541
REMARK  Name = 
REMARK  4 active torsions:
REMARK  status: ('A' for Active; 'I' for Inactive)
REMARK    1  A    between atoms: O_2  and  C_3
REMARK    2  A    between atoms: C_6  and  O_7
REMARK    3  A    between atoms: O_7  and  C_8
REMARK    4  A    between atoms: C_15  and  C_16
REMARK                            x       y       z     vdW  Elec       q    Type
REMARK                         _______ _______ _______ _____ _____    ______ ____
ROOT
ATOM      1  C   UNL     1      25.033  25.433  28.356  0.00  0.00    +0.000 A 
ATOM      2  C   UNL     1      24.629  25.265  27.050  0.00  0.00    +0.000 A 
ATOM      3  C   UNL     1      25.326  24.418  26.215  0.00  0.00    +0.000 A 
ATOM      4  C   UNL     1      26.426  23.729  26.656  0.00  0.00    +0.000 A 
ATOM      5  C   UNL     1      26.815  23.910  27.968  0.00  0.00    +0.000 A 
ATOM      6  C   UNL     1      26.130  24.757  28.826  0.00  0.00    +0.000 A 
ENDROOT
BRANCH   5   7
ATOM      7  C   UNL     1      28.003  23.160  28.431  0.00  0.00    +0.000 C 
ATOM      8  C   UNL     1      27.919  23.012  29.927  0.00  0.00    +0.000 C 
ATOM      9  C   UNL     1      28.066  21.777  27.775  0.00  0.00    +0.000 C 
ATOM     10  C   UNL     1      29.292  23.872  28.029  0.00  0.00    +0.000 C 
ENDBRANCH   5   7
BRANCH   1  12
ATOM     11  C   UNL     1      24.622  26.063  30.625  0.00  0.00    +0.000 C 
ATOM     12  O   UNL     1      24.373  26.275  29.253  0.00  0.00    +0.000 OA
ENDBRANCH   1  12
BRANCH   4  13
ATOM     13  O   UNL     1      27.149  22.867  25.835  0.00  0.00    +0.000 OA
BRANCH  13  14
ATOM     14  C   UNL     1      27.689  23.262  24.630  0.00  0.00    +0.000 A 
ATOM     15  C   UNL     1      29.048  23.447  24.554  0.00  0.00    +0.000 A 
ATOM     16  C   UNL     1      29.678  23.847  23.373  0.00  0.00    +0.000 A 
ATOM     17  C   UNL     1      28.926  24.066  22.240  0.00  0.00    +0.000 A 
ATOM     18  N   UNL     1      29.563  24.472  21.034  0.00  0.00    +0.000 NA
ATOM     19  C   UNL     1      27.560  23.876  22.324  0.00  0.00    +0.000 A 
ATOM     20  C   UNL     1      26.937  23.479  23.496  0.00  0.00    +0.000 A 
ENDBRANCH  13  14
ENDBRANCH   4  13
TORSDOF 4
ENDMDL
MODEL 8
REMARK VINA RESULT:      -5.6      3.142      5.317
REMARK  Name = 
REMARK  4 active torsions:
REMARK  status: ('A' for Active; 'I' for Inactive)
REMARK    1  A    between atoms: O_2  and  C_3
REMARK    2  A    between atoms: C_6  and  O_7
REMARK    3  A    between atoms: O_7  and  C_8
REMARK    4  A    between atoms: C_15  and  C_16
REMARK                            x       y       z     vdW  Elec       q    Type
REMARK                         _______ _______ _______ _____ _____    ______ ____
ROOT
ATOM      1  C   UNL     1      31.146  22.693  28.933  0.00  0.00    +0.000 A 
ATOM      2  C   UNL     1      31.034  22.027  27.733  0.00  0.00    +0.000 A 
ATOM      3  C   UNL     1      29.821  21.980  27.079  0.00  0.00    +0.000 A 
ATOM      4  C   UNL     1      28.708  22.589  27.598  0.00  0.00    +0.000 A 
ATOM      5  C   UNL     1      28.840  23.251  28.802  0.00  0.00    +0.000 A 
ATOM      6  C   UNL     1      30.050  23.311  29.478  0.00  0.00    +0.000 A 
ENDROOT
BRANCH   5   7
ATOM      7  C   UNL     1      27.632  23.903  29.352  0.00  0.00    +0.000 C 
ATOM      8  C   UNL     1      26.535  22.875  29.441  0.00  0.00    +0.000 C 
ATOM      9  C   UNL     1      27.910  24.486  30.742  0.00  0.00    +0.000 C 
ATOM     10  C   UNL     1      27.201  25.081  28.483  0.00  0.00    +0.000 C 
ENDBRANCH   5   7
BRANCH   1  12
ATOM     11  C   UNL     1      33.243  21.700  29.506  0.00  0.00    +0.000 C 
ATOM     12  O   UNL     1      32.343  22.777  29.646  0.00  0.00    +0.000 OA
ENDBRANCH   1  12
BRANCH   4  13
ATOM     13  O   UNL     1      27.470  22.558  26.960  0.00  0.00    +0.000 OA
BRANCH  13  14
ATOM     14  C   UNL     1      27.313  22.855  25.623  0.00  0.00    +0.000 A 
ATOM     15  C   UNL     1      26.039  22.901  25.113  0.00  0.00    +0.000 A 
ATOM     16  C   UNL     1      25.787  23.193  23.770  0.00  0.00    +0.000 A 
ATOM     17  C   UNL     1      26.841  23.445  22.919  0.00  0.00    +0.000 A 
ATOM     18  N   UNL     1      26.591  23.745  21.550  0.00  0.00    +0.000 NA
ATOM     19  C   UNL     1      28.119  23.398  23.441  0.00  0.00    +0.000 A 
ATOM     20  C   UNL     1      28.366  23.108  24.773  0.00  0.00    +0.000 A 
ENDBRANCH  13  14
ENDBRANCH   4  13
TORSDOF 4
ENDMDL
MODEL 9
REMARK VINA RESULT:      -5.5     31.860     32.679
REMARK  Name = 
REMARK  4 active torsions:
REMARK  status: ('A' for Active; 'I' for Inactive)
REMARK    1  A    between atoms: O_2  and  C_3
REMARK    2  A    between atoms: C_6  and  O_7
REMARK    3  A    between atoms: O_7  and  C_8
REMARK    4  A    between atoms: C_15  and  C_16
REMARK                            x       y       z     vdW  Elec       q    Type
REMARK                         _______ _______ _______ _____ _____    ______ ____
ROOT
ATOM      1  C   UNL     1      24.406 -10.693  25.852  0.00  0.00    +0.000 A 
ATOM      2  C   UNL     1      23.143 -10.602  26.395  0.00  0.00    +0.000 A 
ATOM      3  C   UNL     1      22.272  -9.628  25.958  0.00  0.00    +0.000 A 
ATOM      4  C   UNL     1      22.633  -8.734  24.983  0.00  0.00    +0.000 A 
ATOM      5  C   UNL     1      23.903  -8.840  24.452  0.00  0.00    +0.000 A 
ATOM      6  C   UNL     1      24.796  -9.813  24.876  0.00  0.00    +0.000 A 
ENDROOT
BRANCH   5   7
ATOM      7  C   UNL     1      24.280  -7.870  23.401  0.00  0.00    +0.000 C 
ATOM      8  C   UNL     1      24.231  -6.486  23.992  0.00  0.00    +0.000 C 
ATOM      9  C   UNL     1      25.689  -8.158  22.872  0.00  0.00    +0.000 C 
ATOM     10  C   UNL     1      23.351  -7.977  22.196  0.00  0.00    +0.000 C 
ENDBRANCH   5   7
BRANCH   1  12
ATOM     11  C   UNL     1      26.611 -11.592  25.651  0.00  0.00    +0.000 C 
ATOM     12  O   UNL     1      25.336 -11.655  26.250  0.00  0.00    +0.000 OA
ENDBRANCH   1  12
BRANCH   4  13
ATOM     13  O   UNL     1      21.774  -7.739  24.522  0.00  0.00    +0.000 OA
BRANCH  13  14
ATOM     14  C   UNL     1      20.592  -7.421  25.156  0.00  0.00    +0.000 A 
ATOM     15  C   UNL     1      20.439  -6.149  25.648  0.00  0.00    +0.000 A 
ATOM     16  C   UNL     1      19.274  -5.741  26.304  0.00  0.00    +0.000 A 
ATOM     17  C   UNL     1      18.238  -6.634  26.469  0.00  0.00    +0.000 A 
ATOM     18  N   UNL     1      17.049  -6.224  27.136  0.00  0.00    +0.000 NA
ATOM     19  C   UNL     1      18.400  -7.912  25.970  0.00  0.00    +0.000 A 
ATOM     20  C   UNL     1      19.555  -8.314  25.320  0.00  0.00    +0.000 A 
ENDBRANCH  13  14
ENDBRANCH   4  13
TORSDOF 4
ENDMDL
MODEL 10
REMARK VINA RESULT:      -5.5      3.455      5.648
REMARK  Name = 
REMARK  4 active torsions:
REMARK  status: ('A' for Active; 'I' for Inactive)
REMARK    1  A    between atoms: O_2  and  C_3
REMARK    2  A    between atoms: C_6  and  O_7
REMARK    3  A    between atoms: O_7  and  C_8
REMARK    4  A    between atoms: C_15  and  C_16
REMARK                            x       y       z     vdW  Elec       q    Type
REMARK                         _______ _______ _______ _____ _____    ______ ____
ROOT
ATOM      1  C   UNL     1      30.001  22.607  28.404  0.00  0.00    +0.000 A 
ATOM      2  C   UNL     1      30.380  22.258  27.126  0.00  0.00    +0.000 A 
ATOM      3  C   UNL     1      29.616  22.648  26.048  0.00  0.00    +0.000 A 
ATOM      4  C   UNL     1      28.472  23.385  26.215  0.00  0.00    +0.000 A 
ATOM      5  C   UNL     1      28.108  23.725  27.502  0.00  0.00    +0.000 A 
ATOM      6  C   UNL     1      28.862  23.344  28.602  0.00  0.00    +0.000 A 
ENDROOT
BRANCH   5   7
ATOM      7  C   UNL     1      26.872  24.521  27.669  0.00  0.00    +0.000 C 
ATOM      8  C   UNL     1      27.172  25.949  27.299  0.00  0.00    +0.000 C 
ATOM      9  C   UNL     1      25.750  23.978  26.777  0.00  0.00    +0.000 C 
ATOM     10  C   UNL     1      26.350  24.430  29.100  0.00  0.00    +0.000 C 
ENDBRANCH   5   7
BRANCH   1  12
ATOM     11  C   UNL     1      31.815  23.074  29.888  0.00  0.00    +0.000 C 
ATOM     12  O   UNL     1      30.730  22.245  29.538  0.00  0.00    +0.000 OA
ENDBRANCH   1  12
BRANCH   4  13
ATOM     13  O   UNL     1      27.679  23.793  25.144  0.00  0.00    +0.000 OA
BRANCH  13  14
ATOM     14  C   UNL     1      28.209  24.254  23.958  0.00  0.00    +0.000 A 
ATOM     15  C   UNL     1      28.026  23.498  22.826  0.00  0.00    +0.000 A 
ATOM     16  C   UNL     1      28.528  23.889  21.582  0.00  0.00    +0.000 A 
ATOM     17  C   UNL     1      29.230  25.070  21.472  0.00  0.00    +0.000 A 
ATOM     18  N   UNL     1      29.743  25.474  20.208  0.00  0.00    +0.000 NA
ATOM     19  C   UNL     1      29.408  25.825  22.616  0.00  0.00    +0.000 A 
ATOM     20  C   UNL     1      28.910  25.435  23.847  0.00  0.00    +0.000 A 
ENDBRANCH  13  14
ENDBRANCH   4  13
TORSDOF 4
ENDMDL
