
     RDKit          3D

 22 24  0  0  0  0  0  0  0  0999 V2000
    4.9950   -0.7805   -0.2523 C   0  0  0  0  0  0  0  0  0  0  0  0
    3.8940   -1.8087   -0.1851 C   0  0  0  0  0  0  0  0  0  0  0  0
    2.6838   -1.1170    0.0718 O   0  0  0  0  0  0  0  0  0  0  0  0
    2.2378   -0.1659   -0.8096 C   0  0  0  0  0  0  0  0  0  0  0  0
    2.9284    0.0628   -1.8304 O   0  0  0  0  0  0  0  0  0  0  0  0
    0.9719    0.5841   -0.5780 C   0  0  0  0  0  0  0  0  0  0  0  0
    0.5577    1.4641   -1.3920 C   0  0  0  0  0  0  0  0  0  0  0  0
    1.4034    1.6830   -2.5558 N   0  0  0  0  0  0  0  0  0  0  0  0
   -0.5981    2.1643   -1.2030 O   0  0  0  0  0  0  0  0  0  0  0  0
   -1.3471    1.9046   -0.0840 C   0  0  0  0  0  0  0  0  0  0  0  0
   -1.0234    1.0470    0.7812 C   0  0  0  0  0  0  0  0  0  0  0  0
   -1.8714    0.8057    1.9775 C   0  0  0  0  0  0  0  0  0  0  0  0
   -1.3724    0.5359    3.1034 O   0  0  0  0  0  0  0  0  0  0  0  0
   -3.3309    0.8959    1.7896 C   0  0  0  0  0  0  0  0  0  0  0  0
   -3.7311    1.8044    0.6724 C   0  0  0  0  0  0  0  0  0  0  0  0
   -2.6374    2.6706    0.1610 C   0  0  0  0  0  0  0  0  0  0  0  0
    0.2761    0.1388    0.7560 C   0  0  1  0  0  0  0  0  0  0  0  0
   -0.3149   -1.2322    0.2822 C   0  0  0  0  0  0  0  0  0  0  0  0
   -0.9558   -1.5153   -0.8637 C   0  0  0  0  0  0  0  0  0  0  0  0
   -1.3643   -2.7681   -1.0311 C   0  0  0  0  0  0  0  0  0  0  0  0
   -1.1169   -3.6801   -0.0525 C   0  0  0  0  0  0  0  0  0  0  0  0
   -0.2847   -2.6933    1.1104 S   0  0  0  0  0  0  0  0  0  0  0  0
  1  2  1  0
  2  3  1  0
  3  4  1  0
  4  5  2  0
  4  6  1  0
  6  7  2  0
  7  8  1  0
  7  9  1  0
  9 10  1  0
 10 11  2  0
 11 12  1  0
 12 13  2  0
 12 14  1  0
 14 15  1  0
 15 16  1  0
 11 17  1  0
 17 18  1  6
 18 19  2  0
 19 20  1  0
 20 21  2  0
 21 22  1  0
 17  6  1  0
 22 18  1  0
 16 10  1  0
M  END
>  <zinc_id>  (1) 
ZINC000000061402

>  <smiles>  (1) 
CCOC(=O)C1=C(N)OC2=C(C(=O)CCC2)[C@H]1c1cccs1

$$$$
