
     RDKit          3D

 20 22  0  0  0  0  0  0  0  0999 V2000
    6.2516    1.1738    1.9928 C   0  0  0  0  0  0  0  0  0  0  0  0
    5.4656    0.1023    1.7771 C   0  0  0  0  0  0  0  0  0  0  0  0
    4.5675    0.1239    0.5735 C   0  0  0  0  0  0  0  0  0  0  0  0
    3.1855    0.0063    1.0355 N   0  0  0  0  0  0  0  0  0  0  0  0
    2.0981   -0.0046    0.1451 C   0  0  0  0  0  0  0  0  0  0  0  0
    2.1977    0.0908   -1.2218 C   0  0  0  0  0  0  0  0  0  0  0  0
    1.1072    0.0760   -2.0563 C   0  0  0  0  0  0  0  0  0  0  0  0
    1.2632    0.1823   -3.5368 C   0  0  0  0  0  0  0  0  0  0  0  0
   -0.1165   -0.0375   -1.5041 N   0  0  0  0  0  0  0  0  0  0  0  0
   -0.2426   -0.1318   -0.1784 C   0  0  0  0  0  0  0  0  0  0  0  0
   -1.3885   -0.2546    0.5932 C   0  0  0  0  0  0  0  0  0  0  0  0
   -2.7653   -0.3106    0.1139 C   0  0  0  0  0  0  0  0  0  0  0  0
   -3.2304    0.5578   -0.8533 C   0  0  0  0  0  0  0  0  0  0  0  0
   -4.5393    0.5072   -1.3112 C   0  0  0  0  0  0  0  0  0  0  0  0
   -5.4290   -0.4202   -0.8121 C   0  0  0  0  0  0  0  0  0  0  0  0
   -4.9713   -1.2912    0.1546 C   0  0  0  0  0  0  0  0  0  0  0  0
   -3.6676   -1.2351    0.6056 C   0  0  0  0  0  0  0  0  0  0  0  0
   -0.9632   -0.3101    1.8589 N   0  0  0  0  0  0  0  0  0  0  0  0
    0.3487   -0.2322    1.9380 N   0  0  0  0  0  0  0  0  0  0  0  0
    0.8283   -0.1203    0.6860 C   0  0  0  0  0  0  0  0  0  0  0  0
  1  2  2  0
  2  3  1  0
  3  4  1  0
  4  5  1  0
  5  6  2  0
  6  7  1  0
  7  8  1  0
  7  9  2  0
  9 10  1  0
 10 11  1  0
 11 12  1  0
 12 13  2  0
 13 14  1  0
 14 15  2  0
 15 16  1  0
 16 17  2  0
 11 18  2  0
 18 19  1  0
 19 20  1  0
 20  5  1  0
 20 10  2  0
 17 12  1  0
M  END
>  <zinc_id>  (1) 
ZINC000001536948

>  <smiles>  (1) 
C=CCNc1cc(C)nc2c(-c3ccccc3)n[nH]c12

$$$$
