
     RDKit          3D

 23 27  0  0  0  0  0  0  0  0999 V2000
    1.6961    2.1539    1.4130 O   0  0  0  0  0  0  0  0  0  0  0  0
    1.2397    1.1382    0.8378 C   0  0  0  0  0  0  0  0  0  0  0  0
   -0.1298    0.9014    0.8773 N   0  0  0  0  0  0  0  0  0  0  0  0
   -0.5681   -0.6303    1.0092 C   0  0  1  0  0  0  0  0  0  0  0  0
   -2.0274   -0.3975    0.3905 C   0  0  0  0  0  0  0  0  0  0  0  0
   -2.1899    0.3381   -0.7119 C   0  0  0  0  0  0  0  0  0  0  0  0
   -3.4422    0.5331   -1.2376 C   0  0  0  0  0  0  0  0  0  0  0  0
   -4.5377   -0.0421   -0.6116 C   0  0  0  0  0  0  0  0  0  0  0  0
   -4.3478   -0.7899    0.5140 C   0  0  0  0  0  0  0  0  0  0  0  0
   -3.0692   -0.9871    1.0480 C   0  0  0  0  0  0  0  0  0  0  0  0
   -5.6080   -1.2416    0.9284 O   0  0  0  0  0  0  0  0  0  0  0  0
   -6.5634   -0.3893    0.2792 C   0  0  0  0  0  0  0  0  0  0  0  0
   -5.9102   -0.0051   -0.9305 O   0  0  0  0  0  0  0  0  0  0  0  0
    0.0943   -1.0115   -0.3597 N   0  0  0  0  0  0  0  0  0  0  0  0
    1.5152   -0.8559   -0.4540 C   0  0  0  0  0  0  0  0  0  0  0  0
    2.8270   -1.7171   -1.1803 S   0  0  0  0  0  0  0  0  0  0  0  0
    4.1125   -0.7031   -0.7205 C   0  0  0  0  0  0  0  0  0  0  0  0
    3.4906    0.2871   -0.0089 C   0  0  0  0  0  0  0  0  0  0  0  0
    2.1415    0.1957    0.1219 C   0  0  0  0  0  0  0  0  0  0  0  0
    4.4970    1.3238    0.5045 C   0  0  0  0  0  0  0  0  0  0  0  0
    5.1738    1.8174   -0.7611 C   0  0  0  0  0  0  0  0  0  0  0  0
    6.0020    0.7332   -1.3813 C   0  0  0  0  0  0  0  0  0  0  0  0
    5.6037   -0.6513   -0.8964 C   0  0  0  0  0  0  0  0  0  0  0  0
  1  2  2  0
  2  3  1  0
  3  4  1  0
  4  5  1  6
  5  6  2  0
  6  7  1  0
  7  8  2  0
  8  9  1  0
  9 10  2  0
  9 11  1  0
 11 12  1  0
 12 13  1  0
  4 14  1  0
 14 15  1  0
 15 16  1  0
 16 17  1  0
 17 18  2  0
 18 19  1  0
 18 20  1  0
 20 21  1  0
 21 22  1  0
 22 23  1  0
 19  2  1  0
 10  5  1  0
 19 15  2  0
 13  8  1  0
 23 17  1  0
M  END
>  <zinc_id>  (1) 
ZINC000000565650

>  <smiles>  (1) 
O=C1N[C@@H](c2ccc3c(c2)OCO3)Nc2sc3c(c21)CCCC3

$$$$
