
     RDKit          3D

 20 22  0  0  0  0  0  0  0  0999 V2000
   -4.1108   -1.0726    2.0630 C   0  0  0  0  0  0  0  0  0  0  0  0
   -5.0673   -0.4091    1.4411 C   0  0  0  0  0  0  0  0  0  0  0  0
   -4.9108    0.1952    0.1115 C   0  0  0  0  0  0  0  0  0  0  0  0
   -3.5688   -0.0586   -0.3739 N   0  0  0  0  0  0  0  0  0  0  0  0
   -2.4158    0.4006    0.3197 C   0  0  0  0  0  0  0  0  0  0  0  0
   -2.4375    1.0922    1.4535 N   0  0  0  0  0  0  0  0  0  0  0  0
   -1.3293    1.5173    2.0928 C   0  0  0  0  0  0  0  0  0  0  0  0
   -0.1305    1.2169    1.5394 N   0  0  0  0  0  0  0  0  0  0  0  0
   -0.0302    0.5238    0.3991 C   0  0  0  0  0  0  0  0  0  0  0  0
   -1.1753    0.0978   -0.2399 C   0  0  0  0  0  0  0  0  0  0  0  0
   -0.8020   -0.5670   -1.3478 N   0  0  0  0  0  0  0  0  0  0  0  0
    0.5436   -0.5931   -1.4598 C   0  0  0  0  0  0  0  0  0  0  0  0
    1.4075   -1.1457   -2.4092 C   0  0  0  0  0  0  0  0  0  0  0  0
    2.7655   -0.9956   -2.2332 C   0  0  0  0  0  0  0  0  0  0  0  0
    3.2985   -0.3225   -1.1581 C   0  0  0  0  0  0  0  0  0  0  0  0
    4.6733   -0.1978   -1.0245 O   0  0  0  0  0  0  0  0  0  0  0  0
    5.1596    0.5068    0.1046 C   0  0  0  0  0  0  0  0  0  0  0  0
    4.6784   -0.2097    1.3324 C   0  0  0  0  0  0  0  0  0  0  0  0
    2.4118    0.2085   -0.2428 C   0  0  0  0  0  0  0  0  0  0  0  0
    1.0401    0.0892   -0.3678 C   0  0  0  0  0  0  0  0  0  0  0  0
  1  2  2  0
  2  3  1  0
  3  4  1  0
  4  5  1  0
  5  6  2  0
  6  7  1  0
  7  8  2  0
  8  9  1  0
  9 10  2  0
 10 11  1  0
 11 12  1  0
 12 13  2  0
 13 14  1  0
 14 15  2  0
 15 16  1  0
 16 17  1  0
 17 18  1  0
 15 19  1  0
 19 20  2  0
 10  5  1  0
 20 12  1  0
 20  9  1  0
M  END
>  <zinc_id>  (1) 
ZINC000002400223

>  <smiles>  (1) 
C=CCNc1ncnc2c1[nH]c1ccc(OCC)cc12

$$$$
