
     RDKit          3D

 21 24  0  0  0  0  0  0  0  0999 V2000
    6.2123    1.0234    0.4301 C   0  0  0  0  0  0  0  0  0  0  0  0
    4.7755    0.6192    0.5145 C   0  0  0  0  0  0  0  0  0  0  0  0
    4.0008    1.0218    1.5708 C   0  0  0  0  0  0  0  0  0  0  0  0
    2.6828    0.6464    1.6408 C   0  0  0  0  0  0  0  0  0  0  0  0
    2.1529   -0.1127    0.6784 N   0  0  0  0  0  4  0  0  0  0  0  0
    0.7879   -0.5147    0.7293 C   0  0  0  0  0  0  0  0  0  0  0  0
   -0.1358    0.4225    0.0718 C   0  0  0  0  0  0  0  0  0  0  0  0
    0.2862    1.4220   -0.4448 O   0  0  0  0  0  0  0  0  0  0  0  0
   -1.5793    0.1383    0.0451 C   0  0  0  0  0  0  0  0  0  0  0  0
   -2.0552    0.0549    1.4794 C   0  0  0  0  0  0  0  0  0  0  0  0
   -3.5065   -0.2969    1.5155 C   0  0  0  0  0  0  0  0  0  0  0  0
   -4.2637    0.7413    0.7102 C   0  0  0  0  0  0  0  0  0  0  0  0
   -3.8057    0.7783   -0.7215 C   0  0  0  0  0  0  0  0  0  0  0  0
   -4.0487   -0.6156   -1.3077 C   0  0  0  0  0  0  0  0  0  0  0  0
   -3.2301   -1.6138   -0.5294 C   0  0  0  0  0  0  0  0  0  0  0  0
   -3.6779   -1.6928    0.9232 C   0  0  0  0  0  0  0  0  0  0  0  0
   -1.7814   -1.2047   -0.6396 C   0  0  0  0  0  0  0  0  0  0  0  0
   -2.3617    1.1579   -0.7481 C   0  0  0  0  0  0  0  0  0  0  0  0
    2.9156   -0.5020   -0.3500 C   0  0  0  0  0  0  0  0  0  0  0  0
    2.3849   -1.3188   -1.4060 N   0  0  0  0  0  0  0  0  0  0  0  0
    4.2471   -0.1539   -0.4714 C   0  0  0  0  0  0  0  0  0  0  0  0
  1  2  1  0
  2  3  2  0
  3  4  1  0
  4  5  2  0
  5  6  1  0
  6  7  1  0
  7  8  2  0
  7  9  1  0
  9 10  1  0
 10 11  1  0
 11 12  1  0
 12 13  1  0
 13 14  1  0
 14 15  1  0
 15 16  1  0
 15 17  1  0
 13 18  1  0
  5 19  1  0
 19 20  1  0
 19 21  2  0
 21  2  1  0
 17  9  1  0
 18  9  1  0
 16 11  1  0
M  CHG  1   5   1
M  END
>  <zinc_id>  (1) 
ZINC000004125148

>  <smiles>  (1) 
Cc1cc[n+](CC(=O)C23CC4CC(CC(C4)C2)C3)c(N)c1

$$$$
