
     RDKit          3D

 20 22  0  0  0  0  0  0  0  0999 V2000
   -1.3292   -0.2882    2.9516 C   0  0  0  0  0  0  0  0  0  0  0  0
   -1.6725   -0.7768    1.5359 C   0  0  0  0  0  0  0  0  0  0  0  0
   -1.7982   -2.2983    1.6759 C   0  0  0  0  0  0  0  0  0  0  0  0
   -2.9998   -0.2172    1.1734 C   0  0  0  0  0  0  0  0  0  0  0  0
   -3.0189    0.6347   -0.0211 C   0  0  0  0  0  0  0  0  0  0  0  0
   -4.2457    1.1689   -0.3802 C   0  0  0  0  0  0  0  0  0  0  0  0
   -4.3223    1.9744   -1.4906 C   0  0  0  0  0  0  0  0  0  0  0  0
   -3.1891    2.2347   -2.2211 C   0  0  0  0  0  0  0  0  0  0  0  0
   -1.9727    1.7122   -1.8752 C   0  0  0  0  0  0  0  0  0  0  0  0
   -1.8939    0.9050   -0.7631 C   0  0  0  0  0  0  0  0  0  0  0  0
   -0.6079    0.3173   -0.3475 C   0  0  0  0  0  0  0  0  0  0  0  0
    0.8125    0.7060   -1.3511 S   0  0  0  0  0  0  0  0  0  0  0  0
    2.2855   -0.0629   -0.7402 C   0  0  0  0  0  0  0  0  0  0  0  0
    3.4615    0.1537   -1.4228 C   0  0  0  0  0  0  0  0  0  0  0  0
    4.6630   -0.4121   -1.0110 C   0  0  0  0  0  0  0  0  0  0  0  0
    4.7025   -1.2175    0.1114 C   0  0  0  0  0  0  0  0  0  0  0  0
    5.8762   -1.8269    0.5935 N   0  0  0  0  0  0  0  0  0  0  0  0
    3.5168   -1.4259    0.7855 C   0  0  0  0  0  0  0  0  0  0  0  0
    2.3145   -0.8578    0.3708 C   0  0  0  0  0  0  0  0  0  0  0  0
   -0.5825   -0.4234    0.6880 N   0  0  0  0  0  0  0  0  0  0  0  0
  1  2  1  0
  2  3  1  0
  2  4  1  0
  4  5  1  0
  5  6  2  0
  6  7  1  0
  7  8  2  0
  8  9  1  0
  9 10  2  0
 10 11  1  0
 11 12  1  0
 12 13  1  0
 13 14  2  0
 14 15  1  0
 15 16  2  0
 16 17  1  0
 16 18  1  0
 18 19  2  0
 11 20  2  0
 20  2  1  0
 10  5  1  0
 19 13  1  0
M  END
>  <zinc_id>  (1) 
ZINC000000443411

>  <smiles>  (1) 
CC1(C)Cc2ccccc2C(Sc2ccc(N)cc2)=N1

$$$$
