
     RDKit          3D

 20 22  0  0  0  0  0  0  0  0999 V2000
    1.0292   -0.5580   -3.1535 C   0  0  0  0  0  0  0  0  0  0  0  0
    1.1467   -1.3940   -1.8871 C   0  0  0  0  0  0  0  0  0  0  0  0
    0.9634   -0.5040   -0.7751 N   0  0  0  0  0  0  0  0  0  0  0  0
   -0.3024    0.0835   -0.5470 C   0  0  0  0  0  0  0  0  0  0  0  0
   -0.7171    1.0234   -1.4210 C   0  0  0  0  0  0  0  0  0  0  0  0
   -1.9896    1.6459   -1.2369 C   0  0  0  0  0  0  0  0  0  0  0  0
   -2.4195    2.5318   -2.0274 O   0  0  0  0  0  0  0  0  0  0  0  0
   -2.7959    1.2631   -0.1389 N   0  0  0  0  0  0  0  0  0  0  0  0
   -2.0009    0.8756    1.1834 C   0  0  1  0  0  0  0  0  0  0  0  0
   -3.2618   -0.0829    1.7448 C   0  0  0  0  0  0  0  0  0  0  0  0
   -3.5927   -1.0658    0.7257 C   0  0  0  0  0  0  0  0  0  0  0  0
   -2.5582   -2.1722    0.6072 C   0  0  0  0  0  0  0  0  0  0  0  0
   -1.2411   -1.5278    1.0663 C   0  0  0  0  0  0  0  0  0  0  0  0
   -1.1391   -0.2338    0.5258 N   0  0  0  0  0  0  0  0  0  0  0  0
    2.0831   -0.2631    0.0417 C   0  0  0  0  0  0  0  0  0  0  0  0
    3.3158   -0.8253   -0.1707 C   0  0  0  0  0  0  0  0  0  0  0  0
    4.3952   -0.5577    0.6640 C   0  0  0  0  0  0  0  0  0  0  0  0
    4.2006    0.2925    1.7201 C   0  0  0  0  0  0  0  0  0  0  0  0
    2.9600    0.8810    1.9642 C   0  0  0  0  0  0  0  0  0  0  0  0
    1.9244    0.5878    1.1144 C   0  0  0  0  0  0  0  0  0  0  0  0
  1  2  1  0
  2  3  1  0
  3  4  1  0
  4  5  2  0
  5  6  1  0
  6  7  2  0
  6  8  1  0
  8  9  1  0
  9 10  1  1
 10 11  1  0
 11 12  1  0
 12 13  1  0
 13 14  1  0
  3 15  1  0
 15 16  2  0
 16 17  1  0
 17 18  2  0
 18 19  1  0
 19 20  2  0
 14  4  1  0
 20 15  1  0
 14  9  1  0
M  END
>  <zinc_id>  (1) 
ZINC000001620388

>  <smiles>  (1) 
CCN(C1=CC(=O)N[C@H]2CCCCN12)c1ccccc1

$$$$
