
     RDKit          3D

 20 22  0  0  0  0  0  0  0  0999 V2000
    4.0404   -0.9547    2.1775 C   0  0  0  0  0  0  0  0  0  0  0  0
    2.3782   -0.9996    1.4607 S   0  0  0  0  0  0  0  0  0  0  0  0
    2.4050   -0.2007   -0.1457 C   0  0  0  0  0  0  0  0  0  0  0  0
    3.5952    0.2530   -0.6349 C   0  0  0  0  0  0  0  0  0  0  0  0
    3.6659    0.9007   -1.8398 C   0  0  0  0  0  0  0  0  0  0  0  0
    2.5117    1.0908   -2.5553 C   0  0  0  0  0  0  0  0  0  0  0  0
    1.2959    0.6176   -2.0381 C   0  0  0  0  0  0  0  0  0  0  0  0
    1.2216   -0.0360   -0.8248 C   0  0  0  0  0  0  0  0  0  0  0  0
   -0.0597   -0.5409   -0.3478 C   0  0  0  0  0  0  0  0  0  0  0  0
   -0.2531   -1.8711   -0.2056 N   0  0  0  0  0  0  0  0  0  0  0  0
   -1.4269   -2.3817    0.2482 C   0  0  0  0  0  0  0  0  0  0  0  0
   -1.6316   -3.8075    0.3911 N   0  0  0  0  0  0  0  0  0  0  0  0
   -2.4130   -1.5420    0.5615 N   0  0  0  0  0  0  0  0  0  0  0  0
   -2.2678   -0.2107    0.4372 C   0  0  0  0  0  0  0  0  0  0  0  0
   -1.0711    0.3400   -0.0284 C   0  0  0  0  0  0  0  0  0  0  0  0
   -0.7124    1.7714   -0.2441 C   0  0  0  0  0  0  0  0  0  0  0  0
   -1.9599    2.6180   -0.1400 C   0  0  0  0  0  0  0  0  0  0  0  0
   -2.3858    2.6636    1.3041 C   0  0  0  0  0  0  0  0  0  0  0  0
   -3.5363    1.7560    1.6044 C   0  0  0  0  0  0  0  0  0  0  0  0
   -3.3962    0.5335    0.8197 N   0  0  0  0  0  0  0  0  0  0  0  0
  1  2  1  0
  2  3  1  0
  3  4  2  0
  4  5  1  0
  5  6  2  0
  6  7  1  0
  7  8  2  0
  8  9  1  0
  9 10  2  0
 10 11  1  0
 11 12  1  0
 11 13  2  0
 13 14  1  0
 14 15  2  0
 15 16  1  0
 16 17  1  0
 17 18  1  0
 18 19  1  0
 19 20  1  0
  8  3  1  0
 15  9  1  0
 20 14  1  0
M  END
>  <zinc_id>  (1) 
ZINC000003711302

>  <smiles>  (1) 
CSc1ccccc1-c1nc(N)nc2c1CCCCN2

$$$$
