
     RDKit          3D

 22 24  0  0  0  0  0  0  0  0999 V2000
   -5.5972   -2.2318   -0.1923 C   0  0  0  0  0  0  0  0  0  0  0  0
   -4.6322   -1.2893    0.4341 C   0  0  0  0  0  0  0  0  0  0  0  0
   -4.9472   -0.7242    1.6517 C   0  0  0  0  0  0  0  0  0  0  0  0
   -4.0130    0.1390    2.1778 C   0  0  0  0  0  0  0  0  0  0  0  0
   -2.8369    0.4226    1.5315 C   0  0  0  0  0  0  0  0  0  0  0  0
   -2.5433   -0.1479    0.3251 C   0  0  0  0  0  0  0  0  0  0  0  0
   -1.3183    0.1334   -0.3734 N   0  0  0  0  0  0  0  0  0  0  0  0
   -1.2184    0.9773   -1.4113 C   0  0  0  0  0  0  0  0  0  0  0  0
   -2.2822    1.7884   -2.0652 C   0  0  0  0  0  0  0  0  0  0  0  0
    0.0973    0.9939   -1.8209 C   0  0  0  0  0  0  0  0  0  0  0  0
    0.8385    0.1283   -1.0052 C   0  0  0  0  0  0  0  0  0  0  0  0
    2.2425   -0.0955   -1.2299 C   0  0  0  0  0  0  0  0  0  0  0  0
    3.2359    0.0969   -0.4234 C   0  0  0  0  0  0  0  0  0  0  0  0
    4.6144   -0.1632   -0.7323 N   0  0  0  0  0  0  0  0  0  0  0  0
    5.3665    0.2345    0.4070 C   0  0  0  0  0  0  0  0  0  0  0  0
    6.6230    0.1307    0.4494 O   0  0  0  0  0  0  0  0  0  0  0  0
    4.4784    0.7299    1.3991 N   0  0  0  0  0  0  0  0  0  0  0  0
    3.1411    0.6530    0.8987 C   0  0  0  0  0  0  0  0  0  0  0  0
    2.0878    1.0023    1.4877 O   0  0  0  0  0  0  0  0  0  0  0  0
   -0.0794   -0.3822   -0.1252 C   0  0  0  0  0  0  0  0  0  0  0  0
    0.2004   -1.3803    0.9208 C   0  0  0  0  0  0  0  0  0  0  0  0
   -3.4575   -1.0159   -0.2276 C   0  0  0  0  0  0  0  0  0  0  0  0
  1  2  1  0
  2  3  2  0
  3  4  1  0
  4  5  2  0
  5  6  1  0
  6  7  1  0
  7  8  1  0
  8  9  1  0
  8 10  2  0
 10 11  1  0
 11 12  1  0
 12 13  2  0
 13 14  1  0
 14 15  1  0
 15 16  2  0
 15 17  1  0
 17 18  1  0
 18 19  2  0
 11 20  2  0
 20 21  1  0
  6 22  2  0
 22  2  1  0
 20  7  1  0
 18 13  1  0
M  END
>  <zinc_id>  (1) 
ZINC000000110547

>  <smiles>  (1) 
Cc1cccc(-n2c(C)cc(/C=C3/NC(=O)NC3=O)c2C)c1

$$$$
