
     RDKit          3D

 22 24  0  0  0  0  0  0  0  0999 V2000
   -5.1297    3.0450   -0.3510 C   0  0  0  0  0  0  0  0  0  0  0  0
   -4.1799    2.5547    0.5581 O   0  0  0  0  0  0  0  0  0  0  0  0
   -3.3244    1.4977    0.2760 C   0  0  0  0  0  0  0  0  0  0  0  0
   -2.4276    1.0916    1.2356 C   0  0  0  0  0  0  0  0  0  0  0  0
   -1.5500    0.0340    0.9939 C   0  0  0  0  0  0  0  0  0  0  0  0
   -1.5516   -0.6369   -0.2099 C   0  0  0  0  0  0  0  0  0  0  0  0
   -0.6205   -1.7498   -0.4514 C   0  0  0  0  0  0  0  0  0  0  0  0
   -0.9271   -3.0409   -0.6901 N   0  0  0  0  0  0  0  0  0  0  0  0
    0.2306   -3.7099   -0.8530 C   0  0  0  0  0  0  0  0  0  0  0  0
    0.3514   -5.1134   -1.1261 N   0  0  0  0  0  0  0  0  0  0  0  0
    1.2344   -2.8835   -0.7242 O   0  0  0  0  0  0  0  0  0  0  0  0
    0.7572   -1.6803   -0.4791 C   0  0  0  0  0  0  0  0  0  0  0  0
    1.5652   -0.4800   -0.2727 C   0  0  0  0  0  0  0  0  0  0  0  0
    2.3671   -0.0849   -1.3163 C   0  0  0  0  0  0  0  0  0  0  0  0
    3.1744    1.0200   -1.2594 C   0  0  0  0  0  0  0  0  0  0  0  0
    3.1580    1.7478   -0.0852 C   0  0  0  0  0  0  0  0  0  0  0  0
    3.9584    2.8944    0.0515 O   0  0  0  0  0  0  0  0  0  0  0  0
    4.7784    3.2873   -1.0343 C   0  0  0  0  0  0  0  0  0  0  0  0
    2.3590    1.3631    0.9692 C   0  0  0  0  0  0  0  0  0  0  0  0
    1.5515    0.2484    0.8971 C   0  0  0  0  0  0  0  0  0  0  0  0
   -2.4508   -0.2308   -1.1744 C   0  0  0  0  0  0  0  0  0  0  0  0
   -3.3241    0.8263   -0.9251 C   0  0  0  0  0  0  0  0  0  0  0  0
  1  2  1  0
  2  3  1  0
  3  4  2  0
  4  5  1  0
  5  6  2  0
  6  7  1  0
  7  8  1  0
  8  9  2  0
  9 10  1  0
  9 11  1  0
 11 12  1  0
 12 13  1  0
 13 14  2  0
 14 15  1  0
 15 16  2  0
 16 17  1  0
 17 18  1  0
 16 19  1  0
 19 20  2  0
  6 21  1  0
 21 22  2  0
 22  3  1  0
 12  7  2  0
 20 13  1  0
M  END
>  <zinc_id>  (1) 
ZINC000003280829

>  <smiles>  (1) 
COc1ccc(-c2nc(N)oc2-c2ccc(OC)cc2)cc1

$$$$
