
     RDKit          3D

 20 22  0  0  0  0  0  0  0  0999 V2000
   -5.1644    2.5722    0.3596 C   0  0  0  0  0  0  0  0  0  0  0  0
   -5.0947    1.6450   -0.6998 O   0  0  0  0  0  0  0  0  0  0  0  0
   -3.9933    0.8164   -0.9240 C   0  0  0  0  0  0  0  0  0  0  0  0
   -4.0963   -0.0319   -2.0082 C   0  0  0  0  0  0  0  0  0  0  0  0
   -3.0354   -0.8743   -2.2769 C   0  0  0  0  0  0  0  0  0  0  0  0
   -1.9056   -0.8682   -1.4853 C   0  0  0  0  0  0  0  0  0  0  0  0
   -0.7758   -1.5930   -1.5639 N   0  0  0  0  0  0  0  0  0  0  0  0
    0.0653   -1.2473   -0.5661 C   0  0  0  0  0  0  0  0  0  0  0  0
    1.3075   -1.6480   -0.1799 N   0  0  0  0  0  0  0  0  0  0  0  0
    1.9345   -1.1169    0.8903 C   0  0  0  0  0  0  0  0  0  0  0  0
    3.5568   -1.6430    1.3951 S   0  0  0  0  0  0  0  0  0  0  0  0
    4.8875   -0.7209    0.6369 C   0  0  0  0  0  0  0  0  0  0  0  0
    4.9473    0.7271    1.0535 C   0  0  0  0  0  0  0  0  0  0  0  0
    5.1420    0.7835    2.5578 C   0  0  0  0  0  0  0  0  0  0  0  0
    6.2135    1.2965    0.4049 C   0  0  0  0  0  0  0  0  0  0  0  0
    1.2623   -0.1591    1.5653 N   0  0  0  0  0  0  0  0  0  0  0  0
    0.0456    0.2553    1.2131 N   0  0  0  0  0  0  0  0  0  0  0  0
   -0.5922   -0.2655    0.1476 C   0  0  0  0  0  0  0  0  0  0  0  0
   -1.8288   -0.0060   -0.4039 C   0  0  0  0  0  0  0  0  0  0  0  0
   -2.8757    0.8439   -0.1162 C   0  0  0  0  0  0  0  0  0  0  0  0
  1  2  1  0
  2  3  1  0
  3  4  2  0
  4  5  1  0
  5  6  2  0
  6  7  1  0
  7  8  1  0
  8  9  2  0
  9 10  1  0
 10 11  1  0
 11 12  1  0
 12 13  1  0
 13 14  1  0
 13 15  1  0
 10 16  2  0
 16 17  1  0
 17 18  2  0
 18 19  1  0
 19 20  2  0
 20  3  1  0
 19  6  1  0
 18  8  1  0
M  END
>  <zinc_id>  (1) 
ZINC000001366260

>  <smiles>  (1) 
COc1ccc2[nH]c3nc(SCC(C)C)nnc3c2c1

$$$$
