
     RDKit          3D

 22 23  0  0  0  0  0  0  0  0999 V2000
   -2.9803   -2.2402    1.5884 C   0  0  0  0  0  0  0  0  0  0  0  0
   -2.9603   -0.7513    1.9266 C   0  0  0  0  0  0  0  0  0  0  0  0
   -3.4580    0.0642    0.8146 C   0  0  0  0  0  0  0  0  0  0  0  0
   -4.7385    0.6041    0.8798 C   0  0  0  0  0  0  0  0  0  0  0  0
   -5.2353    1.3757   -0.1528 C   0  0  0  0  0  0  0  0  0  0  0  0
   -4.4438    1.6150   -1.2716 C   0  0  0  0  0  0  0  0  0  0  0  0
   -3.1625    1.0660   -1.3207 C   0  0  0  0  0  0  0  0  0  0  0  0
   -2.2660    1.2909   -2.5010 C   0  0  0  0  0  0  0  0  0  0  0  0
   -2.6706    0.2972   -0.2889 C   0  0  0  0  0  0  0  0  0  0  0  0
   -1.3705   -0.2734   -0.3119 N   0  0  0  0  0  0  0  0  0  0  0  0
   -0.2233    0.3621    0.1819 C   0  0  0  0  0  0  0  0  0  0  0  0
   -0.3688    1.5278    0.6820 O   0  0  0  0  0  0  0  0  0  0  0  0
    1.1012   -0.2461    0.1455 C   0  0  0  0  0  0  0  0  0  0  0  0
    1.2194   -1.5145   -0.3809 C   0  0  0  0  0  0  0  0  0  0  0  0
    2.4469   -2.1103   -0.4292 C   0  0  0  0  0  0  0  0  0  0  0  0
    3.5604   -1.4187    0.0580 C   0  0  0  0  0  0  0  0  0  0  0  0
    4.8616   -2.1297   -0.0286 C   0  0  0  0  0  0  0  0  0  0  0  0
    3.4777   -0.1580    0.5873 C   0  0  0  0  0  0  0  0  0  0  0  0
    4.6344    0.4839    1.0609 N   0  0  0  0  0  4  0  0  0  0  0  0
    5.5955   -0.1308    1.5625 O   0  0  0  0  0  0  0  0  0  0  0  0
    4.7753    1.8657    0.9959 O   0  0  0  0  0  1  0  0  0  0  0  0
    2.2055    0.4204    0.6206 C   0  0  0  0  0  0  0  0  0  0  0  0
  1  2  1  0
  2  3  1  0
  3  4  2  0
  4  5  1  0
  5  6  2  0
  6  7  1  0
  7  8  1  0
  7  9  2  0
  9 10  1  0
 10 11  1  0
 11 12  2  0
 11 13  1  0
 13 14  2  0
 14 15  1  0
 15 16  2  0
 16 17  1  0
 16 18  1  0
 18 19  1  0
 19 20  2  0
 19 21  1  0
 18 22  2  0
  9  3  1  0
 22 13  1  0
M  CHG  2  19   1  21  -1
M  END
>  <zinc_id>  (1) 
ZINC000000300674

>  <smiles>  (1) 
CCc1cccc(C)c1NC(=O)c1ccc(C)c([N+](=O)[O-])c1

$$$$
