
     RDKit          3D

 20 22  0  0  0  0  0  0  0  0999 V2000
    0.4549    0.7527   -1.0900 O   0  0  0  0  0  0  0  0  0  0  0  0
    0.7310   -0.0690   -0.1843 C   0  0  0  0  0  0  0  0  0  0  0  0
   -0.3775   -0.7285    0.4301 N   0  0  0  0  0  0  0  0  0  0  0  0
   -1.7080   -0.4720    0.0421 N   0  0  0  0  0  0  0  0  0  0  0  0
   -2.6261   -0.1272    0.8522 C   0  0  0  0  0  0  0  0  0  0  0  0
   -4.0062    0.1453    0.4913 C   0  0  0  0  0  0  0  0  0  0  0  0
   -4.8556    0.5102    1.5356 C   0  0  0  0  0  0  0  0  0  0  0  0
   -6.1835    0.7927    1.3189 C   0  0  0  0  0  0  0  0  0  0  0  0
   -6.6760    0.7127    0.0507 C   0  0  0  0  0  0  0  0  0  0  0  0
   -5.8578    0.3522   -1.0137 C   0  0  0  0  0  0  0  0  0  0  0  0
   -4.5208    0.0729   -0.7620 C   0  0  0  0  0  0  0  0  0  0  0  0
    2.1106   -0.3430    0.2268 C   0  0  0  0  0  0  0  0  0  0  0  0
    2.5482   -1.1889    1.1722 N   0  0  0  0  0  0  0  0  0  0  0  0
    3.8529   -1.1779    1.2708 N   0  0  0  0  0  0  0  0  0  0  0  0
    4.2961   -0.2932    0.3583 C   0  0  0  0  0  0  0  0  0  0  0  0
    3.2254    0.2517   -0.3175 C   0  0  0  0  0  0  0  0  0  0  0  0
    3.3685    1.2641   -1.3926 C   0  0  0  0  0  0  0  0  0  0  0  0
    4.7973    1.6403   -1.6082 C   0  0  0  0  0  0  0  0  0  0  0  0
    5.7335    0.4493   -1.4283 C   0  0  0  0  0  0  0  0  0  0  0  0
    5.6932    0.1064    0.0475 C   0  0  0  0  0  0  0  0  0  0  0  0
  1  2  2  0
  2  3  1  0
  3  4  1  0
  4  5  2  0
  5  6  1  0
  6  7  2  0
  7  8  1  0
  8  9  2  0
  9 10  1  0
 10 11  2  0
  2 12  1  0
 12 13  2  0
 13 14  1  0
 14 15  1  0
 15 16  2  0
 16 17  1  0
 17 18  1  0
 18 19  1  0
 19 20  1  0
 11  6  1  0
 16 12  1  0
 20 15  1  0
M  END
>  <zinc_id>  (1) 
ZINC000002685796

>  <smiles>  (1) 
O=C(N/N=C/c1ccccc1)c1n[nH]c2c1CCCC2

$$$$
