
     RDKit          3D

 21 23  0  0  0  0  0  0  0  0999 V2000
    5.4072   -1.6627    1.3270 C   0  0  0  0  0  0  0  0  0  0  0  0
    5.9749   -0.6064    0.4041 C   0  0  0  0  0  0  0  0  0  0  0  0
    5.0740   -0.3498   -0.6548 O   0  0  0  0  0  0  0  0  0  0  0  0
    3.7976    0.1058   -0.3394 C   0  0  0  0  0  0  0  0  0  0  0  0
    2.9402    0.3664   -1.3945 C   0  0  0  0  0  0  0  0  0  0  0  0
    1.6516    0.8281   -1.1431 C   0  0  0  0  0  0  0  0  0  0  0  0
    1.2086    1.0327    0.1455 C   0  0  0  0  0  0  0  0  0  0  0  0
   -0.1176    1.5672    0.4230 C   0  0  0  0  0  0  0  0  0  0  0  0
   -1.2446    0.5768    0.2760 C   0  0  0  0  0  0  0  0  0  0  0  0
   -2.4856    1.0097   -0.1185 C   0  0  0  0  0  0  0  0  0  0  0  0
   -2.6421    2.4191   -0.3862 N   0  0  0  0  0  0  0  0  0  0  0  0
   -3.5461    0.1567   -0.2561 N   0  0  0  0  0  0  0  0  0  0  0  0
   -4.7550    0.4827   -0.6184 C   0  0  0  0  0  0  0  0  0  0  0  0
   -5.6995   -0.4760   -0.7082 C   0  0  0  0  0  0  0  0  0  0  0  0
   -4.8257   -1.8722   -0.2581 S   0  0  0  0  0  0  0  0  0  0  0  0
   -3.3006   -1.1242    0.0142 C   0  0  0  0  0  0  0  0  0  0  0  0
   -2.0656   -1.5745    0.4080 N   0  0  0  0  0  0  0  0  0  0  0  0
   -1.0048   -0.7567    0.5522 C   0  0  0  0  0  0  0  0  0  0  0  0
    0.1275   -1.1742    0.9130 O   0  0  0  0  0  0  0  0  0  0  0  0
    2.1173    0.7533    1.1763 C   0  0  0  0  0  0  0  0  0  0  0  0
    3.3885    0.2983    0.9658 C   0  0  0  0  0  0  0  0  0  0  0  0
  1  2  1  0
  2  3  1  0
  3  4  1  0
  4  5  2  0
  5  6  1  0
  6  7  2  0
  7  8  1  0
  8  9  1  0
  9 10  2  0
 10 11  1  0
 10 12  1  0
 12 13  1  0
 13 14  2  0
 14 15  1  0
 15 16  1  0
 16 17  2  0
 17 18  1  0
 18 19  2  0
  7 20  1  0
 20 21  2  0
 21  4  1  0
 18  9  1  0
 16 12  1  0
M  END
>  <zinc_id>  (1) 
ZINC000000418205

>  <smiles>  (1) 
CCOc1ccc(Cc2c(N)n3ccsc3nc2=O)cc1

$$$$
