
     RDKit          3D

 19 20  0  0  0  0  0  0  0  0999 V2000
    3.3501   -3.5440    0.6054 C   0  0  0  0  0  0  0  0  0  0  0  0
    3.7572   -2.3046    0.0859 O   0  0  0  0  0  0  0  0  0  0  0  0
    2.8903   -1.2075   -0.0375 C   0  0  0  0  0  0  0  0  0  0  0  0
    3.3478   -0.0049   -0.5514 C   0  0  0  0  0  0  0  0  0  0  0  0
    2.5392    1.0995   -0.6934 C   0  0  0  0  0  0  0  0  0  0  0  0
    1.2069    1.0595   -0.3221 C   0  0  0  0  0  0  0  0  0  0  0  0
    0.7385   -0.1332    0.1910 C   0  0  0  0  0  0  0  0  0  0  0  0
    1.5619   -1.2471    0.3323 C   0  0  0  0  0  0  0  0  0  0  0  0
   -0.5880    0.1096    0.4714 C   0  0  0  0  0  0  0  0  0  0  0  0
   -1.7770   -1.0254    1.1470 S   0  0  0  0  0  0  0  0  0  0  0  0
   -2.7140   -1.9265   -0.0111 C   0  0  0  0  0  0  0  0  0  0  0  0
   -2.0981   -2.9050   -0.8893 C   0  0  0  0  0  0  0  0  0  0  0  0
   -4.1402   -1.6014   -0.1879 C   0  0  0  0  0  0  0  0  0  0  0  0
   -0.8861    1.4093    0.1309 C   0  0  0  0  0  0  0  0  0  0  0  0
   -2.1970    2.0539    0.2785 C   0  0  0  0  0  0  0  0  0  0  0  0
   -2.3999    3.3970   -0.1197 N   0  0  0  0  0  0  0  0  0  0  0  0
   -3.1606    1.4045    0.7670 O   0  0  0  0  0  0  0  0  0  0  0  0
    0.2317    1.9939   -0.3611 N   0  0  0  0  0  0  0  0  0  0  0  0
    0.3374    3.3723   -0.8359 C   0  0  0  0  0  0  0  0  0  0  0  0
  1  2  1  0
  2  3  1  0
  3  4  2  0
  4  5  1  0
  5  6  2  0
  6  7  1  0
  7  8  2  0
  7  9  1  0
  9 10  1  0
 10 11  1  0
 11 12  1  0
 11 13  1  0
  9 14  2  0
 14 15  1  0
 15 16  1  0
 15 17  2  0
 14 18  1  0
 18 19  1  0
  8  3  1  0
 18  6  1  0
M  END
>  <zinc_id>  (1) 
ZINC000000020022

>  <smiles>  (1) 
COc1ccc2c(c1)c(SC(C)C)c(C(N)=O)n2C

$$$$
