
     RDKit          3D

 20 21  0  0  0  0  0  0  0  0999 V2000
   -4.1945    2.4993    0.7986 C   0  0  0  0  0  0  0  0  0  0  0  0
   -4.4756    1.1916    0.2422 N   0  0  0  0  0  0  0  0  0  0  0  0
   -5.8377    0.7633   -0.0297 C   0  0  0  0  0  0  0  0  0  0  0  0
   -3.4243    0.2750   -0.0597 C   0  0  0  0  0  0  0  0  0  0  0  0
   -2.0953    0.5816    0.1600 C   0  0  0  0  0  0  0  0  0  0  0  0
   -1.0667   -0.2891   -0.1246 C   0  0  0  0  0  0  0  0  0  0  0  0
   -1.3406   -1.5286   -0.6525 C   0  0  0  0  0  0  0  0  0  0  0  0
   -0.2574   -2.4018   -0.9342 N   0  0  0  0  0  0  0  0  0  0  0  0
    1.0961   -2.0495   -0.6940 C   0  0  0  0  0  0  0  0  0  0  0  0
    2.2301   -3.1698   -1.0735 S   0  0  0  0  0  0  0  0  0  0  0  0
    1.4559   -0.7715   -0.1441 N   0  0  0  0  0  0  0  0  0  0  0  0
    2.8044   -0.4135    0.0982 C   0  0  0  0  0  0  0  0  0  0  0  0
    3.6767   -1.2671   -0.1904 O   0  0  0  0  0  0  0  0  0  0  0  0
    3.1998    0.8722    0.6537 C   0  0  0  0  0  0  0  0  0  0  0  0
    2.3987    1.9311    1.0315 C   0  0  0  0  0  0  0  0  0  0  0  0
    3.2184    2.9471    1.5064 C   0  0  0  0  0  0  0  0  0  0  0  0
    4.4991    2.4344    1.3867 C   0  0  0  0  0  0  0  0  0  0  0  0
    4.4315    1.2272    0.8866 O   0  0  0  0  0  0  0  0  0  0  0  0
   -2.6511   -1.8588   -0.8805 C   0  0  0  0  0  0  0  0  0  0  0  0
   -3.6675   -0.9731   -0.5889 C   0  0  0  0  0  0  0  0  0  0  0  0
  1  2  1  0
  2  3  1  0
  2  4  1  0
  4  5  2  0
  5  6  1  0
  6  7  2  0
  7  8  1  0
  8  9  1  0
  9 10  2  0
  9 11  1  0
 11 12  1  0
 12 13  2  0
 12 14  1  0
 14 15  2  0
 15 16  1  0
 16 17  2  0
 17 18  1  0
  7 19  1  0
 19 20  2  0
 20  4  1  0
 18 14  1  0
M  END
>  <zinc_id>  (1) 
ZINC000000174051

>  <smiles>  (1) 
CN(C)c1ccc(NC(=S)NC(=O)c2ccco2)cc1

$$$$
