
     RDKit          3D

 21 23  0  0  0  0  0  0  0  0999 V2000
    0.0059   -0.9867    1.6784 O   0  0  0  0  0  0  0  0  0  0  0  0
    0.3965   -0.3940    0.6485 C   0  0  0  0  0  0  0  0  0  0  0  0
   -0.5559    0.1038   -0.2692 N   0  0  0  0  0  0  0  0  0  0  0  0
   -1.9527   -0.0386   -0.0752 C   0  0  0  0  0  0  0  0  0  0  0  0
   -2.4081   -0.6866    1.0496 C   0  0  0  0  0  0  0  0  0  0  0  0
   -3.7903   -0.8237    1.2349 C   0  0  0  0  0  0  0  0  0  0  0  0
   -4.6964   -0.3276    0.3223 C   0  0  0  0  0  0  0  0  0  0  0  0
   -4.2220    0.3154   -0.7930 C   0  0  0  0  0  0  0  0  0  0  0  0
   -2.8571    0.4529   -0.9797 C   0  0  0  0  0  0  0  0  0  0  0  0
   -5.3433    0.7755   -1.6508 C   0  0  0  0  0  0  0  0  0  0  0  0
   -6.4929    0.8476   -0.6626 C   0  0  0  0  0  0  0  0  0  0  0  0
   -6.1868   -0.3196    0.2470 C   0  0  0  0  0  0  0  0  0  0  0  0
    1.8140   -0.2136    0.3883 C   0  0  0  0  0  0  0  0  0  0  0  0
    2.2249    0.4469   -0.7596 C   0  0  0  0  0  0  0  0  0  0  0  0
    3.5709    0.6162   -1.0029 C   0  0  0  0  0  0  0  0  0  0  0  0
    4.5343    0.1539   -0.1483 C   0  0  0  0  0  0  0  0  0  0  0  0
    5.9292    0.3392   -0.4179 N   0  0  0  0  0  4  0  0  0  0  0  0
    6.7951   -0.0751    0.3483 O   0  0  0  0  0  0  0  0  0  0  0  0
    6.3320    0.9924   -1.5533 O   0  0  0  0  0  1  0  0  0  0  0  0
    4.1194   -0.4990    0.9860 C   0  0  0  0  0  0  0  0  0  0  0  0
    2.7830   -0.6793    1.2492 C   0  0  0  0  0  0  0  0  0  0  0  0
  1  2  2  0
  2  3  1  0
  3  4  1  0
  4  5  2  0
  5  6  1  0
  6  7  2  0
  7  8  1  0
  8  9  2  0
  8 10  1  0
 10 11  1  0
 11 12  1  0
  2 13  1  0
 13 14  2  0
 14 15  1  0
 15 16  2  0
 16 17  1  0
 17 18  2  0
 17 19  1  0
 16 20  1  0
 20 21  2  0
  9  4  1  0
 21 13  1  0
 12  7  1  0
M  CHG  2  17   1  19  -1
M  END
>  <zinc_id>  (1) 
ZINC000000250997

>  <smiles>  (1) 
O=C(Nc1ccc2c(c1)CCC2)c1ccc([N+](=O)[O-])cc1

$$$$
