
     RDKit          3D

 19 20  0  0  0  0  0  0  0  0999 V2000
    6.0769    1.0383    0.3341 C   0  0  0  0  0  0  0  0  0  0  0  0
    4.8913    0.3060   -0.2198 C   0  0  0  0  0  0  0  0  0  0  0  0
    5.1332   -1.1420   -0.4995 C   0  0  0  0  0  0  0  0  0  0  0  0
    4.3598    0.9622   -1.4927 C   0  0  0  0  0  0  0  0  0  0  0  0
    3.2372    0.2489   -2.0034 O   0  0  0  0  0  0  0  0  0  0  0  0
    2.0946    0.0699   -1.2159 C   0  0  0  0  0  0  0  0  0  0  0  0
    2.0303    0.5613    0.0517 C   0  0  0  0  0  0  0  0  0  0  0  0
    0.9312    0.4215    0.8929 C   0  0  0  0  0  0  0  0  0  0  0  0
   -0.1966   -0.2660    0.4221 C   0  0  0  0  0  0  0  0  0  0  0  0
   -1.3560   -0.4458    1.3069 C   0  0  0  0  0  0  0  0  0  0  0  0
   -2.5963   -0.3019    0.9626 C   0  0  0  0  0  0  0  0  0  0  0  0
   -3.0752    0.0470   -0.3062 N   0  0  0  0  0  0  0  0  0  0  0  0
   -4.4957    0.0903   -0.2576 C   0  0  0  0  0  0  0  0  0  0  0  0
   -5.5311    0.4486   -1.4796 S   0  0  0  0  0  0  0  0  0  0  0  0
   -4.8958   -0.2379    1.0723 N   0  0  0  0  0  0  0  0  0  0  0  0
   -3.7482   -0.4890    1.8631 C   0  0  0  0  0  0  0  0  0  0  0  0
   -3.7020   -0.8111    3.0981 O   0  0  0  0  0  0  0  0  0  0  0  0
   -0.1353   -0.7596   -0.8511 C   0  0  0  0  0  0  0  0  0  0  0  0
    0.9778   -0.6097   -1.6780 C   0  0  0  0  0  0  0  0  0  0  0  0
  1  2  1  0
  2  3  1  0
  2  4  1  0
  4  5  1  0
  5  6  1  0
  6  7  2  0
  7  8  1  0
  8  9  2  0
  9 10  1  0
 10 11  2  0
 11 12  1  0
 12 13  1  0
 13 14  2  0
 13 15  1  0
 15 16  1  0
 16 17  2  0
  9 18  1  0
 18 19  2  0
 19  6  1  0
 16 11  1  0
M  END
>  <zinc_id>  (1) 
ZINC000004093701

>  <smiles>  (1) 
CC(C)COc1ccc(/C=C2\NC(=S)NC2=O)cc1

$$$$
