
     RDKit          3D

 21 23  0  0  0  0  0  0  0  0999 V2000
    4.5133    1.9220    0.7995 C   0  0  0  0  0  0  0  0  0  0  0  0
    3.6696    0.8137    0.2777 C   0  0  0  0  0  0  0  0  0  0  0  0
    2.2853    0.8544    0.3582 C   0  0  0  0  0  0  0  0  0  0  0  0
    1.5082   -0.1755   -0.1270 C   0  0  0  0  0  0  0  0  0  0  0  0
    0.0812   -0.1263   -0.0404 N   0  0  0  0  0  0  0  0  0  0  0  0
   -0.7050   -0.7185    0.8785 C   0  0  0  0  0  0  0  0  0  0  0  0
   -0.2383   -1.5577    2.0079 C   0  0  0  0  0  0  0  0  0  0  0  0
   -2.0331   -0.4282    0.6152 C   0  0  0  0  0  0  0  0  0  0  0  0
   -3.2204   -0.7744    1.2319 C   0  0  0  0  0  0  0  0  0  0  0  0
   -3.2055   -1.6382    2.4454 C   0  0  0  0  0  0  0  0  0  0  0  0
   -4.3802   -0.3177    0.7163 N   0  0  0  0  0  0  0  0  0  0  0  0
   -4.3784    0.4478   -0.3607 N   0  0  0  0  0  0  0  0  0  0  0  0
   -3.2706    0.8249   -1.0122 C   0  0  0  0  0  0  0  0  0  0  0  0
   -3.2841    1.6842   -2.2194 C   0  0  0  0  0  0  0  0  0  0  0  0
   -2.0591    0.3663   -0.4994 C   0  0  0  0  0  0  0  0  0  0  0  0
   -0.7311    0.5353   -0.8823 C   0  0  0  0  0  0  0  0  0  0  0  0
   -0.3502    1.3494   -2.0690 C   0  0  0  0  0  0  0  0  0  0  0  0
    2.1640   -1.2467   -0.6951 C   0  0  0  0  0  0  0  0  0  0  0  0
    3.5507   -1.2834   -0.7738 C   0  0  0  0  0  0  0  0  0  0  0  0
    4.3314   -0.2563   -0.2902 C   0  0  0  0  0  0  0  0  0  0  0  0
    5.7523   -0.2750   -0.3612 N   0  0  0  0  0  0  0  0  0  0  0  0
  1  2  1  0
  2  3  2  0
  3  4  1  0
  4  5  1  0
  5  6  1  0
  6  7  1  0
  6  8  2  0
  8  9  1  0
  9 10  1  0
  9 11  2  0
 11 12  1  0
 12 13  2  0
 13 14  1  0
 13 15  1  0
 15 16  2  0
 16 17  1  0
  4 18  2  0
 18 19  1  0
 19 20  2  0
 20 21  1  0
 20  2  1  0
 16  5  1  0
 15  8  1  0
M  END
>  <zinc_id>  (1) 
ZINC000000536277

>  <smiles>  (1) 
Cc1cc(-n2c(C)c3c(C)nnc(C)c3c2C)ccc1N

$$$$
