
     RDKit          3D

 20 21  0  0  0  0  0  0  0  0999 V2000
    4.2422   -1.2145   -1.3473 C   0  0  0  0  0  0  0  0  0  0  0  0
    4.2847    0.2338   -0.9871 C   0  0  0  0  0  0  0  0  0  0  0  0
    4.4571    0.6282    0.3994 C   0  0  0  0  0  0  0  0  0  0  0  0
    3.5176    0.3120    1.4708 C   0  0  0  0  0  0  0  0  0  0  0  0
    2.1584    0.8577    1.2116 C   0  0  0  0  0  0  0  0  0  0  0  0
    1.5551    0.0794   -0.0803 C   0  0  1  0  0  0  0  0  0  0  0  0
    1.5271   -1.3333    0.5884 C   0  0  0  0  0  0  0  0  0  0  0  0
    2.5255   -1.6462    1.2447 O   0  0  0  0  0  0  0  0  0  0  0  0
    0.4183   -2.1351    0.4171 N   0  0  0  0  0  0  0  0  0  0  0  0
   -0.8331   -1.6109    0.1050 C   0  0  0  0  0  0  0  0  0  0  0  0
   -2.1754   -2.5719   -0.0981 S   0  0  0  0  0  0  0  0  0  0  0  0
   -1.0133   -0.2332   -0.0500 N   0  0  0  0  0  0  0  0  0  0  0  0
   -2.2715    0.3861   -0.3746 C   0  0  0  0  0  0  0  0  0  0  0  0
   -2.6357    1.5004    0.3556 C   0  0  0  0  0  0  0  0  0  0  0  0
   -3.8250    2.1480    0.0968 C   0  0  0  0  0  0  0  0  0  0  0  0
   -4.6563    1.6907   -0.8882 C   0  0  0  0  0  0  0  0  0  0  0  0
   -4.2598    0.5770   -1.5955 C   0  0  0  0  0  0  0  0  0  0  0  0
   -3.0798   -0.0892   -1.3597 C   0  0  0  0  0  0  0  0  0  0  0  0
    0.0751    0.5897    0.1109 C   0  0  0  0  0  0  0  0  0  0  0  0
   -0.0111    1.8313    0.4257 O   0  0  0  0  0  0  0  0  0  0  0  0
  1  2  1  0
  2  3  1  0
  3  4  1  0
  4  5  1  0
  6  5  1  1
  6  7  1  0
  7  8  2  0
  7  9  1  0
  9 10  1  0
 10 11  2  0
 10 12  1  0
 12 13  1  0
 13 14  2  0
 14 15  1  0
 15 16  2  0
 16 17  1  0
 17 18  2  0
 12 19  1  0
 19 20  2  0
 19  6  1  0
 18 13  1  0
M  END
>  <zinc_id>  (1) 
ZINC000002689941

>  <smiles>  (1) 
CCCCC[C@H]1C(=O)NC(=S)N(c2ccccc2)C1=O

$$$$
