
     RDKit          3D

 18 19  0  0  0  0  0  0  0  0999 V2000
   -0.1238    1.0368    0.9271 O   0  0  0  0  0  0  0  0  0  0  0  0
   -0.8791    0.1689    0.3887 C   0  0  0  0  0  0  0  0  0  0  0  0
   -0.2617   -0.9752   -0.2110 N   0  0  0  0  0  0  0  0  0  0  0  0
    1.1356   -1.1503   -0.2083 N   0  0  0  0  0  0  0  0  0  0  0  0
    2.0050   -0.2615   -0.8938 C   0  0  0  0  0  0  0  0  0  0  0  0
    3.2999   -0.4707   -0.9162 C   0  0  0  0  0  0  0  0  0  0  0  0
    3.8398   -1.6536   -0.2115 C   0  0  0  0  0  0  0  0  0  0  0  0
    4.7178   -1.1706    0.9197 C   0  0  0  0  0  0  0  0  0  0  0  0
    5.6345   -0.0856    0.4135 C   0  0  0  0  0  0  0  0  0  0  0  0
    5.6496   -0.0487   -1.1246 C   0  0  0  0  0  0  0  0  0  0  0  0
    4.2675    0.4163   -1.6129 C   0  0  0  0  0  0  0  0  0  0  0  0
   -2.3299    0.3594    0.3967 C   0  0  0  0  0  0  0  0  0  0  0  0
   -3.1595   -0.3699   -0.4363 C   0  0  0  0  0  0  0  0  0  0  0  0
   -4.5360   -0.1912   -0.4229 C   0  0  0  0  0  0  0  0  0  0  0  0
   -5.1428    0.7164    0.4159 C   0  0  0  0  0  0  0  0  0  0  0  0
   -6.8800    0.9716    0.4514 Cl  0  0  0  0  0  0  0  0  0  0  0  0
   -4.3015    1.4418    1.2479 C   0  0  0  0  0  0  0  0  0  0  0  0
   -2.9351    1.2660    1.2367 C   0  0  0  0  0  0  0  0  0  0  0  0
  1  2  2  0
  2  3  1  0
  3  4  1  0
  4  5  1  0
  5  6  2  3
  6  7  1  0
  7  8  1  0
  8  9  1  0
  9 10  1  0
 10 11  1  0
  2 12  1  0
 12 13  2  0
 13 14  1  0
 14 15  2  0
 15 16  1  0
 15 17  1  0
 17 18  2  0
 11  6  1  0
 18 12  1  0
M  END
>  <zinc_id>  (1) 
ZINC000003573733

>  <smiles>  (1) 
O=C(NNC=C1CCCCC1)c1ccc(Cl)cc1

$$$$
