
     RDKit          3D

 21 23  0  0  0  0  0  0  0  0999 V2000
   -4.6897    3.0158   -0.4845 C   0  0  0  0  0  0  0  0  0  0  0  0
   -4.6844    1.9014    0.3671 O   0  0  0  0  0  0  0  0  0  0  0  0
   -3.5443    1.0978    0.5389 C   0  0  0  0  0  0  0  0  0  0  0  0
   -2.3610    1.3570   -0.1204 C   0  0  0  0  0  0  0  0  0  0  0  0
   -1.2565    0.5494    0.0683 C   0  0  0  0  0  0  0  0  0  0  0  0
   -1.2788   -0.5409    0.9122 C   0  0  0  0  0  0  0  0  0  0  0  0
   -0.1108   -1.3286    1.0609 N   0  0  0  0  0  0  0  0  0  0  0  0
    1.1042   -1.0991    0.4121 C   0  0  0  0  0  0  0  0  0  0  0  0
    2.1571   -1.9495    0.6535 C   0  0  0  0  0  0  0  0  0  0  0  0
    3.3971   -1.8148    0.0675 C   0  0  0  0  0  0  0  0  0  0  0  0
    3.5968   -0.7717   -0.8092 C   0  0  0  0  0  0  0  0  0  0  0  0
    4.6614   -0.3846   -1.5202 N   0  0  0  0  0  0  0  0  0  0  0  0
    4.3107    0.7003   -2.2147 C   0  0  0  0  0  0  0  0  0  0  0  0
    5.0874    1.3146   -2.9876 O   0  0  0  0  0  0  0  0  0  0  0  0
    3.0600    0.9719   -1.9357 O   0  0  0  0  0  0  0  0  0  0  0  0
    2.5701    0.1032   -1.0796 C   0  0  0  0  0  0  0  0  0  0  0  0
    1.3299   -0.0581   -0.4732 C   0  0  0  0  0  0  0  0  0  0  0  0
   -2.4570   -0.8071    1.5749 C   0  0  0  0  0  0  0  0  0  0  0  0
   -2.4889   -1.9729    2.4805 C   0  0  0  0  0  0  0  0  0  0  0  0
   -3.5638    0.0072    1.3820 C   0  0  0  0  0  0  0  0  0  0  0  0
   -4.8395   -0.2912    2.1073 C   0  0  0  0  0  0  0  0  0  0  0  0
  1  2  1  0
  2  3  1  0
  3  4  2  0
  4  5  1  0
  5  6  2  0
  6  7  1  0
  7  8  1  0
  8  9  2  0
  9 10  1  0
 10 11  2  0
 11 12  1  0
 12 13  1  0
 13 14  2  0
 13 15  1  0
 15 16  1  0
 16 17  2  0
  6 18  1  0
 18 19  1  0
 18 20  2  0
 20 21  1  0
 20  3  1  0
 17  8  1  0
 16 11  1  0
M  END
>  <zinc_id>  (1) 
ZINC000000011877

>  <smiles>  (1) 
COc1ccc(Nc2ccc3[nH]c(=O)oc3c2)c(C)c1C

$$$$
