
     RDKit          3D

 21 23  0  0  0  0  0  0  0  0999 V2000
    4.0031    1.6710   -1.4477 C   0  0  0  0  0  0  0  0  0  0  0  0
    4.2229    0.8218   -0.2481 C   0  0  0  0  0  0  0  0  0  0  0  0
    3.6589    1.3189    1.0164 C   0  0  0  0  0  0  0  0  0  0  0  0
    2.3606    0.7418    1.4380 C   0  0  0  0  0  0  0  0  0  0  0  0
    1.9120   -0.3357    0.4937 C   0  0  0  0  0  0  0  0  0  0  0  0
    3.0851   -1.3197    0.3928 C   0  0  0  0  0  0  0  0  0  0  0  0
    4.1140   -0.6476   -0.4862 C   0  0  0  0  0  0  0  0  0  0  0  0
    1.6924    0.1635   -0.8434 N   0  0  0  0  0  0  0  0  0  0  0  0
    0.3667   -0.1629   -1.2030 C   0  0  0  0  0  0  0  0  0  0  0  0
   -0.2015    0.1290   -2.3112 O   0  0  0  0  0  0  0  0  0  0  0  0
   -0.2655   -0.8698   -0.1562 N   0  0  0  0  0  0  0  0  0  0  0  0
   -1.6487   -1.3859   -0.1436 C   0  0  0  0  0  0  0  0  0  0  0  0
   -2.5549   -0.3392    0.4114 C   0  0  0  0  0  0  0  0  0  0  0  0
   -2.0220    0.8700    0.8053 C   0  0  0  0  0  0  0  0  0  0  0  0
   -2.7755    1.8969    1.3284 C   0  0  0  0  0  0  0  0  0  0  0  0
   -4.1308    1.7194    1.4704 C   0  0  0  0  0  0  0  0  0  0  0  0
   -4.6673    0.5125    1.0780 C   0  0  0  0  0  0  0  0  0  0  0  0
   -3.8971   -0.5120    0.5531 C   0  0  0  0  0  0  0  0  0  0  0  0
   -4.4319   -1.6943    0.1701 F   0  0  0  0  0  0  0  0  0  0  0  0
    0.6757   -0.9990    0.8966 C   0  0  0  0  0  0  0  0  0  0  0  0
    0.5037   -1.5788    1.9978 O   0  0  0  0  0  0  0  0  0  0  0  0
  1  2  1  0
  2  3  1  0
  3  4  1  0
  4  5  1  0
  5  6  1  0
  6  7  1  0
  5  8  1  0
  8  9  1  0
  9 10  2  0
  9 11  1  0
 11 12  1  0
 12 13  1  0
 13 14  2  0
 14 15  1  0
 15 16  2  0
 16 17  1  0
 17 18  2  0
 18 19  1  0
 11 20  1  0
 20 21  2  0
  7  2  1  0
 18 13  1  0
 20  5  1  0
M  END
>  <zinc_id>  (1) 
ZINC000003610252

>  <smiles>  (1) 
CC1CCC2(CC1)NC(=O)N(Cc1ccccc1F)C2=O

$$$$
