
     RDKit          3D

 20 21  0  0  0  0  0  0  0  0999 V2000
    4.5879    2.1404    1.3227 C   0  0  0  0  0  0  0  0  0  0  0  0
    4.3886    0.9979    0.3203 C   0  0  0  0  0  0  0  0  0  0  0  0
    3.0406    0.5412    0.4839 O   0  0  0  0  0  0  0  0  0  0  0  0
    2.5706   -0.4678   -0.2706 C   0  0  0  0  0  0  0  0  0  0  0  0
    3.2837   -1.0336   -1.1281 O   0  0  0  0  0  0  0  0  0  0  0  0
    1.1551   -0.9247   -0.0772 C   0  0  0  0  0  0  0  0  0  0  0  0
    0.4861   -0.3145    0.8031 C   0  0  0  0  0  0  0  0  0  0  0  0
    1.0486    0.8222    1.6349 C   0  0  0  0  0  0  0  0  0  0  0  0
   -1.0058   -0.6696    1.1657 C   0  0  1  0  0  0  0  0  0  0  0  0
   -1.6761    0.5532    0.3943 C   0  0  0  0  0  0  0  0  0  0  0  0
   -1.1162    1.7784    0.5075 C   0  0  0  0  0  0  0  0  0  0  0  0
   -1.6926    2.8337   -0.1521 C   0  0  0  0  0  0  0  0  0  0  0  0
   -2.8236    2.6713   -0.9230 C   0  0  0  0  0  0  0  0  0  0  0  0
   -3.3695    1.4058   -1.0167 C   0  0  0  0  0  0  0  0  0  0  0  0
   -2.7827    0.3477   -0.3488 C   0  0  0  0  0  0  0  0  0  0  0  0
   -3.5399   -1.2253   -0.5090 Cl  0  0  0  0  0  0  0  0  0  0  0  0
   -1.4067   -1.7654    0.1895 N   0  0  0  0  0  0  0  0  0  0  0  0
   -0.6582   -2.3942   -0.7357 C   0  0  0  0  0  0  0  0  0  0  0  0
   -1.1520   -3.3413   -1.4428 O   0  0  0  0  0  0  0  0  0  0  0  0
    0.6620   -1.9551   -0.8690 N   0  0  0  0  0  0  0  0  0  0  0  0
  1  2  1  0
  2  3  1  0
  3  4  1  0
  4  5  2  0
  4  6  1  0
  6  7  2  0
  7  8  1  0
  7  9  1  0
  9 10  1  6
 10 11  2  0
 11 12  1  0
 12 13  2  0
 13 14  1  0
 14 15  2  0
 15 16  1  0
  9 17  1  0
 17 18  1  0
 18 19  2  0
 18 20  1  0
 20  6  1  0
 15 10  1  0
M  END
>  <zinc_id>  (1) 
ZINC000000339976

>  <smiles>  (1) 
CCOC(=O)C1=C(C)[C@@H](c2ccccc2Cl)NC(=O)N1

$$$$
