
     RDKit          3D

 22 26  0  0  0  0  0  0  0  0999 V2000
    4.0636    2.3844    1.5440 N   0  0  0  0  0  0  0  0  0  0  0  0
    3.3622    1.6772    0.5299 C   0  0  0  0  0  0  0  0  0  0  0  0
    3.3916    2.1200   -0.7598 C   0  0  0  0  0  0  0  0  0  0  0  0
    2.7216    1.4502   -1.7518 C   0  0  0  0  0  0  0  0  0  0  0  0
    2.0006    0.3013   -1.4356 C   0  0  0  0  0  0  0  0  0  0  0  0
    1.9544   -0.1658   -0.1451 C   0  0  0  0  0  0  0  0  0  0  0  0
    1.2471   -1.3342    0.2741 N   0  0  0  0  0  0  0  0  0  0  0  0
    1.7704   -2.4819    0.6853 N   0  0  0  0  0  0  0  0  0  0  0  0
    0.8506   -3.3596    1.0013 N   0  0  0  0  0  0  0  0  0  0  0  0
   -0.3312   -2.7667    0.7897 C   0  0  0  0  0  0  0  0  0  0  0  0
   -0.0693   -1.4843    0.3295 C   0  0  0  0  0  0  0  0  0  0  0  0
   -1.1352   -0.5175   -0.0165 C   0  0  0  0  0  0  0  0  0  0  0  0
   -0.6591    0.8076   -0.4857 C   0  0  0  0  0  0  0  0  0  0  0  0
   -1.9007    1.6434   -0.7989 C   0  0  0  0  0  0  0  0  0  0  0  0
   -2.7181    1.0110   -1.9094 C   0  0  0  0  0  0  0  0  0  0  0  0
   -3.1800   -0.3672   -1.4659 C   0  0  0  0  0  0  0  0  0  0  0  0
   -4.0308   -0.1913   -0.2340 C   0  0  0  0  0  0  0  0  0  0  0  0
   -3.2298    0.4626    0.8836 C   0  0  0  0  0  0  0  0  0  0  0  0
   -2.7549    1.8416    0.4496 C   0  0  0  0  0  0  0  0  0  0  0  0
   -1.9994   -0.3565    1.2314 C   0  0  0  0  0  0  0  0  0  0  0  0
   -1.9930   -1.2064   -1.0844 C   0  0  0  0  0  0  0  0  0  0  0  0
    2.6395    0.5322    0.8264 C   0  0  0  0  0  0  0  0  0  0  0  0
  1  2  1  0
  2  3  2  0
  3  4  1  0
  4  5  2  0
  5  6  1  0
  6  7  1  0
  7  8  1  0
  8  9  2  0
  9 10  1  0
 10 11  2  0
 11 12  1  0
 12 13  1  0
 13 14  1  0
 14 15  1  0
 15 16  1  0
 16 17  1  0
 17 18  1  0
 18 19  1  0
 18 20  1  0
 16 21  1  0
  6 22  2  0
 22  2  1  0
 11  7  1  0
 20 12  1  0
 21 12  1  0
 19 14  1  0
M  END
>  <zinc_id>  (1) 
ZINC000004046285

>  <smiles>  (1) 
Nc1cccc(-n2nncc2C23CC4CC(CC(C4)C2)C3)c1

$$$$
