
     RDKit          3D

 19 20  0  0  0  0  0  0  0  0999 V2000
    4.3959   -1.0370   -1.8788 C   0  0  0  0  0  0  0  0  0  0  0  0
    4.5914   -0.0849   -0.7011 C   0  0  0  0  0  0  0  0  0  0  0  0
    5.2580   -0.8013    0.4147 C   0  0  0  0  0  0  0  0  0  0  0  0
    5.3597    1.0965   -1.1778 C   0  0  0  0  0  0  0  0  0  0  0  0
    3.2430    0.3700   -0.1860 C   0  0  0  0  0  0  0  0  0  0  0  0
    3.1233    1.5201    0.5551 C   0  0  0  0  0  0  0  0  0  0  0  0
    1.4537    1.5889    0.8512 S   0  0  0  0  0  0  0  0  0  0  0  0
    1.0060    0.1430   -0.0042 C   0  0  0  0  0  0  0  0  0  0  0  0
   -0.3326   -0.3842   -0.2111 N   0  0  0  0  0  0  0  0  0  0  0  0
   -1.4589    0.3362    0.2581 C   0  0  0  0  0  0  0  0  0  0  0  0
   -1.1882    1.4244    0.8459 O   0  0  0  0  0  0  0  0  0  0  0  0
   -2.8445   -0.0350    0.1310 C   0  0  0  0  0  0  0  0  0  0  0  0
   -3.8039    0.8539    0.5946 C   0  0  0  0  0  0  0  0  0  0  0  0
   -5.1339    0.6068    0.4729 C   0  0  0  0  0  0  0  0  0  0  0  0
   -5.5470   -0.5392   -0.1148 C   0  0  0  0  0  0  0  0  0  0  0  0
   -4.6213   -1.4293   -0.5725 C   0  0  0  0  0  0  0  0  0  0  0  0
   -3.2431   -1.1880   -0.4601 C   0  0  0  0  0  0  0  0  0  0  0  0
   -2.4011   -2.1443   -0.9551 O   0  0  0  0  0  0  0  0  0  0  0  0
    2.1434   -0.2965   -0.4496 N   0  0  0  0  0  0  0  0  0  0  0  0
  1  2  1  0
  2  3  1  0
  2  4  1  0
  2  5  1  0
  5  6  2  0
  6  7  1  0
  7  8  1  0
  8  9  1  0
  9 10  1  0
 10 11  2  0
 10 12  1  0
 12 13  2  0
 13 14  1  0
 14 15  2  0
 15 16  1  0
 16 17  2  0
 17 18  1  0
  8 19  2  0
 19  5  1  0
 17 12  1  0
M  END
>  <zinc_id>  (1) 
ZINC000000318172

>  <smiles>  (1) 
CC(C)(C)c1csc(NC(=O)c2ccccc2O)n1

$$$$
