
     RDKit          3D

 20 20  0  0  0  0  0  0  0  0999 V2000
    2.6493    2.1945    2.0215 C   0  0  0  0  0  0  0  0  0  0  0  0
    3.4612    1.8892    0.7947 C   0  0  0  0  0  0  0  0  0  0  0  0
    3.0408    2.8950   -0.2718 C   0  0  0  0  0  0  0  0  0  0  0  0
    3.2082    0.5354    0.2789 C   0  0  0  0  0  0  0  0  0  0  0  0
    1.9160    0.1800   -0.1360 N   0  0  0  0  0  0  0  0  0  0  0  0
    0.7234    0.0842    0.5905 C   0  0  0  0  0  0  0  0  0  0  0  0
    0.7080    0.3358    1.8118 O   0  0  0  0  0  0  0  0  0  0  0  0
   -0.4877   -0.3152   -0.1221 C   0  0  0  0  0  0  0  0  0  0  0  0
   -0.4214   -1.1289   -1.2507 C   0  0  0  0  0  0  0  0  0  0  0  0
   -1.5471   -1.5153   -1.9472 C   0  0  0  0  0  0  0  0  0  0  0  0
   -2.8028   -1.1083   -1.5510 C   0  0  0  0  0  0  0  0  0  0  0  0
   -4.2694   -1.5673   -2.3906 Cl  0  0  0  0  0  0  0  0  0  0  0  0
   -2.8739   -0.3004   -0.4315 C   0  0  0  0  0  0  0  0  0  0  0  0
   -4.1853    0.1322   -0.0280 N   0  0  0  0  0  4  0  0  0  0  0  0
   -5.0903    0.3066   -0.8654 O   0  0  0  0  0  0  0  0  0  0  0  0
   -4.4869    0.3655    1.2903 O   0  0  0  0  0  1  0  0  0  0  0  0
   -1.7456    0.0894    0.2697 C   0  0  0  0  0  0  0  0  0  0  0  0
    4.1272   -0.5450    0.7133 C   0  0  0  0  0  0  0  0  0  0  0  0
    3.7523   -1.8951    0.1006 C   0  0  0  0  0  0  0  0  0  0  0  0
    4.3239   -0.6323    2.2098 C   0  0  0  0  0  0  0  0  0  0  0  0
  1  2  1  0
  2  3  1  0
  2  4  1  0
  4  5  1  0
  5  6  1  0
  6  7  2  0
  6  8  1  0
  8  9  2  0
  9 10  1  0
 10 11  2  0
 11 12  1  0
 11 13  1  0
 13 14  1  0
 14 15  2  0
 14 16  1  0
 13 17  2  0
  4 18  1  0
 18 19  1  0
 18 20  1  0
 17  8  1  0
M  CHG  2  14   1  16  -1
M  END
>  <zinc_id>  (1) 
ZINC000000452606

>  <smiles>  (1) 
CC(C)C(NC(=O)c1ccc(Cl)c([N+](=O)[O-])c1)C(C)C

$$$$
