
     RDKit          3D

 21 24  0  0  0  0  0  0  0  0999 V2000
   -0.7329    3.9578    0.3733 C   0  0  0  0  0  0  0  0  0  0  0  0
   -0.2116    2.5745    0.1943 C   0  0  0  0  0  0  0  0  0  0  0  0
    1.1119    2.3437    0.1784 N   0  0  0  0  0  0  0  0  0  0  0  0
    1.6358    1.1118    0.0211 C   0  0  0  0  0  0  0  0  0  0  0  0
    0.7148    0.0871   -0.1221 C   0  0  0  0  0  0  0  0  0  0  0  0
   -0.6394    0.2268   -0.1223 C   0  0  0  0  0  0  0  0  0  0  0  0
   -1.0995    1.5245    0.0438 C   0  0  0  0  0  0  0  0  0  0  0  0
   -2.4487    1.4416   -0.0101 N   0  0  0  0  0  0  0  0  0  0  0  0
   -2.8270    0.1753   -0.2016 C   0  0  0  0  0  0  0  0  0  0  0  0
   -4.0395   -0.4572   -0.3461 C   0  0  0  0  0  0  0  0  0  0  0  0
   -4.1899   -1.8094   -0.5592 C   0  0  0  0  0  0  0  0  0  0  0  0
   -3.0318   -2.5539   -0.6280 C   0  0  0  0  0  0  0  0  0  0  0  0
   -1.8253   -1.9893   -0.4934 C   0  0  0  0  0  0  0  0  0  0  0  0
   -1.6894   -0.6418   -0.2807 C   0  0  0  0  0  0  0  0  0  0  0  0
    1.3790   -1.3733   -0.2494 C   0  0  2  0  0  0  0  0  0  0  0  0
    0.3568   -2.2132    0.5073 O   0  0  0  0  0  0  0  0  0  0  0  0
    2.3485   -1.1646    1.1331 C   0  0  0  0  0  0  0  0  0  0  0  0
    3.5019   -0.5020    0.3675 C   0  0  0  0  0  0  0  0  0  0  0  0
    3.8287   -1.2370   -0.9142 C   0  0  0  0  0  0  0  0  0  0  0  0
    4.7592   -0.3944    1.1569 C   0  0  0  0  0  0  0  0  0  0  0  0
    3.0984    0.8930   -0.0487 C   0  0  0  0  0  0  0  0  0  0  0  0
  1  2  1  0
  2  3  2  0
  3  4  1  0
  4  5  2  0
  5  6  1  0
  6  7  2  0
  7  8  1  0
  8  9  1  0
  9 10  2  0
 10 11  1  0
 11 12  2  0
 12 13  1  0
 13 14  2  0
  5 15  1  0
 15 16  1  1
 15 17  1  0
 17 18  1  0
 18 19  1  0
 18 20  1  0
 18 21  1  0
  7  2  1  0
 14  9  1  0
 21  4  1  0
 14  6  1  0
M  END
>  <zinc_id>  (1) 
ZINC000000172324

>  <smiles>  (1) 
Cc1nc2c(c3c1[nH]c1ccccc13)[C@H](O)CC(C)(C)C2

$$$$
