
     RDKit          3D

 24 28  0  0  0  0  0  0  0  0999 V2000
   -4.2577    2.4568   -0.8611 O   0  0  0  0  0  0  0  0  0  0  0  0
   -4.1052    1.2300   -0.8785 N   0  0  0  0  0  4  0  0  0  0  0  0
   -5.1393    0.4208   -1.2409 O   0  0  0  0  0  1  0  0  0  0  0  0
   -2.8543    0.6859   -0.5192 C   0  0  0  0  0  0  0  0  0  0  0  0
   -1.7291    1.4611   -0.7200 C   0  0  0  0  0  0  0  0  0  0  0  0
   -0.5008    0.9198   -0.3644 C   0  0  0  0  0  0  0  0  0  0  0  0
   -0.3861   -0.3450    0.1716 C   0  0  0  0  0  0  0  0  0  0  0  0
    0.8672   -0.9052    0.5377 N   0  0  0  0  0  0  0  0  0  0  0  0
    2.0928   -0.1633    0.3629 C   0  0  0  0  0  0  0  0  0  0  0  0
    3.2338   -1.0309    0.8428 C   0  0  0  0  0  0  0  0  0  0  0  0
    4.5454   -0.3856    0.5449 C   0  0  0  0  0  0  0  0  0  0  0  0
    4.6263   -0.1983   -0.9692 C   0  0  0  0  0  0  0  0  0  0  0  0
    3.5386    0.7478   -1.4263 C   0  0  0  0  0  0  0  0  0  0  0  0
    3.6150    2.0763   -0.7186 C   0  0  0  0  0  0  0  0  0  0  0  0
    3.4236    1.8299    0.7698 C   0  0  0  0  0  0  0  0  0  0  0  0
    4.6026    0.9741    1.2188 C   0  0  0  0  0  0  0  0  0  0  0  0
    2.1180    1.1490    1.0777 C   0  0  0  0  0  0  0  0  0  0  0  0
    2.2137    0.1323   -1.1281 C   0  0  0  0  0  0  0  0  0  0  0  0
   -1.5355   -1.0902    0.3574 C   0  0  0  0  0  0  0  0  0  0  0  0
   -1.4453   -2.3266    0.8793 N   0  0  0  0  0  0  0  0  0  0  0  0
   -2.5147   -3.1122    1.0906 C   0  0  0  0  0  0  0  0  0  0  0  0
   -3.7522   -2.6078    0.7494 C   0  0  0  0  0  0  0  0  0  0  0  0
   -3.8924   -1.3457    0.2115 C   0  0  0  0  0  0  0  0  0  0  0  0
   -2.7644   -0.5731    0.0119 C   0  0  0  0  0  0  0  0  0  0  0  0
  1  2  2  0
  2  3  1  0
  2  4  1  0
  4  5  2  0
  5  6  1  0
  6  7  2  0
  7  8  1  0
  8  9  1  0
  9 10  1  0
 10 11  1  0
 11 12  1  0
 12 13  1  0
 13 14  1  0
 14 15  1  0
 15 16  1  0
 15 17  1  0
 13 18  1  0
  7 19  1  0
 19 20  2  0
 20 21  1  0
 21 22  2  0
 22 23  1  0
 23 24  2  0
 24  4  1  0
 17  9  1  0
 24 19  1  0
 18  9  1  0
 16 11  1  0
M  CHG  2   2   1   3  -1
M  END
>  <zinc_id>  (1) 
ZINC000004131904

>  <smiles>  (1) 
O=[N+]([O-])c1ccc(NC23CC4CC(CC(C4)C2)C3)c2ncccc12

$$$$
