
     RDKit          3D

 21 22  0  0  0  0  0  0  0  0999 V2000
   -4.4612    1.8920   -1.3153 C   0  0  0  0  0  0  0  0  0  0  0  0
   -4.1270    0.4145   -1.3912 C   0  0  0  0  0  0  0  0  0  0  0  0
   -2.8852    0.1624   -0.6455 N   0  0  0  0  0  0  0  0  0  0  0  0
   -1.6434    0.2426   -1.3101 C   0  0  0  0  0  0  0  0  0  0  0  0
   -1.5685    0.5257   -2.5322 O   0  0  0  0  0  0  0  0  0  0  0  0
   -0.3717   -0.0049   -0.5903 C   0  0  0  0  0  0  0  0  0  0  0  0
    0.7260    0.0911   -1.2467 C   0  0  0  0  0  0  0  0  0  0  0  0
    2.1008   -0.0762   -0.8890 C   0  0  0  0  0  0  0  0  0  0  0  0
    2.6249   -1.0585   -0.0808 C   0  0  0  0  0  0  0  0  0  0  0  0
    3.9713   -1.1300    0.2066 C   0  0  0  0  0  0  0  0  0  0  0  0
    4.8762   -0.2203   -0.2992 C   0  0  0  0  0  0  0  0  0  0  0  0
    6.2202   -0.3324    0.0177 O   0  0  0  0  0  0  0  0  0  0  0  0
    4.3791    0.7746   -1.1122 C   0  0  0  0  0  0  0  0  0  0  0  0
    3.0358    0.8443   -1.3975 C   0  0  0  0  0  0  0  0  0  0  0  0
   -0.5010   -0.3265    0.8107 C   0  0  0  0  0  0  0  0  0  0  0  0
    0.5382   -0.5482    1.4872 O   0  0  0  0  0  0  0  0  0  0  0  0
   -1.7965   -0.3981    1.4523 N   0  0  0  0  0  0  0  0  0  0  0  0
   -1.8732   -0.7256    2.8623 C   0  0  0  0  0  0  0  0  0  0  0  0
   -1.8208    0.4964    3.7450 C   0  0  0  0  0  0  0  0  0  0  0  0
   -2.9931   -0.1556    0.7336 C   0  0  0  0  0  0  0  0  0  0  0  0
   -4.4311   -0.2465    1.4947 S   0  0  0  0  0  0  0  0  0  0  0  0
  1  2  1  0
  2  3  1  0
  3  4  1  0
  4  5  2  0
  4  6  1  0
  6  7  2  3
  7  8  1  0
  8  9  2  0
  9 10  1  0
 10 11  2  0
 11 12  1  0
 11 13  1  0
 13 14  2  0
  6 15  1  0
 15 16  2  0
 15 17  1  0
 17 18  1  0
 18 19  1  0
 17 20  1  0
 20 21  2  0
 20  3  1  0
 14  8  1  0
M  END
>  <zinc_id>  (1) 
ZINC000000069233

>  <smiles>  (1) 
CCN1C(=O)C(=Cc2ccc(O)cc2)C(=O)N(CC)C1=S

$$$$
