
     RDKit          3D

 21 22  0  0  0  0  0  0  0  0999 V2000
   -7.0692   -0.8305    0.0597 C   0  0  0  0  0  0  0  0  0  0  0  0
   -5.8519   -0.3611    0.6352 O   0  0  0  0  0  0  0  0  0  0  0  0
   -4.6257   -0.6049    0.0178 C   0  0  0  0  0  0  0  0  0  0  0  0
   -4.5255   -1.2999   -1.1603 C   0  0  0  0  0  0  0  0  0  0  0  0
   -3.2854   -1.4968   -1.7017 C   0  0  0  0  0  0  0  0  0  0  0  0
   -2.1490   -1.0150   -1.0918 C   0  0  0  0  0  0  0  0  0  0  0  0
   -2.2447   -0.3200    0.0856 C   0  0  0  0  0  0  0  0  0  0  0  0
   -1.0638    0.2295    0.8007 C   0  0  0  0  0  0  0  0  0  0  0  0
    0.1677   -0.0805    0.0710 N   0  0  0  0  0  0  0  0  0  0  0  0
    1.4359    0.3168    0.5207 C   0  0  0  0  0  0  0  0  0  0  0  0
    1.6167    1.0263    1.6836 C   0  0  0  0  0  0  0  0  0  0  0  0
    2.8899    1.3801    2.0586 C   0  0  0  0  0  0  0  0  0  0  0  0
    3.9954    1.0475    1.3076 C   0  0  0  0  0  0  0  0  0  0  0  0
    5.3778    1.4322    1.7160 C   0  0  0  0  0  0  0  0  0  0  0  0
    3.8277    0.3331    0.1342 C   0  0  0  0  0  0  0  0  0  0  0  0
    4.9682    0.0020   -0.6201 N   0  0  0  0  0  4  0  0  0  0  0  0
    4.9955   -0.9987   -1.3553 O   0  0  0  0  0  0  0  0  0  0  0  0
    6.0842    0.7897   -0.5553 O   0  0  0  0  0  1  0  0  0  0  0  0
    2.5430   -0.0121   -0.2245 C   0  0  0  0  0  0  0  0  0  0  0  0
   -3.4909   -0.1234    0.6275 C   0  0  0  0  0  0  0  0  0  0  0  0
   -3.5959    0.5858    1.8302 O   0  0  0  0  0  0  0  0  0  0  0  0
  1  2  1  0
  2  3  1  0
  3  4  2  0
  4  5  1  0
  5  6  2  0
  6  7  1  0
  7  8  1  0
  8  9  1  0
  9 10  1  0
 10 11  2  0
 11 12  1  0
 12 13  2  0
 13 14  1  0
 13 15  1  0
 15 16  1  0
 16 17  2  0
 16 18  1  0
 15 19  2  0
  7 20  2  0
 20 21  1  0
 20  3  1  0
 19 10  1  0
M  CHG  2  16   1  18  -1
M  END
>  <zinc_id>  (1) 
ZINC000002156127

>  <smiles>  (1) 
COc1cccc(CNc2ccc(C)c([N+](=O)[O-])c2)c1O

$$$$
