
     RDKit          2D

 19 22  0  0  0  0  0  0  0  0999 V2000
   -3.2794   -2.7389    0.0000 O   0  0  0  0  0  0  0  0  0  0  0  0
   -2.9423   -1.2772    0.0000 C   0  0  0  0  0  0  0  0  0  0  0  0
   -1.5617   -0.6908    0.0000 C   0  0  0  0  0  0  0  0  0  0  0  0
   -3.0233   -0.3537    0.0000 C   0  0  0  0  0  0  0  0  0  0  0  0
   -4.4039   -0.9402    0.0000 C   0  0  0  0  0  0  0  0  0  0  0  0
   -5.3883    0.1917    0.0000 C   0  0  0  0  0  0  0  0  0  0  0  0
   -4.6161    1.4776    0.0000 C   0  0  0  0  0  0  0  0  0  0  0  0
   -3.1544    1.1405    0.0000 C   0  0  0  0  0  0  0  0  0  0  0  0
   -1.7738    1.7270    0.0000 C   0  0  0  0  0  0  0  0  0  0  0  0
   -0.7894    0.5951    0.0000 N   0  0  0  0  0  0  0  0  0  0  0  0
    0.7048    0.7262    0.0000 C   0  0  0  0  0  0  0  0  0  0  0  0
    1.3384    2.0858    0.0000 S   0  0  0  0  0  0  0  0  0  0  0  0
    1.5655   -0.5023    0.0000 N   0  0  0  0  0  0  0  0  0  0  0  0
    3.0597   -0.3712    0.0000 C   0  0  0  0  0  0  0  0  0  0  0  0
    3.9204   -1.5997    0.0000 C   0  0  0  0  0  0  0  0  0  0  0  0
    5.4147   -1.4687    0.0000 C   0  0  0  0  0  0  0  0  0  0  0  0
    6.0483   -0.1090    0.0000 C   0  0  0  0  0  0  0  0  0  0  0  0
    5.1876    1.1195    0.0000 C   0  0  0  0  0  0  0  0  0  0  0  0
    3.6933    0.9884    0.0000 C   0  0  0  0  0  0  0  0  0  0  0  0
  2  1  1  1
  2  3  1  0
  3  4  1  0
  4  5  1  6
  5  6  1  0
  6  7  1  1
  8  7  1  6
  8  9  1  0
  9 10  1  0
 10 11  1  0
 11 12  2  0
 11 13  1  0
 13 14  1  0
 14 15  2  0
 15 16  1  0
 16 17  2  0
 17 18  1  0
 18 19  2  0
  6  2  1  0
 19 14  1  0
  3 10  1  6
  8  4  1  0
M  END
>  <zinc_id>  (1) 
ZINC000000180621

>  <smiles>  (1) 
O[C@@H]1[C@@H]2[C@@H]3C[C@H]1C[C@@H]3CN2C(=S)Nc1ccccc1

$$$$
