
     RDKit          3D

 21 24  0  0  0  0  0  0  0  0999 V2000
   -1.9814    2.2080    0.3227 O   0  0  0  0  0  0  0  0  0  0  0  0
   -2.1215    0.9598    0.3218 C   0  0  0  0  0  0  0  0  0  0  0  0
   -1.0194    0.0904    0.5849 N   0  0  0  0  0  0  0  0  0  0  0  0
    0.1995    0.6532    0.8394 N   0  0  0  0  0  0  0  0  0  0  0  0
    1.3412    0.2642    0.4998 C   0  0  0  0  0  0  0  0  0  0  0  0
    1.3187   -1.0389   -0.3201 C   0  0  1  0  0  0  0  0  0  0  0  0
    2.0447   -0.4056   -1.6631 C   0  0  0  0  0  0  0  0  0  0  0  0
    3.1306    0.4415   -1.3489 C   0  0  0  0  0  0  0  0  0  0  0  0
    3.0494    1.5691   -0.4993 C   0  0  0  0  0  0  0  0  0  0  0  0
    2.4572    1.1973    0.9963 C   0  0  2  0  0  0  0  0  0  0  0  0
    3.6068    0.0886    1.3631 C   0  0  0  0  0  0  0  0  0  0  0  0
    3.7803   -0.8962    0.3656 C   0  0  0  0  0  0  0  0  0  0  0  0
    5.1431   -1.9349    0.9440 Cl  0  0  0  0  0  0  0  0  0  0  0  0
    4.3500   -0.3963   -0.9782 C   0  0  0  0  0  0  0  0  0  0  0  0
    2.6630   -1.7608    0.2732 C   0  0  0  0  0  0  0  0  0  0  0  0
   -3.4479    0.3747    0.0443 C   0  0  0  0  0  0  0  0  0  0  0  0
   -4.5092    1.1939   -0.2086 C   0  0  0  0  0  0  0  0  0  0  0  0
   -5.7324    0.6467   -0.4643 C   0  0  0  0  0  0  0  0  0  0  0  0
   -5.8500   -0.7312   -0.4572 C   0  0  0  0  0  0  0  0  0  0  0  0
   -4.8026   -1.5338   -0.2078 N   0  0  0  0  0  0  0  0  0  0  0  0
   -3.6200   -0.9896    0.0391 C   0  0  0  0  0  0  0  0  0  0  0  0
  1  2  2  0
  2  3  1  0
  3  4  1  0
  4  5  2  3
  5  6  1  0
  6  7  1  6
  7  8  1  0
  8  9  1  0
 10  9  1  6
 10 11  1  0
 11 12  1  0
 12 13  1  0
 12 14  1  0
 12 15  1  0
  2 16  1  0
 16 17  2  0
 17 18  1  0
 18 19  2  0
 19 20  1  0
 20 21  2  0
 10  5  1  0
 21 16  1  0
 15  6  1  0
 14  8  1  0
M  END
>  <zinc_id>  (1) 
ZINC000000246898

>  <smiles>  (1) 
O=C(NN=C1[C@H]2CC3C[C@@H]1CC(Cl)(C3)C2)c1cccnc1

$$$$
