
     RDKit          3D

 22 25  0  0  0  0  0  0  0  0999 V2000
    2.2394   -2.4721    0.6365 O   0  0  0  0  0  0  0  0  0  0  0  0
    1.1625   -1.8372    0.5402 C   0  0  0  0  0  0  0  0  0  0  0  0
    0.1826   -2.0537    1.4386 N   0  0  0  0  0  0  0  0  0  0  0  0
   -1.0137   -1.3836    1.3752 C   0  0  0  0  0  0  0  0  0  0  0  0
   -2.4523   -1.3859    2.3024 S   0  0  0  0  0  0  0  0  0  0  0  0
   -3.3420   -0.2276    1.4361 C   0  0  0  0  0  0  0  0  0  0  0  0
   -2.4825    0.1367    0.4315 C   0  0  0  0  0  0  0  0  0  0  0  0
   -1.2775   -0.4620    0.4006 C   0  0  0  0  0  0  0  0  0  0  0  0
   -0.2320   -0.2595   -0.5225 C   0  0  0  0  0  0  0  0  0  0  0  0
   -0.3845    0.5837   -1.4714 O   0  0  0  0  0  0  0  0  0  0  0  0
    0.9148   -0.9370   -0.4182 N   0  0  0  0  0  0  0  0  0  0  0  0
    1.9552   -0.6896   -1.3939 C   0  0  0  0  0  0  0  0  0  0  0  0
    2.8660    0.4047   -0.9562 C   0  0  0  0  0  0  0  0  0  0  0  0
    3.9635    0.0779   -0.2210 C   0  0  0  0  0  0  0  0  0  0  0  0
    4.8264    1.0681    0.1996 C   0  0  0  0  0  0  0  0  0  0  0  0
    4.5884    2.3817   -0.1168 C   0  0  0  0  0  0  0  0  0  0  0  0
    3.4778    2.7021   -0.8594 C   0  0  0  0  0  0  0  0  0  0  0  0
    2.6212    1.7192   -1.2770 C   0  0  0  0  0  0  0  0  0  0  0  0
   -3.0917    1.1942   -0.4899 C   0  0  0  0  0  0  0  0  0  0  0  0
   -4.4174    0.5759   -0.9360 C   0  0  0  0  0  0  0  0  0  0  0  0
   -5.3883    0.4685    0.2037 C   0  0  0  0  0  0  0  0  0  0  0  0
   -4.7159    0.3955    1.5452 C   0  0  0  0  0  0  0  0  0  0  0  0
  1  2  2  0
  2  3  1  0
  3  4  1  0
  4  5  1  0
  5  6  1  0
  6  7  2  0
  7  8  1  0
  8  9  1  0
  9 10  2  0
  9 11  1  0
 11 12  1  0
 12 13  1  0
 13 14  2  0
 14 15  1  0
 15 16  2  0
 16 17  1  0
 17 18  2  0
  7 19  1  0
 19 20  1  0
 20 21  1  0
 21 22  1  0
 11  2  1  0
 18 13  1  0
  8  4  2  0
 22  6  1  0
M  END
>  <zinc_id>  (1) 
ZINC000000422990

>  <smiles>  (1) 
O=c1[nH]c2sc3c(c2c(=O)n1Cc1ccccc1)CCCC3

$$$$
