
     RDKit          3D

 21 22  0  0  0  0  0  0  0  0999 V2000
   -4.6097    2.7335   -0.3256 C   0  0  0  0  0  0  0  0  0  0  0  0
   -3.6942    1.5976    0.0171 C   0  0  0  0  0  0  0  0  0  0  0  0
   -3.9089    0.8085    1.1327 C   0  0  0  0  0  0  0  0  0  0  0  0
   -3.0388   -0.2267    1.4090 C   0  0  0  0  0  0  0  0  0  0  0  0
   -1.9656   -0.4667    0.5735 C   0  0  0  0  0  0  0  0  0  0  0  0
   -1.0302   -1.6008    0.8156 C   0  0  0  0  0  0  0  0  0  0  0  0
   -1.2890   -2.1707    2.2211 C   0  0  0  0  0  0  0  0  0  0  0  0
   -1.2872   -2.7141   -0.2050 C   0  0  0  0  0  0  0  0  0  0  0  0
   -1.7643    0.3269   -0.5312 C   0  0  0  0  0  0  0  0  0  0  0  0
   -0.7020    0.1448   -1.4157 O   0  0  0  0  0  0  0  0  0  0  0  0
    0.6078    0.2740   -1.0108 C   0  0  0  0  0  0  0  0  0  0  0  0
    1.2008    1.5218   -1.1166 C   0  0  0  0  0  0  0  0  0  0  0  0
    2.5053    1.7656   -0.7404 C   0  0  0  0  0  0  0  0  0  0  0  0
    3.0412    3.0740   -0.8831 N   0  0  0  0  0  0  0  0  0  0  0  0
    3.2311    0.7056   -0.2399 C   0  0  0  0  0  0  0  0  0  0  0  0
    2.6998   -0.5700   -0.1069 C   0  0  0  0  0  0  0  0  0  0  0  0
    3.4759   -1.6446    0.4141 N   0  0  0  0  0  4  0  0  0  0  0  0
    2.9965   -2.7736    0.5307 O   0  0  0  0  0  0  0  0  0  0  0  0
    4.7725   -1.4264    0.7932 O   0  0  0  0  0  1  0  0  0  0  0  0
    1.3902   -0.7351   -0.5040 C   0  0  0  0  0  0  0  0  0  0  0  0
   -2.6311    1.3765   -0.8277 C   0  0  0  0  0  0  0  0  0  0  0  0
  1  2  1  0
  2  3  2  0
  3  4  1  0
  4  5  2  0
  5  6  1  0
  6  7  1  0
  6  8  1  0
  5  9  1  0
  9 10  1  0
 10 11  1  0
 11 12  2  0
 12 13  1  0
 13 14  1  0
 13 15  2  0
 15 16  1  0
 16 17  1  0
 17 18  2  0
 17 19  1  0
 16 20  2  0
  9 21  2  0
 21  2  1  0
 20 11  1  0
M  CHG  2  17   1  19  -1
M  END
>  <zinc_id>  (1) 
ZINC000000265802

>  <smiles>  (1) 
Cc1ccc(C(C)C)c(Oc2cc(N)cc([N+](=O)[O-])c2)c1

$$$$
