
     RDKit          3D

 21 23  0  0  0  0  0  0  0  0999 V2000
    6.6115    1.4622    1.2451 C   0  0  0  0  0  0  0  0  0  0  0  0
    5.8268    1.0745    0.1406 O   0  0  0  0  0  0  0  0  0  0  0  0
    4.5688    0.5480    0.3687 C   0  0  0  0  0  0  0  0  0  0  0  0
    4.0804    0.3933    1.6370 C   0  0  0  0  0  0  0  0  0  0  0  0
    2.8321   -0.1254    1.8326 C   0  0  0  0  0  0  0  0  0  0  0  0
    2.0211   -0.5105    0.7660 C   0  0  0  0  0  0  0  0  0  0  0  0
    0.7268   -1.0661    1.0528 C   0  0  0  0  0  0  0  0  0  0  0  0
   -0.4134   -0.7052    0.5314 C   0  0  0  0  0  0  0  0  0  0  0  0
   -1.7016   -1.2005    0.7617 O   0  0  0  0  0  0  0  0  0  0  0  0
   -2.6047   -0.5019   -0.0171 C   0  0  0  0  0  0  0  0  0  0  0  0
   -1.9529    0.4595   -0.7724 C   0  0  0  0  0  0  0  0  0  0  0  0
   -2.6890    1.2624   -1.6200 C   0  0  0  0  0  0  0  0  0  0  0  0
   -4.0589    1.1320   -1.7354 C   0  0  0  0  0  0  0  0  0  0  0  0
   -4.6937    0.1843   -0.9892 C   0  0  0  0  0  0  0  0  0  0  0  0
   -6.0560    0.0615   -1.1053 O   0  0  0  0  0  0  0  0  0  0  0  0
   -3.9696   -0.6137   -0.1477 C   0  0  0  0  0  0  0  0  0  0  0  0
   -4.6947   -1.6297    0.6575 C   0  0  0  0  0  0  0  0  0  0  0  0
   -0.5411    0.3695   -0.4565 C   0  0  0  0  0  0  0  0  0  0  0  0
    0.3448    1.0934   -0.9586 O   0  0  0  0  0  0  0  0  0  0  0  0
    2.5567   -0.3370   -0.4865 C   0  0  0  0  0  0  0  0  0  0  0  0
    3.8066    0.1824   -0.7048 C   0  0  0  0  0  0  0  0  0  0  0  0
  1  2  1  0
  2  3  1  0
  3  4  2  0
  4  5  1  0
  5  6  2  0
  6  7  1  0
  7  8  2  0
  8  9  1  0
  9 10  1  0
 10 11  2  0
 11 12  1  0
 12 13  2  0
 13 14  1  0
 14 15  1  0
 14 16  2  0
 16 17  1  0
 11 18  1  0
 18 19  2  0
  6 20  1  0
 20 21  2  0
 21  3  1  0
 18  8  1  0
 16 10  1  0
M  END
>  <zinc_id>  (1) 
ZINC000002136055

>  <smiles>  (1) 
COc1ccc(/C=C2/Oc3c(ccc(O)c3C)C2=O)cc1

$$$$
