
     RDKit          3D

 21 23  0  0  0  0  0  0  0  0999 V2000
    3.7323    2.1390   -1.3016 C   0  0  0  0  0  0  0  0  0  0  0  0
    3.9167    0.8992   -0.4920 C   0  0  0  0  0  0  0  0  0  0  0  0
    4.7645   -0.1386   -1.2050 C   0  0  0  0  0  0  0  0  0  0  0  0
    4.6581    1.2677    0.7775 C   0  0  0  0  0  0  0  0  0  0  0  0
    2.6026    0.2830   -0.1091 C   0  0  0  0  0  0  0  0  0  0  0  0
    1.3860    0.7512   -0.4307 N   0  0  0  0  0  0  0  0  0  0  0  0
    0.4508   -0.0565    0.0822 N   0  0  0  0  0  0  0  0  0  0  0  0
   -0.9549    0.1138   -0.0481 C   0  0  0  0  0  0  0  0  0  0  0  0
   -1.7070   -0.6067   -0.9519 C   0  0  0  0  0  0  0  0  0  0  0  0
   -3.0780   -0.4262   -1.0642 C   0  0  0  0  0  0  0  0  0  0  0  0
   -3.7469    0.4842   -0.2738 C   0  0  0  0  0  0  0  0  0  0  0  0
   -5.1588    0.6585   -0.4011 N   0  0  0  0  0  4  0  0  0  0  0  0
   -5.8386    0.0194   -1.2056 O   0  0  0  0  0  0  0  0  0  0  0  0
   -5.7658    1.5693    0.4032 O   0  0  0  0  0  1  0  0  0  0  0  0
   -3.0020    1.2074    0.6313 C   0  0  0  0  0  0  0  0  0  0  0  0
   -1.6295    1.0211    0.7379 C   0  0  0  0  0  0  0  0  0  0  0  0
    1.0574   -1.0633    0.7460 C   0  0  0  0  0  0  0  0  0  0  0  0
    2.4057   -0.8607    0.6327 C   0  0  0  0  0  0  0  0  0  0  0  0
    3.0820   -1.9676    1.3626 C   0  0  0  0  0  0  0  0  0  0  0  0
    2.0242   -3.0447    1.3667 C   0  0  0  0  0  0  0  0  0  0  0  0
    0.8011   -2.2496    1.5146 N   0  0  0  0  0  0  0  0  0  0  0  0
  1  2  1  0
  2  3  1  0
  2  4  1  0
  2  5  1  0
  5  6  2  0
  6  7  1  0
  7  8  1  0
  8  9  2  0
  9 10  1  0
 10 11  2  0
 11 12  1  0
 12 13  2  0
 12 14  1  0
 11 15  1  0
 15 16  2  0
  7 17  1  0
 17 18  2  0
 18 19  1  0
 19 20  1  0
 20 21  1  0
 18  5  1  0
 16  8  1  0
 21 17  1  0
M  CHG  2  12   1  14  -1
M  END
>  <zinc_id>  (1) 
ZINC000003701028

>  <smiles>  (1) 
CC(C)(C)c1nn(-c2ccc([N+](=O)[O-])cc2)c2c1CCN2

$$$$
