
     RDKit          3D

 22 25  0  0  0  0  0  0  0  0999 V2000
   -3.0197    3.4852   -0.1673 C   0  0  0  0  0  0  0  0  0  0  0  0
   -1.7301    2.8343   -0.1475 N   0  0  0  0  0  0  0  0  0  0  0  0
   -0.5230    3.4093   -0.1994 N   0  0  0  0  0  0  0  0  0  0  0  0
    0.4232    2.4838   -0.1554 C   0  0  0  0  0  0  0  0  0  0  0  0
    1.8196    2.5801   -0.1809 O   0  0  0  0  0  0  0  0  0  0  0  0
   -0.2377    1.2813   -0.0726 C   0  0  0  0  0  0  0  0  0  0  0  0
    0.2223   -0.0403    0.0112 C   0  0  0  0  0  0  0  0  0  0  0  0
    1.6445   -0.2797    0.0079 C   0  0  0  0  0  0  0  0  0  0  0  0
    2.4802    0.0847    1.0214 C   0  0  0  0  0  0  0  0  0  0  0  0
    3.8270   -0.1737    1.0007 C   0  0  0  0  0  0  0  0  0  0  0  0
    4.3686   -0.8243   -0.0806 C   0  0  0  0  0  0  0  0  0  0  0  0
    3.5691   -1.2082   -1.1210 C   0  0  0  0  0  0  0  0  0  0  0  0
    2.2229   -0.9294   -1.0564 C   0  0  0  0  0  0  0  0  0  0  0  0
   -0.7134   -1.0784    0.0929 C   0  0  0  0  0  0  0  0  0  0  0  0
   -0.4917   -2.4385    0.1775 C   0  0  0  0  0  0  0  0  0  0  0  0
    0.7677   -3.0417    0.1979 O   0  0  0  0  0  0  0  0  0  0  0  0
   -1.7202   -2.9708    0.2308 N   0  0  0  0  0  0  0  0  0  0  0  0
   -2.6486   -2.0352    0.1820 N   0  0  0  0  0  0  0  0  0  0  0  0
   -4.1117   -2.2324    0.2132 C   0  0  0  0  0  0  0  0  0  0  0  0
   -2.0683   -0.8312    0.0957 C   0  0  0  0  0  0  0  0  0  0  0  0
   -2.4747    0.4477    0.0155 N   0  0  0  0  0  0  0  0  0  0  0  0
   -1.6058    1.4771   -0.0656 C   0  0  0  0  0  0  0  0  0  0  0  0
  1  2  1  0
  2  3  1  0
  3  4  2  0
  4  5  1  0
  4  6  1  0
  6  7  2  0
  7  8  1  0
  8  9  2  0
  9 10  1  0
 10 11  2  0
 11 12  1  0
 12 13  2  0
  7 14  1  0
 14 15  1  0
 15 16  1  0
 15 17  2  0
 17 18  1  0
 18 19  1  0
 18 20  1  0
 20 21  1  0
 21 22  2  0
 22  2  1  0
 22  6  1  0
 13  8  1  0
 20 14  2  0
M  END
>  <zinc_id>  (1) 
ZINC000000431557

>  <smiles>  (1) 
Cn1nc(O)c2c(-c3ccccc3)c3c(O)nn(C)c3nc21

$$$$
