
     RDKit          3D

 19 20  0  0  0  0  0  0  0  0999 V2000
   -5.2895   -1.0345    0.9823 C   0  0  0  0  0  0  0  0  0  0  0  0
   -4.3306    0.1407    1.1204 C   0  0  0  0  0  0  0  0  0  0  0  0
   -4.2694    0.4653    2.6142 C   0  0  0  0  0  0  0  0  0  0  0  0
   -4.9177    1.3219    0.4120 C   0  0  0  0  0  0  0  0  0  0  0  0
   -2.9527   -0.2242    0.6506 C   0  0  0  0  0  0  0  0  0  0  0  0
   -2.4934    0.0549   -0.6028 C   0  0  0  0  0  0  0  0  0  0  0  0
   -1.2207   -0.2839   -0.9819 C   0  0  0  0  0  0  0  0  0  0  0  0
   -0.3162   -0.9269   -0.1284 C   0  0  0  0  0  0  0  0  0  0  0  0
    0.9882   -1.2710   -0.5531 N   0  0  0  0  0  0  0  0  0  0  0  0
    1.9354   -0.1328   -1.4298 S   0  0  0  0  0  0  0  0  0  0  0  0
    1.0876    1.0930   -1.7512 O   0  0  0  0  0  0  0  0  0  0  0  0
    2.3881   -0.7081   -2.7233 O   0  0  0  0  0  0  0  0  0  0  0  0
    3.3514    0.3536   -0.4954 C   0  0  0  0  0  0  0  0  0  0  0  0
    4.6560    0.2380   -0.8856 C   0  0  0  0  0  0  0  0  0  0  0  0
    5.5912    0.6795   -0.0505 C   0  0  0  0  0  0  0  0  0  0  0  0
    5.1773    1.2144    1.1407 C   0  0  0  0  0  0  0  0  0  0  0  0
    3.4866    1.0816    1.0345 S   0  0  0  0  0  0  0  0  0  0  0  0
   -0.8004   -1.1994    1.1401 C   0  0  0  0  0  0  0  0  0  0  0  0
   -2.0713   -0.8620    1.5175 C   0  0  0  0  0  0  0  0  0  0  0  0
  1  2  1  0
  2  3  1  0
  2  4  1  0
  2  5  1  0
  5  6  2  0
  6  7  1  0
  7  8  2  0
  8  9  1  0
  9 10  1  0
 10 11  2  0
 10 12  2  0
 10 13  1  0
 13 14  2  0
 14 15  1  0
 15 16  2  0
 16 17  1  0
  8 18  1  0
 18 19  2  0
 19  5  1  0
 17 13  1  0
M  END
>  <zinc_id>  (1) 
ZINC000003335616

>  <smiles>  (1) 
CC(C)(C)c1ccc(NS(=O)(=O)c2cccs2)cc1

$$$$
