
     RDKit          3D

 22 25  0  0  0  0  0  0  0  0999 V2000
    4.6916    1.5649   -0.7255 C   0  0  0  0  0  0  0  0  0  0  0  0
    3.6867    0.4939   -0.5014 C   0  0  0  0  0  0  0  0  0  0  0  0
    4.1478   -0.7739   -0.2493 C   0  0  0  0  0  0  0  0  0  0  0  0
    3.2570   -1.8292   -0.0293 C   0  0  0  0  0  0  0  0  0  0  0  0
    1.9159   -1.5301   -0.0788 C   0  0  0  0  0  0  0  0  0  0  0  0
    1.0201   -2.5086    0.1258 N   0  0  0  0  0  0  0  0  0  0  0  0
   -0.3009   -2.2823    0.0908 C   0  0  0  0  0  0  0  0  0  0  0  0
   -1.2649   -3.4021    0.3244 C   0  0  0  0  0  0  0  0  0  0  0  0
   -0.7740   -1.0439   -0.1552 N   0  0  0  0  0  0  0  0  0  0  0  0
   -2.0629   -0.5976   -0.2349 C   0  0  0  0  0  0  0  0  0  0  0  0
   -3.2746   -1.2167   -0.1002 C   0  0  0  0  0  0  0  0  0  0  0  0
   -4.4469   -0.4906   -0.2373 C   0  0  0  0  0  0  0  0  0  0  0  0
   -4.3370    0.8512   -0.5088 C   0  0  0  0  0  0  0  0  0  0  0  0
   -3.1311    1.5033   -0.6501 C   0  0  0  0  0  0  0  0  0  0  0  0
   -1.9797    0.7608   -0.5096 C   0  0  0  0  0  0  0  0  0  0  0  0
   -0.6636    1.1390   -0.5965 C   0  0  0  0  0  0  0  0  0  0  0  0
   -0.2059    2.4469   -0.8640 N   0  0  0  0  0  0  0  0  0  0  0  0
    0.0546    3.3983    0.1490 C   0  0  0  0  0  0  0  0  0  0  0  0
   -0.1413    3.0307    1.3429 O   0  0  0  0  0  0  0  0  0  0  0  0
    0.0619   -0.0053   -0.3715 C   0  0  0  0  0  0  0  0  0  0  0  0
    1.4145   -0.2661   -0.3298 C   0  0  0  0  0  0  0  0  0  0  0  0
    2.3327    0.7573   -0.5436 C   0  0  0  0  0  0  0  0  0  0  0  0
  1  2  1  0
  2  3  2  0
  3  4  1  0
  4  5  2  0
  5  6  1  0
  6  7  2  0
  7  8  1  0
  7  9  1  0
  9 10  1  0
 10 11  2  0
 11 12  1  0
 12 13  2  0
 13 14  1  0
 14 15  2  0
 15 16  1  0
 16 17  1  0
 17 18  1  0
 18 19  2  0
 16 20  2  0
 20 21  1  0
 21 22  2  0
 22  2  1  0
 21  5  1  0
 20  9  1  0
 15 10  1  0
M  END
>  <zinc_id>  (1) 
ZINC000000543767

>  <smiles>  (1) 
Cc1ccc2nc(C)n3c4ccccc4c(NC=O)c3c2c1

$$$$
