
     RDKit          3D

 21 23  0  0  0  0  0  0  0  0999 V2000
   -5.3455   -1.0851   -0.1039 C   0  0  0  0  0  0  0  0  0  0  0  0
   -4.6659    0.0896   -0.8099 C   0  0  0  0  0  0  0  0  0  0  0  0
   -3.3544    0.2291   -0.1776 N   0  0  0  0  0  0  0  0  0  0  0  0
   -2.2169   -0.4669   -0.6760 C   0  0  0  0  0  0  0  0  0  0  0  0
   -2.4066   -1.2092   -1.6927 O   0  0  0  0  0  0  0  0  0  0  0  0
   -0.9051   -0.3359   -0.0544 C   0  0  0  0  0  0  0  0  0  0  0  0
    0.0973   -1.0128   -0.5751 C   0  0  0  0  0  0  0  0  0  0  0  0
    1.4123   -1.0147   -0.1228 N   0  0  0  0  0  0  0  0  0  0  0  0
    1.9852   -2.0040    0.7560 C   0  0  0  0  0  0  0  0  0  0  0  0
    3.4104   -2.0768    0.3098 C   0  0  0  0  0  0  0  0  0  0  0  0
    3.6497   -0.6794   -0.1692 C   0  0  0  0  0  0  0  0  0  0  0  0
    4.8525   -0.0394   -0.3546 C   0  0  0  0  0  0  0  0  0  0  0  0
    4.8620    1.2631   -0.8079 C   0  0  0  0  0  0  0  0  0  0  0  0
    3.6527    1.8754   -1.0589 C   0  0  0  0  0  0  0  0  0  0  0  0
    2.4458    1.2347   -0.8734 C   0  0  0  0  0  0  0  0  0  0  0  0
    2.4342   -0.0805   -0.4157 C   0  0  0  0  0  0  0  0  0  0  0  0
   -0.7654    0.5284    1.1015 C   0  0  0  0  0  0  0  0  0  0  0  0
    0.3696    0.6405    1.6377 O   0  0  0  0  0  0  0  0  0  0  0  0
   -1.9097    1.2177    1.5889 N   0  0  0  0  0  0  0  0  0  0  0  0
   -3.1597    1.0633    0.9588 C   0  0  0  0  0  0  0  0  0  0  0  0
   -4.4424    1.8628    1.5394 S   0  0  0  0  0  0  0  0  0  0  0  0
  1  2  1  0
  2  3  1  0
  3  4  1  0
  4  5  2  0
  4  6  1  0
  6  7  2  3
  7  8  1  0
  8  9  1  0
  9 10  1  0
 10 11  1  0
 11 12  2  0
 12 13  1  0
 13 14  2  0
 14 15  1  0
 15 16  2  0
  6 17  1  0
 17 18  2  0
 17 19  1  0
 19 20  1  0
 20 21  2  0
 20  3  1  0
 16  8  1  0
 16 11  1  0
M  END
>  <zinc_id>  (1) 
ZINC000000463755

>  <smiles>  (1) 
CCN1C(=O)C(=CN2CCc3ccccc32)C(=O)NC1=S

$$$$
