
     RDKit          3D

 22 24  0  0  0  0  0  0  0  0999 V2000
   -1.4407   -0.0944    2.8335 C   0  0  0  0  0  0  0  0  0  0  0  0
   -0.7792   -0.3120    1.5228 C   0  0  0  0  0  0  0  0  0  0  0  0
    0.5007   -0.7881    1.3910 C   0  0  0  0  0  0  0  0  0  0  0  0
    0.7807   -0.8609    0.0501 C   0  0  0  0  0  0  0  0  0  0  0  0
    1.9368   -1.2644   -0.7075 C   0  0  0  0  0  0  0  0  0  0  0  0
    3.1706   -0.9437   -0.4333 C   0  0  0  0  0  0  0  0  0  0  0  0
    4.3636   -1.3180   -1.1503 N   0  0  0  0  0  0  0  0  0  0  0  0
    5.5064   -0.7434   -0.5353 C   0  0  0  0  0  0  0  0  0  0  0  0
    6.7008   -0.8843   -0.9269 O   0  0  0  0  0  0  0  0  0  0  0  0
    5.0613    0.0053    0.5825 N   0  0  0  0  0  0  0  0  0  0  0  0
    3.6261   -0.1086    0.6582 C   0  0  0  0  0  0  0  0  0  0  0  0
    2.8750    0.4179    1.5145 O   0  0  0  0  0  0  0  0  0  0  0  0
   -0.3854   -0.4094   -0.5819 C   0  0  0  0  0  0  0  0  0  0  0  0
   -0.6095   -0.2908   -2.0514 C   0  0  0  0  0  0  0  0  0  0  0  0
   -1.3142   -0.0832    0.3196 N   0  0  0  0  0  0  0  0  0  0  0  0
   -2.6355    0.4240    0.0775 C   0  0  0  0  0  0  0  0  0  0  0  0
   -3.7627   -0.2365    0.4718 C   0  0  0  0  0  0  0  0  0  0  0  0
   -5.0523    0.2569    0.2421 C   0  0  0  0  0  0  0  0  0  0  0  0
   -5.2051    1.4678   -0.4117 C   0  0  0  0  0  0  0  0  0  0  0  0
   -6.4555    1.9862   -0.6544 F   0  0  0  0  0  0  0  0  0  0  0  0
   -4.0821    2.1382   -0.8116 C   0  0  0  0  0  0  0  0  0  0  0  0
   -2.7999    1.6411   -0.5801 C   0  0  0  0  0  0  0  0  0  0  0  0
  1  2  1  0
  2  3  2  0
  3  4  1  0
  4  5  1  0
  5  6  2  0
  6  7  1  0
  7  8  1  0
  8  9  2  0
  8 10  1  0
 10 11  1  0
 11 12  2  0
  4 13  2  0
 13 14  1  0
 13 15  1  0
 15 16  1  0
 16 17  2  0
 17 18  1  0
 18 19  2  0
 19 20  1  0
 19 21  1  0
 21 22  2  0
 15  2  1  0
 22 16  1  0
 11  6  1  0
M  END
>  <zinc_id>  (1) 
ZINC000000443515

>  <smiles>  (1) 
Cc1cc(/C=C2/NC(=O)NC2=O)c(C)n1-c1ccc(F)cc1

$$$$
