
     RDKit          3D

 20 22  0  0  0  0  0  0  0  0999 V2000
    4.6313    2.3014   -1.9090 C   0  0  0  0  0  0  0  0  0  0  0  0
    3.5797    1.5482   -1.1563 C   0  0  0  0  0  0  0  0  0  0  0  0
    2.2518    1.7323   -1.3786 C   0  0  0  0  0  0  0  0  0  0  0  0
    1.3617    0.9979   -0.6397 N   0  0  0  0  0  0  0  0  0  0  0  0
    1.7244    0.1014    0.2970 C   0  0  0  0  0  0  0  0  0  0  0  0
    0.7077   -0.6158    1.0133 C   0  0  0  0  0  0  0  0  0  0  0  0
    1.1932   -1.4683    1.9028 O   0  0  0  0  0  0  0  0  0  0  0  0
   -0.6485   -0.6028    0.9619 N   0  0  0  0  0  0  0  0  0  0  0  0
   -1.4191   -1.5822    1.9381 C   0  0  2  0  0  0  0  0  0  0  0  0
   -2.0485   -2.6715    0.6918 C   0  0  0  0  0  0  0  0  0  0  0  0
   -3.0653   -1.4339    1.3951 C   0  0  2  0  0  0  0  0  0  0  0  0
   -3.0814   -0.3819    0.2543 C   0  0  0  0  0  0  0  0  0  0  0  0
   -2.4833    0.8079    0.3313 C   0  0  0  0  0  0  0  0  0  0  0  0
   -2.5258    1.7020   -0.7026 C   0  0  0  0  0  0  0  0  0  0  0  0
   -3.2008    1.3692   -1.8493 C   0  0  0  0  0  0  0  0  0  0  0  0
   -3.8208    0.1544   -1.9521 C   0  0  0  0  0  0  0  0  0  0  0  0
   -3.7587   -0.7485   -0.8646 C   0  0  0  0  0  0  0  0  0  0  0  0
    3.0761   -0.0297    0.4647 C   0  0  0  0  0  0  0  0  0  0  0  0
    3.5467   -0.9540    1.4328 N   0  0  0  0  0  0  0  0  0  0  0  0
    3.9796    0.6637   -0.2309 N   0  0  0  0  0  0  0  0  0  0  0  0
  1  2  1  0
  2  3  2  0
  3  4  1  0
  4  5  2  0
  5  6  1  0
  6  7  2  0
  6  8  1  0
  9  8  1  6
  9 10  1  0
 10 11  1  0
 11 12  1  6
 12 13  2  0
 13 14  1  0
 14 15  2  0
 15 16  1  0
 16 17  2  0
  5 18  1  0
 18 19  1  0
 18 20  2  0
 20  2  1  0
 11  9  1  0
 17 12  1  0
M  END
>  <zinc_id>  (1) 
ZINC000003938273

>  <smiles>  (1) 
Cc1cnc(C(=O)N[C@@H]2C[C@@H]2c2ccccc2)c(N)n1

$$$$
