
     RDKit          3D

 21 23  0  0  0  0  0  0  0  0999 V2000
   -4.2203    2.2151    0.0040 C   0  0  0  0  0  0  0  0  0  0  0  0
   -3.6314    0.8630   -0.0592 C   0  0  0  0  0  0  0  0  0  0  0  0
   -4.3228   -0.2447   -0.2790 O   0  0  0  0  0  0  0  0  0  0  0  0
   -3.5056   -1.2840   -0.2755 C   0  0  0  0  0  0  0  0  0  0  0  0
   -3.8880   -2.7031   -0.4850 C   0  0  0  0  0  0  0  0  0  0  0  0
   -2.2328   -0.8361   -0.0445 C   0  0  0  0  0  0  0  0  0  0  0  0
   -1.0916   -1.6040    0.0349 C   0  0  0  0  0  0  0  0  0  0  0  0
   -1.2606   -2.8346   -0.0817 O   0  0  0  0  0  0  0  0  0  0  0  0
    0.1941   -1.1929    0.2239 C   0  0  0  0  0  0  0  0  0  0  0  0
    0.7801    0.0634    0.2418 C   0  0  0  0  0  0  0  0  0  0  0  0
    2.2480    0.1239    0.1609 C   0  0  0  0  0  0  0  0  0  0  0  0
    2.8972    1.1889   -0.4453 C   0  0  0  0  0  0  0  0  0  0  0  0
    4.2624    1.2789   -0.5386 C   0  0  0  0  0  0  0  0  0  0  0  0
    5.0490    0.2767   -0.0130 C   0  0  0  0  0  0  0  0  0  0  0  0
    6.4235    0.3824   -0.1150 O   0  0  0  0  0  0  0  0  0  0  0  0
    4.4447   -0.8040    0.6003 C   0  0  0  0  0  0  0  0  0  0  0  0
    3.0574   -0.8667    0.6792 C   0  0  0  0  0  0  0  0  0  0  0  0
    0.0989    1.2557    0.3292 C   0  0  0  0  0  0  0  0  0  0  0  0
   -1.2653    1.4491    0.3436 C   0  0  0  0  0  0  0  0  0  0  0  0
   -1.7397    2.7185    0.6448 O   0  0  0  0  0  0  0  0  0  0  0  0
   -2.2972    0.5548    0.0981 C   0  0  0  0  0  0  0  0  0  0  0  0
  1  2  1  0
  2  3  1  0
  3  4  1  0
  4  5  1  0
  4  6  2  0
  6  7  1  0
  7  8  2  0
  7  9  1  0
  9 10  2  0
 10 11  1  0
 11 12  2  0
 12 13  1  0
 13 14  2  0
 14 15  1  0
 14 16  1  0
 16 17  2  0
 10 18  1  0
 18 19  2  0
 19 20  1  0
 19 21  1  0
 21  2  2  0
 21  6  1  0
 17 11  1  0
M  END
>  <zinc_id>  (1) 
ZINC000000277992

>  <smiles>  (1) 
Cc1oc(C)c2c(=O)cc(-c3ccc(O)cc3)cc(O)c12

$$$$
