
     RDKit          3D

 21 23  0  0  0  0  0  0  0  0999 V2000
   -1.5055    4.7058    0.0224 C   0  0  0  0  0  0  0  0  0  0  0  0
   -0.6924    3.5795   -0.0789 O   0  0  0  0  0  0  0  0  0  0  0  0
   -1.2039    2.3023    0.1222 C   0  0  0  0  0  0  0  0  0  0  0  0
   -2.5322    2.0945    0.4293 C   0  0  0  0  0  0  0  0  0  0  0  0
   -3.0481    0.8351    0.6302 C   0  0  0  0  0  0  0  0  0  0  0  0
   -2.2157   -0.2813    0.5240 C   0  0  0  0  0  0  0  0  0  0  0  0
   -0.8844   -0.0903    0.2173 C   0  0  0  0  0  0  0  0  0  0  0  0
   -0.3935    1.1914    0.0205 C   0  0  0  0  0  0  0  0  0  0  0  0
    0.1602   -1.1128    0.0574 C   0  0  0  0  0  0  0  0  0  0  0  0
    1.5274   -0.6336    0.2368 C   0  0  0  0  0  0  0  0  0  0  0  0
    2.6214   -1.4611    0.1203 C   0  0  0  0  0  0  0  0  0  0  0  0
    3.9220   -0.9776    0.2968 C   0  0  0  0  0  0  0  0  0  0  0  0
    4.1433    0.3313    0.5902 C   0  0  0  0  0  0  0  0  0  0  0  0
    5.4269    0.9124    0.7867 N   0  0  0  0  0  0  0  0  0  0  0  0
    3.0513    1.1857    0.7125 C   0  0  0  0  0  0  0  0  0  0  0  0
    1.7623    0.6842    0.5328 C   0  0  0  0  0  0  0  0  0  0  0  0
   -0.0407   -2.3410   -0.2174 N   0  0  0  0  0  0  0  0  0  0  0  0
   -1.2474   -3.0327   -0.4345 N   0  0  0  0  0  0  0  0  0  0  0  0
   -2.4275   -2.6910   -0.0191 C   0  0  0  0  0  0  0  0  0  0  0  0
   -3.5185   -3.6458   -0.4186 C   0  0  0  0  0  0  0  0  0  0  0  0
   -2.9051   -1.5549    0.7648 C   0  0  0  0  0  0  0  0  0  0  0  0
  1  2  1  0
  2  3  1  0
  3  4  2  0
  4  5  1  0
  5  6  2  0
  6  7  1  0
  7  8  2  0
  7  9  1  0
  9 10  1  0
 10 11  2  0
 11 12  1  0
 12 13  2  0
 13 14  1  0
 13 15  1  0
 15 16  2  0
  9 17  2  0
 17 18  1  0
 18 19  2  0
 19 20  1  0
 19 21  1  0
  8  3  1  0
 16 10  1  0
 21  6  1  0
M  END
>  <zinc_id>  (1) 
ZINC000000022657

>  <smiles>  (1) 
COc1ccc2c(c1)C(c1ccc(N)cc1)=NN=C(C)C2

$$$$
