
     RDKit          3D

 21 23  0  0  0  0  0  0  0  0999 V2000
    1.3980   -2.2537   -1.5265 C   0  0  0  0  0  0  0  0  0  0  0  0
    1.2985   -1.3164   -0.3400 C   0  0  0  0  0  0  0  0  0  0  0  0
    1.1786   -2.0644    0.9617 C   0  0  0  0  0  0  0  0  0  0  0  0
    0.1011   -0.4225   -0.4818 C   0  0  0  0  0  0  0  0  0  0  0  0
   -0.8574   -0.7076   -1.2646 O   0  0  0  0  0  0  0  0  0  0  0  0
   -0.0042    0.8079    0.2739 C   0  0  0  0  0  0  0  0  0  0  0  0
   -1.1943    1.2360    0.6699 C   0  0  0  0  0  0  0  0  0  0  0  0
   -2.4371    0.5251    0.3921 C   0  0  0  0  0  0  0  0  0  0  0  0
   -2.5350   -0.8195    0.7102 C   0  0  0  0  0  0  0  0  0  0  0  0
   -3.7003   -1.4883    0.4364 C   0  0  0  0  0  0  0  0  0  0  0  0
   -4.8117   -0.8969   -0.1491 C   0  0  0  0  0  0  0  0  0  0  0  0
   -4.6702    0.4368   -0.4476 C   0  0  0  0  0  0  0  0  0  0  0  0
   -3.5186    1.1408   -0.1898 C   0  0  0  0  0  0  0  0  0  0  0  0
   -3.4213    2.5421   -0.5331 N   0  0  0  0  0  0  0  0  0  0  0  0
    1.2353    1.5562    0.6081 C   0  0  0  0  0  0  0  0  0  0  0  0
    2.4346    0.8520    0.1580 C   0  0  0  0  0  0  0  0  0  0  0  0
    3.6377    1.5684    0.1653 C   0  0  0  0  0  0  0  0  0  0  0  0
    4.8273    1.0158   -0.2361 C   0  0  0  0  0  0  0  0  0  0  0  0
    4.8667   -0.2882   -0.6663 C   0  0  0  0  0  0  0  0  0  0  0  0
    3.6838   -0.9911   -0.6732 C   0  0  0  0  0  0  0  0  0  0  0  0
    2.4884   -0.4322   -0.2686 C   0  0  0  0  0  0  0  0  0  0  0  0
  1  2  1  0
  2  3  1  0
  2  4  1  0
  4  5  2  0
  4  6  1  0
  6  7  2  0
  7  8  1  0
  8  9  2  0
  9 10  1  0
 10 11  2  0
 11 12  1  0
 12 13  2  0
 13 14  1  0
  6 15  1  0
 15 16  1  0
 16 17  2  0
 17 18  1  0
 18 19  2  0
 19 20  1  0
 20 21  2  0
 21  2  1  0
 13  8  1  0
 21 16  1  0
M  END
>  <zinc_id>  (1) 
ZINC000001580673

>  <smiles>  (1) 
CC1(C)C(=O)/C(=C\c2ccccc2N)Cc2ccccc21

$$$$
