
     RDKit          3D

 19 20  0  0  0  0  0  0  0  0999 V2000
    0.4585    3.9870   -0.5880 C   0  0  0  0  0  0  0  0  0  0  0  0
    1.2672    3.0602   -1.4982 C   0  0  0  0  0  0  0  0  0  0  0  0
    1.3280    1.7955   -0.8691 O   0  0  0  0  0  0  0  0  0  0  0  0
    0.1338    1.1325   -0.6263 C   0  0  0  0  0  0  0  0  0  0  0  0
   -1.1002    1.6495   -0.9735 C   0  0  0  0  0  0  0  0  0  0  0  0
   -2.2507    0.9077   -0.6881 C   0  0  0  0  0  0  0  0  0  0  0  0
   -2.1846   -0.3264   -0.0774 C   0  0  0  0  0  0  0  0  0  0  0  0
   -3.4052   -1.1092    0.2085 C   0  0  0  0  0  0  0  0  0  0  0  0
   -3.1385   -2.1950    1.2417 C   0  0  0  0  0  0  0  0  0  0  0  0
   -3.8499   -1.8472   -1.0671 C   0  0  0  0  0  0  0  0  0  0  0  0
   -4.5256   -0.2811    0.7256 C   0  0  0  0  0  0  0  0  0  0  0  0
   -0.9505   -0.8305    0.2629 C   0  0  0  0  0  0  0  0  0  0  0  0
    0.2056   -0.1015   -0.0117 C   0  0  0  0  0  0  0  0  0  0  0  0
    1.5258   -0.6110    0.3407 C   0  0  0  0  0  0  0  0  0  0  0  0
    2.7521   -0.0368    0.1317 C   0  0  0  0  0  0  0  0  0  0  0  0
    3.7250   -0.8651    0.6346 C   0  0  0  0  0  0  0  0  0  0  0  0
    5.1342   -0.6538    0.6200 N   0  0  0  0  0  0  0  0  0  0  0  0
    3.0746   -1.9078    1.1329 O   0  0  0  0  0  0  0  0  0  0  0  0
    1.8004   -1.7669    0.9655 N   0  0  0  0  0  0  0  0  0  0  0  0
  1  2  1  0
  2  3  1  0
  3  4  1  0
  4  5  2  0
  5  6  1  0
  6  7  2  0
  7  8  1  0
  8  9  1  0
  8 10  1  0
  8 11  1  0
  7 12  1  0
 12 13  2  0
 13 14  1  0
 14 15  1  0
 15 16  2  0
 16 17  1  0
 16 18  1  0
 18 19  1  0
 13  4  1  0
 19 14  2  0
M  END
>  <zinc_id>  (1) 
ZINC000003704548

>  <smiles>  (1) 
CCOc1ccc(C(C)(C)C)cc1-c1cc(N)on1

$$$$
