
     RDKit          3D

 20 22  0  0  0  0  0  0  0  0999 V2000
   -3.2091   -1.7987    0.4384 C   0  0  0  0  0  0  0  0  0  0  0  0
   -3.2066   -0.5194   -0.3687 C   0  0  0  0  0  0  0  0  0  0  0  0
   -4.1279   -0.6872   -1.5308 C   0  0  0  0  0  0  0  0  0  0  0  0
   -1.8739   -0.1483   -0.8839 C   0  0  0  0  0  0  0  0  0  0  0  0
   -0.7441   -0.4498    0.2826 C   0  0  2  0  0  0  0  0  0  0  0  0
   -1.7471   -0.3312    1.5977 C   0  0  0  0  0  0  0  0  0  0  0  0
   -2.4231    0.9621    1.3321 C   0  0  1  0  0  0  0  0  0  0  0  0
   -2.8026    1.6007    2.6569 C   0  0  0  0  0  0  0  0  0  0  0  0
   -1.3977    1.8376    0.6833 C   0  0  0  0  0  0  0  0  0  0  0  0
   -0.2958    1.0395    0.3849 N   0  0  0  0  0  0  0  0  0  0  0  0
    1.0382    1.3563    0.1819 C   0  0  0  0  0  0  0  0  0  0  0  0
    1.4118    2.5728    0.2641 O   0  0  0  0  0  0  0  0  0  0  0  0
    2.0782    0.3931   -0.1256 C   0  0  0  0  0  0  0  0  0  0  0  0
    1.7119   -0.9303   -0.2223 C   0  0  0  0  0  0  0  0  0  0  0  0
    2.6339   -1.9233   -0.5121 C   0  0  0  0  0  0  0  0  0  0  0  0
    3.9445   -1.5568   -0.7048 C   0  0  0  0  0  0  0  0  0  0  0  0
    4.9216   -2.5730   -1.0074 N   0  0  0  0  0  0  0  0  0  0  0  0
    4.3318   -0.2433   -0.6131 C   0  0  0  0  0  0  0  0  0  0  0  0
    3.3932    0.7324   -0.3224 C   0  0  0  0  0  0  0  0  0  0  0  0
   -3.6375    0.6668    0.4824 C   0  0  0  0  0  0  0  0  0  0  0  0
  1  2  1  0
  2  3  1  0
  2  4  1  0
  5  4  1  6
  5  6  1  0
  6  7  1  0
  7  8  1  1
  7  9  1  0
  9 10  1  0
 10 11  1  0
 11 12  2  0
 11 13  1  0
 13 14  2  0
 14 15  1  0
 15 16  2  0
 16 17  1  0
 16 18  1  0
 18 19  2  0
  7 20  1  0
 20  2  1  0
 10  5  1  0
 19 13  1  0
M  END
>  <zinc_id>  (1) 
ZINC000000268708

>  <smiles>  (1) 
CC1(C)C[C@@H]2C[C@@](C)(CN2C(=O)c2ccc(N)cc2)C1

$$$$
