
     RDKit          3D

 20 22  0  0  0  0  0  0  0  0999 V2000
   -5.2479    0.2860   -0.1817 C   0  0  0  0  0  0  0  0  0  0  0  0
   -3.8015   -0.0194    0.2259 C   0  0  0  0  0  0  0  0  0  0  0  0
   -3.6767   -0.0728    1.7445 C   0  0  0  0  0  0  0  0  0  0  0  0
   -2.8989    1.0707   -0.3179 C   0  0  0  0  0  0  0  0  0  0  0  0
   -1.5241    0.5853   -0.5539 C   0  0  0  0  0  0  0  0  0  0  0  0
   -0.6979    1.3362   -1.0969 O   0  0  0  0  0  0  0  0  0  0  0  0
   -1.0821   -0.7588   -0.1727 C   0  0  0  0  0  0  0  0  0  0  0  0
    0.1464   -1.3101    0.1144 C   0  0  0  0  0  0  0  0  0  0  0  0
    1.4342   -0.6387    0.1191 C   0  0  0  0  0  0  0  0  0  0  0  0
    2.4723   -1.3324    0.3845 O   0  0  0  0  0  0  0  0  0  0  0  0
    1.6645    0.7143   -0.1406 N   0  0  0  0  0  0  0  0  0  0  0  0
    2.9797    1.3187   -0.1180 C   0  0  0  0  0  0  0  0  0  0  0  0
    4.0866    0.6243    0.1559 C   0  0  0  0  0  0  0  0  0  0  0  0
    5.2687    1.2787    0.1528 C   0  0  0  0  0  0  0  0  0  0  0  0
    4.8214    2.8764   -0.2367 S   0  0  0  0  0  0  0  0  0  0  0  0
    3.1390    2.6530   -0.3822 C   0  0  0  0  0  0  0  0  0  0  0  0
   -0.1257   -2.6414    0.4001 C   0  0  0  0  0  0  0  0  0  0  0  0
   -1.4464   -2.8633    0.2874 N   0  0  0  0  0  0  0  0  0  0  0  0
   -2.0496   -1.7234   -0.0624 C   0  0  0  0  0  0  0  0  0  0  0  0
   -3.4620   -1.3831   -0.3214 C   0  0  0  0  0  0  0  0  0  0  0  0
  1  2  1  0
  2  3  1  0
  2  4  1  0
  4  5  1  0
  5  6  2  0
  5  7  1  0
  7  8  1  0
  8  9  1  0
  9 10  2  0
  9 11  1  0
 11 12  1  0
 12 13  1  0
 13 14  2  0
 14 15  1  0
 15 16  1  0
  8 17  2  0
 17 18  1  0
 18 19  1  0
 19 20  1  0
 20  2  1  0
 19  7  2  0
 16 12  2  0
M  END
>  <zinc_id>  (1) 
ZINC000000022651

>  <smiles>  (1) 
CC1(C)CC(=O)c2c(C(=O)Nc3ccsc3)c[nH]c2C1

$$$$
