
     RDKit          3D

 20 23  0  0  0  0  0  0  0  0999 V2000
   -2.8647   -3.2644   -0.7379 C   0  0  0  0  0  0  0  0  0  0  0  0
   -3.9801   -2.4988   -0.4980 C   0  0  0  0  0  0  0  0  0  0  0  0
   -3.8236   -1.2085   -0.2251 N   0  0  0  0  0  0  0  0  0  0  0  0
   -2.6162   -0.5908   -0.1676 C   0  0  0  0  0  0  0  0  0  0  0  0
   -2.2455    0.6642    0.0833 N   0  0  0  0  0  0  0  0  0  0  0  0
   -0.8792    0.6871   -0.0003 C   0  0  0  0  0  0  0  0  0  0  0  0
   -0.0387    1.9048    0.2034 C   0  0  0  0  0  0  0  0  0  0  0  0
   -0.2158    2.7345    1.2497 C   0  0  0  0  0  0  0  0  0  0  0  0
    0.5812    3.8278    1.3445 C   0  0  0  0  0  0  0  0  0  0  0  0
    1.5822    3.7049   -0.0248 S   0  0  0  0  0  0  0  0  0  0  0  0
    0.9572    2.2663   -0.6775 C   0  0  0  0  0  0  0  0  0  0  0  0
   -0.4171   -0.5491   -0.3000 C   0  0  0  0  0  0  0  0  0  0  0  0
    0.8890   -1.0048   -0.4559 N   0  0  0  0  0  0  0  0  0  0  0  0
    2.1259   -0.3443   -0.3050 C   0  0  0  0  0  0  0  0  0  0  0  0
    3.2162   -1.3526   -0.7329 C   0  0  0  0  0  0  0  0  0  0  0  0
    4.4078   -1.0400    0.1210 C   0  0  0  0  0  0  0  0  0  0  0  0
    3.9949    0.0846    1.0515 C   0  0  0  0  0  0  0  0  0  0  0  0
    2.4903   -0.0724    1.1472 C   0  0  0  0  0  0  0  0  0  0  0  0
   -1.5206   -1.3223   -0.3987 N   0  0  0  0  0  0  0  0  0  0  0  0
   -1.6429   -2.6262   -0.6768 C   0  0  0  0  0  0  0  0  0  0  0  0
  1  2  1  0
  2  3  2  0
  3  4  1  0
  4  5  2  0
  5  6  1  0
  6  7  1  0
  7  8  1  0
  8  9  2  0
  9 10  1  0
 10 11  1  0
  6 12  2  0
 12 13  1  0
 13 14  1  0
 14 15  1  0
 15 16  1  0
 16 17  1  0
 17 18  1  0
 12 19  1  0
 19 20  1  0
 20  1  2  0
 19  4  1  0
 11  7  2  0
 18 14  1  0
M  END
>  <zinc_id>  (1) 
ZINC000000428763

>  <smiles>  (1) 
c1cnc2nc(-c3ccsc3)c(NC3CCCC3)n2c1

$$$$
