
     RDKit          3D

 20 22  0  0  0  0  0  0  0  0999 V2000
   -1.7617    3.2368    0.1043 C   0  0  0  0  0  0  0  0  0  0  0  0
   -0.4354    2.8047    0.6325 C   0  0  0  0  0  0  0  0  0  0  0  0
   -0.0065    1.4211   -0.1048 C   0  0  1  0  0  0  0  0  0  0  0  0
    1.3914    1.3924    0.6865 N   0  0  0  0  0  0  0  0  0  0  0  0
    2.3218    0.4024    0.2984 C   0  0  0  0  0  0  0  0  0  0  0  0
    3.6139    0.8520    0.1223 C   0  0  0  0  0  0  0  0  0  0  0  0
    4.6105   -0.0159   -0.2449 C   0  0  0  0  0  0  0  0  0  0  0  0
    4.3540   -1.3565   -0.4485 C   0  0  0  0  0  0  0  0  0  0  0  0
    3.0817   -1.8353   -0.2822 C   0  0  0  0  0  0  0  0  0  0  0  0
    2.0892   -0.9323    0.0909 C   0  0  0  0  0  0  0  0  0  0  0  0
    0.7887   -1.5825    0.2244 N   0  0  0  0  0  0  0  0  0  0  0  0
   -0.4701   -0.9158    0.2724 C   0  0  0  0  0  0  0  0  0  0  0  0
   -1.3504   -1.4870   -0.4043 C   0  0  0  0  0  0  0  0  0  0  0  0
   -2.7591   -1.2421   -0.6985 C   0  0  0  0  0  0  0  0  0  0  0  0
   -3.7194   -1.8178    0.3185 C   0  0  0  0  0  0  0  0  0  0  0  0
   -3.0360   -1.6553   -2.1038 C   0  0  0  0  0  0  0  0  0  0  0  0
   -2.8716    0.2874   -0.5570 C   0  0  0  0  0  0  0  0  0  0  0  0
   -2.2084    0.6998    0.6793 C   0  0  0  0  0  0  0  0  0  0  0  0
   -2.8870    1.3458    1.4953 O   0  0  0  0  0  0  0  0  0  0  0  0
   -0.7454    0.3981    1.0599 C   0  0  2  0  0  0  0  0  0  0  0  0
  1  2  1  0
  3  2  1  1
  3  4  1  0
  4  5  1  0
  5  6  2  0
  6  7  1  0
  7  8  2  0
  8  9  1  0
  9 10  2  0
 10 11  1  0
 11 12  1  0
 12 13  2  0
 13 14  1  0
 14 15  1  0
 14 16  1  0
 14 17  1  0
 17 18  1  0
 18 19  2  0
 20 18  1  6
 20  3  1  0
 10  5  1  0
 20 12  1  0
M  END
>  <zinc_id>  (1) 
ZINC000002543468

>  <smiles>  (1) 
CC[C@H]1Nc2ccccc2NC2=CC(C)(C)CC(=O)[C@@H]21

$$$$
