
     RDKit          3D

 20 21  0  0  0  0  0  0  0  0999 V2000
   -1.5681    4.8411   -0.8652 C   0  0  0  0  0  0  0  0  0  0  0  0
   -0.7853    3.6533   -0.7906 O   0  0  0  0  0  0  0  0  0  0  0  0
   -1.3022    2.4419   -0.4171 C   0  0  0  0  0  0  0  0  0  0  0  0
   -2.5465    2.4198   -0.1308 O   0  0  0  0  0  0  0  0  0  0  0  0
   -0.5120    1.1909   -0.3338 C   0  0  0  0  0  0  0  0  0  0  0  0
    0.7465    1.1647   -0.6078 C   0  0  0  0  0  0  0  0  0  0  0  0
    1.6888    0.0871   -0.6006 C   0  0  0  0  0  0  0  0  0  0  0  0
    1.5858   -1.1339   -1.2064 C   0  0  0  0  0  0  0  0  0  0  0  0
    2.5849   -2.0602   -1.0851 C   0  0  0  0  0  0  0  0  0  0  0  0
    3.7350   -1.8304   -0.3621 C   0  0  0  0  0  0  0  0  0  0  0  0
    3.8647   -0.6059    0.2583 C   0  0  0  0  0  0  0  0  0  0  0  0
    5.0525   -0.3648    1.0043 N   0  0  0  0  0  0  0  0  0  0  0  0
    2.8636    0.3235    0.1376 C   0  0  0  0  0  0  0  0  0  0  0  0
   -1.1838   -0.0115    0.1158 C   0  0  0  0  0  0  0  0  0  0  0  0
   -2.5621    0.0956    0.3493 C   0  0  0  0  0  0  0  0  0  0  0  0
   -3.3244   -0.9596    0.7920 C   0  0  0  0  0  0  0  0  0  0  0  0
   -2.7184   -2.1738    1.0180 C   0  0  0  0  0  0  0  0  0  0  0  0
   -3.6508   -3.5681    1.5868 Cl  0  0  0  0  0  0  0  0  0  0  0  0
   -1.3585   -2.2853    0.7894 C   0  0  0  0  0  0  0  0  0  0  0  0
   -0.6097   -1.2242    0.3479 C   0  0  0  0  0  0  0  0  0  0  0  0
  1  2  1  0
  2  3  1  0
  3  4  2  0
  3  5  1  0
  5  6  2  0
  6  7  1  0
  7  8  2  0
  8  9  1  0
  9 10  2  0
 10 11  1  0
 11 12  1  0
 11 13  2  0
  5 14  1  0
 14 15  2  0
 15 16  1  0
 16 17  2  0
 17 18  1  0
 17 19  1  0
 19 20  2  0
 13  7  1  0
 20 14  1  0
M  END
>  <zinc_id>  (1) 
ZINC000001569660

>  <smiles>  (1) 
COC(=O)/C(=C/c1cccc(N)c1)c1ccc(Cl)cc1

$$$$
