
     RDKit          3D

 20 22  0  0  0  0  0  0  0  0999 V2000
   -0.9141   -2.2665   -2.6670 C   0  0  0  0  0  0  0  0  0  0  0  0
   -2.0936   -1.4736   -2.2307 C   0  0  0  0  0  0  0  0  0  0  0  0
   -3.3490   -1.6653   -2.7713 C   0  0  0  0  0  0  0  0  0  0  0  0
   -4.4404   -0.9274   -2.3636 C   0  0  0  0  0  0  0  0  0  0  0  0
   -4.2651    0.0282   -1.3867 C   0  0  0  0  0  0  0  0  0  0  0  0
   -3.0154    0.2032   -0.8639 C   0  0  0  0  0  0  0  0  0  0  0  0
   -1.9133   -0.5331   -1.2670 C   0  0  0  0  0  0  0  0  0  0  0  0
   -0.6420   -0.2786   -0.6610 N   0  0  0  0  0  0  0  0  0  0  0  0
   -0.5115    0.7113    0.3365 C   0  0  0  0  0  0  0  0  0  0  0  0
   -1.5466    1.3381    0.6524 O   0  0  0  0  0  0  0  0  0  0  0  0
    0.7949    1.0136    0.9988 C   0  0  0  0  0  0  0  0  0  0  0  0
    0.8805    1.9798    1.9607 C   0  0  0  0  0  0  0  0  0  0  0  0
   -0.1959    2.8114    2.4638 N   0  0  0  0  0  0  0  0  0  0  0  0
    2.5246    1.9539    2.4000 S   0  0  0  0  0  0  0  0  0  0  0  0
    3.0706    0.7235    1.3601 C   0  0  0  0  0  0  0  0  0  0  0  0
    1.9398    0.3582    0.6862 C   0  0  0  0  0  0  0  0  0  0  0  0
    2.1794   -0.7577   -0.3285 C   0  0  0  0  0  0  0  0  0  0  0  0
    2.8547   -1.8583    0.4940 C   0  0  0  0  0  0  0  0  0  0  0  0
    4.2442   -1.4078    0.7991 C   0  0  0  0  0  0  0  0  0  0  0  0
    4.3982    0.0474    1.0786 C   0  0  0  0  0  0  0  0  0  0  0  0
  1  2  1  0
  2  3  2  0
  3  4  1  0
  4  5  2  0
  5  6  1  0
  6  7  2  0
  7  8  1  0
  8  9  1  0
  9 10  2  0
  9 11  1  0
 11 12  2  0
 12 13  1  0
 12 14  1  0
 14 15  1  0
 15 16  2  0
 16 17  1  0
 17 18  1  0
 18 19  1  0
 19 20  1  0
  7  2  1  0
 16 11  1  0
 20 15  1  0
M  END
>  <zinc_id>  (1) 
ZINC000000127258

>  <smiles>  (1) 
Cc1ccccc1NC(=O)c1c(N)sc2c1CCCC2

$$$$
