
     RDKit          3D

 19 21  0  0  0  0  0  0  0  0999 V2000
    4.1047   -1.7250    1.9275 C   0  0  0  0  0  0  0  0  0  0  0  0
    3.3137   -0.9361    0.9587 C   0  0  0  0  0  0  0  0  0  0  0  0
    1.9725   -0.8447    0.9218 N   0  0  0  0  0  0  0  0  0  0  0  0
    1.5993   -0.0410   -0.0913 C   0  0  0  0  0  0  0  0  0  0  0  0
    0.3641    0.3553   -0.5274 C   0  0  0  0  0  0  0  0  0  0  0  0
   -0.8427   -0.0919    0.1216 N   0  0  0  0  0  0  0  0  0  0  0  0
   -2.0996    0.3206   -0.3340 C   0  0  0  0  0  0  0  0  0  0  0  0
   -2.1506    1.0926   -1.3256 O   0  0  0  0  0  0  0  0  0  0  0  0
   -3.3379   -0.1231    0.3126 C   0  0  0  0  0  0  0  0  0  0  0  0
   -3.5429   -0.9414    1.3794 C   0  0  0  0  0  0  0  0  0  0  0  0
   -4.7928   -1.1774    1.7590 C   0  0  0  0  0  0  0  0  0  0  0  0
   -5.7988   -0.5803    1.0504 C   0  0  0  0  0  0  0  0  0  0  0  0
   -4.9209    0.2986   -0.1351 S   0  0  0  0  0  0  0  0  0  0  0  0
    0.2860    1.2024   -1.6142 C   0  0  0  0  0  0  0  0  0  0  0  0
    1.4150    1.6549   -2.2655 C   0  0  0  0  0  0  0  0  0  0  0  0
    2.6655    1.2621   -1.8348 C   0  0  0  0  0  0  0  0  0  0  0  0
    2.7315    0.4136   -0.7455 C   0  0  0  0  0  0  0  0  0  0  0  0
    3.7993   -0.1596   -0.0713 C   0  0  0  0  0  0  0  0  0  0  0  0
    5.2346    0.0204   -0.3898 C   0  0  0  0  0  0  0  0  0  0  0  0
  1  2  1  0
  2  3  1  0
  3  4  1  0
  4  5  2  0
  5  6  1  0
  6  7  1  0
  7  8  2  0
  7  9  1  0
  9 10  2  0
 10 11  1  0
 11 12  2  0
 12 13  1  0
  5 14  1  0
 14 15  2  0
 15 16  1  0
 16 17  2  0
 17 18  1  0
 18 19  1  0
 18  2  2  0
 17  4  1  0
 13  9  1  0
M  END
>  <zinc_id>  (1) 
ZINC000001742864

>  <smiles>  (1) 
Cc1[nH]c2c(NC(=O)c3cccs3)cccc2c1C

$$$$
