
     RDKit          3D

 22 24  0  0  0  0  0  0  0  0999 V2000
    4.8628    0.9533    0.7062 C   0  0  0  0  0  0  0  0  0  0  0  0
    4.0725    1.2250   -0.5536 C   0  0  0  0  0  0  0  0  0  0  0  0
    3.7223    2.6855   -0.6734 C   0  0  0  0  0  0  0  0  0  0  0  0
    2.8651    0.3563   -0.5823 C   0  0  0  0  0  0  0  0  0  0  0  0
    1.6395    0.8041   -0.1332 C   0  0  0  0  0  0  0  0  0  0  0  0
    0.5185    0.0003   -0.1588 C   0  0  0  0  0  0  0  0  0  0  0  0
   -0.7442    0.5441    0.3335 C   0  0  0  0  0  0  0  0  0  0  0  0
   -0.8483    1.8297    0.8202 C   0  0  0  0  0  0  0  0  0  0  0  0
   -2.0558    2.3160    1.2788 C   0  0  0  0  0  0  0  0  0  0  0  0
   -3.2076    1.5566    1.2765 C   0  0  0  0  0  0  0  0  0  0  0  0
   -4.3894    2.0515    1.7321 F   0  0  0  0  0  0  0  0  0  0  0  0
   -3.1096    0.2687    0.7903 C   0  0  0  0  0  0  0  0  0  0  0  0
   -4.2490   -0.5172    0.7754 C   0  0  0  0  0  0  0  0  0  0  0  0
   -4.1080   -1.7976    0.2819 C   0  0  0  0  0  0  0  0  0  0  0  0
   -2.9105   -2.2969   -0.1790 C   0  0  0  0  0  0  0  0  0  0  0  0
   -1.7796   -1.5086   -0.1613 C   0  0  0  0  0  0  0  0  0  0  0  0
   -1.8939   -0.2220    0.3282 C   0  0  0  0  0  0  0  0  0  0  0  0
    0.6491   -1.2382   -0.6349 N   0  0  0  0  0  0  0  0  0  0  0  0
    1.8540   -1.7001   -1.0841 C   0  0  0  0  0  0  0  0  0  0  0  0
    1.9814   -3.0242   -1.5902 N   0  0  0  0  0  0  0  0  0  0  0  0
    2.9547   -0.9007   -1.0554 N   0  0  0  0  0  4  0  0  0  0  0  0
    4.1762   -1.3858   -1.5169 O   0  0  0  0  0  1  0  0  0  0  0  0
  1  2  1  0
  2  3  1  0
  2  4  1  0
  4  5  2  0
  5  6  1  0
  6  7  1  0
  7  8  2  0
  8  9  1  0
  9 10  2  0
 10 11  1  0
 10 12  1  0
 12 13  2  0
 13 14  1  0
 14 15  2  0
 15 16  1  0
 16 17  2  0
  6 18  2  0
 18 19  1  0
 19 20  1  0
 19 21  2  0
 21 22  1  0
 21  4  1  0
 17  7  1  0
 17 12  1  0
M  CHG  2  21   1  22  -1
M  END
>  <zinc_id>  (1) 
ZINC000000023041

>  <smiles>  (1) 
CC(C)c1cc(-c2ccc(F)c3ccccc23)nc(N)[n+]1[O-]

$$$$
