
     RDKit          3D

 19 21  0  0  0  0  0  0  0  0999 V2000
   -0.4045    1.8451   -1.5313 O   0  0  0  0  0  0  0  0  0  0  0  0
    0.1081    0.8863   -0.9170 C   0  0  0  0  0  0  0  0  0  0  0  0
   -0.6958    0.1322   -0.0554 N   0  0  0  0  0  0  0  0  0  0  0  0
   -2.0764    0.3831    0.1744 C   0  0  0  0  0  0  0  0  0  0  0  0
   -2.7949    1.3924   -0.4164 C   0  0  0  0  0  0  0  0  0  0  0  0
   -4.1522    1.5744   -0.1381 C   0  0  0  0  0  0  0  0  0  0  0  0
   -4.7981    0.7320    0.7456 C   0  0  0  0  0  0  0  0  0  0  0  0
   -4.0820   -0.2869    1.3450 C   0  0  0  0  0  0  0  0  0  0  0  0
   -4.7666   -1.1103    2.2254 O   0  0  0  0  0  0  0  0  0  0  0  0
   -2.7346   -0.4496    1.0541 C   0  0  0  0  0  0  0  0  0  0  0  0
    1.5357    0.5361   -1.0813 C   0  0  0  0  0  0  0  0  0  0  0  0
    2.7205    1.2822   -2.0559 S   0  0  0  0  0  0  0  0  0  0  0  0
    4.0554    0.2651   -1.6521 C   0  0  0  0  0  0  0  0  0  0  0  0
    3.5003   -0.6067   -0.7733 C   0  0  0  0  0  0  0  0  0  0  0  0
    2.2016   -0.4681   -0.4783 C   0  0  0  0  0  0  0  0  0  0  0  0
    1.6508   -1.4761    0.5092 C   0  0  0  0  0  0  0  0  0  0  0  0
    2.5360   -1.4381    1.7385 C   0  0  0  0  0  0  0  0  0  0  0  0
    3.9707   -1.6788    1.3893 C   0  0  0  0  0  0  0  0  0  0  0  0
    4.2261   -1.7429   -0.0823 C   0  0  0  0  0  0  0  0  0  0  0  0
  1  2  2  0
  2  3  1  0
  3  4  1  0
  4  5  2  0
  5  6  1  0
  6  7  2  0
  7  8  1  0
  8  9  1  0
  8 10  2  0
  2 11  1  0
 11 12  1  0
 12 13  1  0
 13 14  2  0
 14 15  1  0
 15 16  1  0
 16 17  1  0
 17 18  1  0
 18 19  1  0
 10  4  1  0
 15 11  2  0
 19 14  1  0
M  END
>  <zinc_id>  (1) 
ZINC000000090996

>  <smiles>  (1) 
O=C(Nc1cccc(O)c1)c1scc2c1CCCC2

$$$$
