
     RDKit          3D

 19 19  0  0  0  0  0  0  0  0999 V2000
   -4.5707   -1.2528   -1.5903 C   0  0  0  0  0  0  0  0  0  0  0  0
   -5.0511   -0.6295   -0.2790 C   0  0  0  0  0  0  0  0  0  0  0  0
   -4.6423   -1.5718    0.8534 C   0  0  0  0  0  0  0  0  0  0  0  0
   -4.4614    0.7324   -0.0753 C   0  0  0  0  0  0  0  0  0  0  0  0
   -3.0004    0.6828   -0.0283 N   0  0  0  0  0  0  0  0  0  0  0  0
   -2.2259    1.8562    0.1569 C   0  0  0  0  0  0  0  0  0  0  0  0
   -3.0077    3.2839    0.3190 S   0  0  0  0  0  0  0  0  0  0  0  0
   -0.8228    1.7812    0.1984 N   0  0  0  0  0  0  0  0  0  0  0  0
   -0.1807    0.5282    0.0546 C   0  0  0  0  0  0  0  0  0  0  0  0
   -0.8720   -0.5041   -0.1087 O   0  0  0  0  0  0  0  0  0  0  0  0
    1.2710    0.4665    0.0996 C   0  0  0  0  0  0  0  0  0  0  0  0
    2.0253    1.6066    0.2797 C   0  0  0  0  0  0  0  0  0  0  0  0
    3.4176    1.5327    0.3209 C   0  0  0  0  0  0  0  0  0  0  0  0
    4.0765    0.3285    0.1842 C   0  0  0  0  0  0  0  0  0  0  0  0
    3.3392   -0.8043    0.0057 C   0  0  0  0  0  0  0  0  0  0  0  0
    4.0043   -2.0644   -0.1383 N   0  0  0  0  0  4  0  0  0  0  0  0
    3.3710   -3.1180   -0.3024 O   0  0  0  0  0  0  0  0  0  0  0  0
    5.3680   -2.1340   -0.0976 O   0  0  0  0  0  1  0  0  0  0  0  0
    1.9620   -0.7202   -0.0336 C   0  0  0  0  0  0  0  0  0  0  0  0
  1  2  1  0
  2  3  1  0
  2  4  1  0
  4  5  1  0
  5  6  1  0
  6  7  2  0
  6  8  1  0
  8  9  1  0
  9 10  2  0
  9 11  1  0
 11 12  2  0
 12 13  1  0
 13 14  2  0
 14 15  1  0
 15 16  1  0
 16 17  2  0
 16 18  1  0
 15 19  2  0
 19 11  1  0
M  CHG  2  16   1  18  -1
M  END
>  <zinc_id>  (1) 
ZINC000002892001

>  <smiles>  (1) 
CC(C)CNC(=S)NC(=O)c1cccc([N+](=O)[O-])c1

$$$$
