
     RDKit          3D

 19 20  0  0  0  0  0  0  0  0999 V2000
    0.1143   -1.9467    1.7474 C   0  0  0  0  0  0  0  0  0  0  0  0
   -0.8796   -1.2860    0.8450 C   0  0  0  0  0  0  0  0  0  0  0  0
   -2.1852   -1.7034    0.8447 C   0  0  0  0  0  0  0  0  0  0  0  0
   -3.1185   -1.1139    0.0258 C   0  0  0  0  0  0  0  0  0  0  0  0
   -4.5387   -1.5445    0.0039 C   0  0  0  0  0  0  0  0  0  0  0  0
   -5.1645   -1.2792   -1.3372 C   0  0  0  0  0  0  0  0  0  0  0  0
   -5.3022   -0.8857    1.1214 C   0  0  0  0  0  0  0  0  0  0  0  0
   -2.7010   -0.1004   -0.7856 C   0  0  0  0  0  0  0  0  0  0  0  0
   -1.3581    0.3291   -0.7855 C   0  0  0  0  0  0  0  0  0  0  0  0
   -1.0001    1.3612   -1.6317 O   0  0  0  0  0  0  0  0  0  0  0  0
   -0.4126   -0.2421    0.0201 C   0  0  0  0  0  0  0  0  0  0  0  0
    0.9382    0.0515    0.1478 N   0  0  0  0  0  0  0  0  0  0  0  0
    1.7785    0.9571   -0.4394 C   0  0  0  0  0  0  0  0  0  0  0  0
    1.3223    1.7360   -1.2922 O   0  0  0  0  0  0  0  0  0  0  0  0
    3.2195    1.0644   -0.1132 C   0  0  0  0  0  0  0  0  0  0  0  0
    3.9233    0.3225    0.7785 C   0  0  0  0  0  0  0  0  0  0  0  0
    5.2203    0.5826    0.9212 C   0  0  0  0  0  0  0  0  0  0  0  0
    5.7561    1.5810    0.1586 C   0  0  0  0  0  0  0  0  0  0  0  0
    4.3879    2.1164   -0.7386 S   0  0  0  0  0  0  0  0  0  0  0  0
  1  2  1  0
  2  3  2  0
  3  4  1  0
  4  5  1  0
  5  6  1  0
  5  7  1  0
  4  8  2  0
  8  9  1  0
  9 10  1  0
  9 11  2  0
 11 12  1  0
 12 13  1  0
 13 14  2  0
 13 15  1  0
 15 16  2  0
 16 17  1  0
 17 18  2  0
 18 19  1  0
 11  2  1  0
 19 15  1  0
M  END
>  <zinc_id>  (1) 
ZINC000000520762

>  <smiles>  (1) 
Cc1cc(C(C)C)cc(O)c1NC(=O)c1cccs1

$$$$
