
     RDKit          3D

 21 22  0  0  0  0  0  0  0  0999 V2000
   -5.0256   -1.1072    0.8027 C   0  0  0  0  0  0  0  0  0  0  0  0
   -3.5680   -0.8856    0.5279 C   0  0  0  0  0  0  0  0  0  0  0  0
   -2.6643   -1.8747    0.8502 C   0  0  0  0  0  0  0  0  0  0  0  0
   -1.3292   -1.6609    0.5938 C   0  0  0  0  0  0  0  0  0  0  0  0
   -0.4067   -2.7874    0.9738 C   0  0  0  0  0  0  0  0  0  0  0  0
   -0.8780   -0.5326    0.0453 N   0  0  0  0  0  0  0  0  0  0  0  0
    0.4801   -0.3769   -0.1885 N   0  0  0  0  0  0  0  0  0  0  0  0
    1.3330    0.0177    0.6905 C   0  0  0  0  0  0  0  0  0  0  0  0
    2.7388    0.1459    0.3345 C   0  0  0  0  0  0  0  0  0  0  0  0
    3.6961    0.5635    1.2334 C   0  0  0  0  0  0  0  0  0  0  0  0
    5.0217    0.6749    0.8652 C   0  0  0  0  0  0  0  0  0  0  0  0
    5.4474    0.3749   -0.4134 C   0  0  0  0  0  0  0  0  0  0  0  0
    6.7609    0.4870   -0.7722 F   0  0  0  0  0  0  0  0  0  0  0  0
    4.4861   -0.0428   -1.3102 C   0  0  0  0  0  0  0  0  0  0  0  0
    3.1545   -0.1558   -0.9441 C   0  0  0  0  0  0  0  0  0  0  0  0
   -1.7432    0.4317   -0.2708 C   0  0  0  0  0  0  0  0  0  0  0  0
   -1.3610    1.5355   -0.8001 O   0  0  0  0  0  0  0  0  0  0  0  0
   -3.0980    0.2724   -0.0358 C   0  0  0  0  0  0  0  0  0  0  0  0
   -4.0358    1.3355   -0.3862 C   0  0  0  0  0  0  0  0  0  0  0  0
   -5.4225    1.1801   -0.1491 N   0  0  0  0  0  0  0  0  0  0  0  0
   -3.5864    2.4045   -0.9085 O   0  0  0  0  0  0  0  0  0  0  0  0
  1  2  1  0
  2  3  1  0
  3  4  2  0
  4  5  1  0
  4  6  1  0
  6  7  1  0
  7  8  2  0
  8  9  1  0
  9 10  2  0
 10 11  1  0
 11 12  2  0
 12 13  1  0
 12 14  1  0
 14 15  2  0
  6 16  1  0
 16 17  2  0
 16 18  1  0
 18 19  1  0
 19 20  1  0
 19 21  2  0
 18  2  2  0
 15  9  1  0
M  END
>  <zinc_id>  (1) 
ZINC000000289653

>  <smiles>  (1) 
Cc1cc(C)n(/N=C/c2ccc(F)cc2)c(=O)c1C(N)=O

$$$$
