
     RDKit          3D

 21 22  0  0  0  0  0  0  0  0999 V2000
    3.3726   -1.1513   -2.0875 C   0  0  0  0  0  0  0  0  0  0  0  0
    2.7733   -0.3178   -0.9953 C   0  0  0  0  0  0  0  0  0  0  0  0
    1.4344   -0.3783   -0.6691 C   0  0  0  0  0  0  0  0  0  0  0  0
    0.9108    0.4082    0.3497 C   0  0  0  0  0  0  0  0  0  0  0  0
   -0.5026    0.3529    0.7032 C   0  0  0  0  0  0  0  0  0  0  0  0
   -0.8867    1.0993    1.6371 O   0  0  0  0  0  0  0  0  0  0  0  0
   -1.4468   -0.4654    0.0795 N   0  0  0  0  0  0  0  0  0  0  0  0
   -2.8162   -0.5486    0.3897 C   0  0  0  0  0  0  0  0  0  0  0  0
   -3.3212   -1.4282    1.3143 C   0  0  0  0  0  0  0  0  0  0  0  0
   -2.3648   -2.3210    2.0057 C   0  0  0  0  0  0  0  0  0  0  0  0
   -4.6733   -1.4366    1.5499 C   0  0  0  0  0  0  0  0  0  0  0  0
   -5.5741   -0.6124    0.9146 C   0  0  0  0  0  0  0  0  0  0  0  0
   -5.0518    0.2695   -0.0150 C   0  0  0  0  0  0  0  0  0  0  0  0
   -3.6861    0.2959   -0.2701 C   0  0  0  0  0  0  0  0  0  0  0  0
   -3.1711    1.2591   -1.2758 C   0  0  0  0  0  0  0  0  0  0  0  0
    1.8022    1.2353    0.9981 C   0  0  0  0  0  0  0  0  0  0  0  0
    3.1377    1.3010    0.6785 C   0  0  0  0  0  0  0  0  0  0  0  0
    3.6451    0.5230   -0.3261 C   0  0  0  0  0  0  0  0  0  0  0  0
    5.0319    0.6005   -0.6473 N   0  0  0  0  0  4  0  0  0  0  0  0
    5.6126   -0.4195   -1.0728 O   0  0  0  0  0  0  0  0  0  0  0  0
    5.7742    1.7345   -0.5172 O   0  0  0  0  0  1  0  0  0  0  0  0
  1  2  1  0
  2  3  2  0
  3  4  1  0
  4  5  1  0
  5  6  2  0
  5  7  1  0
  7  8  1  0
  8  9  2  0
  9 10  1  0
  9 11  1  0
 11 12  2  0
 12 13  1  0
 13 14  2  0
 14 15  1  0
  4 16  2  0
 16 17  1  0
 17 18  2  0
 18 19  1  0
 19 20  2  0
 19 21  1  0
 18  2  1  0
 14  8  1  0
M  CHG  2  19   1  21  -1
M  END
>  <zinc_id>  (1) 
ZINC000000437597

>  <smiles>  (1) 
Cc1cc(C(=O)Nc2c(C)cccc2C)ccc1[N+](=O)[O-]

$$$$
