
     RDKit          3D

 21 22  0  0  0  0  0  0  0  0999 V2000
   -4.5711   -2.4816    1.1514 C   0  0  0  0  0  0  0  0  0  0  0  0
   -3.6789   -2.0729   -0.0169 C   0  0  0  0  0  0  0  0  0  0  0  0
   -2.9149   -0.9707    0.3947 O   0  0  0  0  0  0  0  0  0  0  0  0
   -1.9948   -0.3227   -0.3848 C   0  0  0  0  0  0  0  0  0  0  0  0
   -1.7937   -0.7109   -1.5500 O   0  0  0  0  0  0  0  0  0  0  0  0
   -1.2557    0.8297    0.1752 C   0  0  0  0  0  0  0  0  0  0  0  0
   -1.4088    1.2747    1.3427 C   0  0  0  0  0  0  0  0  0  0  0  0
   -2.4107    0.5867    2.2248 C   0  0  0  0  0  0  0  0  0  0  0  0
   -0.7160    2.3493    1.8574 N   0  0  0  0  0  0  0  0  0  0  0  0
    0.2331    3.0575    1.1276 C   0  0  0  0  0  0  0  0  0  0  0  0
    0.8863    4.0543    1.5821 O   0  0  0  0  0  0  0  0  0  0  0  0
    0.4245    2.6204   -0.1081 N   0  0  0  0  0  0  0  0  0  0  0  0
   -0.2190    1.4637   -0.8837 C   0  0  1  0  0  0  0  0  0  0  0  0
    0.9081    0.3365   -0.7039 C   0  0  0  0  0  0  0  0  0  0  0  0
    1.2093   -0.3493   -1.8611 C   0  0  0  0  0  0  0  0  0  0  0  0
    2.1828   -1.3650   -1.8376 C   0  0  0  0  0  0  0  0  0  0  0  0
    2.8230   -1.6630   -0.6621 C   0  0  0  0  0  0  0  0  0  0  0  0
    3.7951   -2.6843   -0.6609 O   0  0  0  0  0  0  0  0  0  0  0  0
    4.4837   -3.0386    0.4975 C   0  0  0  0  0  0  0  0  0  0  0  0
    2.4894   -0.9548    0.4588 C   0  0  0  0  0  0  0  0  0  0  0  0
    1.5284    0.0410    0.4137 C   0  0  0  0  0  0  0  0  0  0  0  0
  1  2  1  0
  2  3  1  0
  3  4  1  0
  4  5  2  0
  4  6  1  0
  6  7  2  0
  7  8  1  0
  7  9  1  0
  9 10  1  0
 10 11  2  0
 10 12  1  0
 12 13  1  0
 13 14  1  1
 14 15  2  0
 15 16  1  0
 16 17  2  0
 17 18  1  0
 18 19  1  0
 17 20  1  0
 20 21  2  0
 13  6  1  0
 21 14  1  0
M  END
>  <zinc_id>  (1) 
ZINC000000501131

>  <smiles>  (1) 
CCOC(=O)C1=C(C)NC(=O)N[C@H]1c1ccc(OC)cc1

$$$$
