
     RDKit          3D

 21 23  0  0  0  0  0  0  0  0999 V2000
   -5.4137   -0.7437   -0.1923 C   0  0  0  0  0  0  0  0  0  0  0  0
   -4.3951    0.0076    0.4830 N   0  0  0  0  0  0  0  0  0  0  0  0
   -4.8424    0.8245    1.6125 C   0  0  0  0  0  0  0  0  0  0  0  0
   -3.0144   -0.0191    0.0964 C   0  0  0  0  0  0  0  0  0  0  0  0
   -2.5134    0.8908   -0.8107 C   0  0  0  0  0  0  0  0  0  0  0  0
   -1.1894    0.8578   -1.1769 C   0  0  0  0  0  0  0  0  0  0  0  0
   -0.2952   -0.0925   -0.6513 C   0  0  0  0  0  0  0  0  0  0  0  0
   -0.7737   -0.9732    0.2247 C   0  0  0  0  0  0  0  0  0  0  0  0
   -2.1473   -0.9485    0.6129 C   0  0  0  0  0  0  0  0  0  0  0  0
    0.0306   -1.9476    0.7968 O   0  0  0  0  0  0  0  0  0  0  0  0
    1.3586   -1.9552    0.4078 C   0  0  0  0  0  0  0  0  0  0  0  0
    2.2417   -2.9735    0.9935 N   0  0  0  0  0  0  0  0  0  0  0  0
    1.9154   -1.1459   -0.4324 C   0  0  0  0  0  0  0  0  0  0  0  0
    3.3243   -1.3100   -0.7151 C   0  0  0  0  0  0  0  0  0  0  0  0
    4.4563   -1.4210   -0.9586 N   0  0  0  0  0  0  0  0  0  0  0  0
    1.1363   -0.0255   -1.1341 C   0  0  2  0  0  0  0  0  0  0  0  0
    1.6383    1.2780   -0.4141 C   0  0  0  0  0  0  0  0  0  0  0  0
    1.6070    2.5474   -0.8836 C   0  0  0  0  0  0  0  0  0  0  0  0
    2.1727    3.3126    0.1527 C   0  0  0  0  0  0  0  0  0  0  0  0
    2.5118    2.5418    1.1599 O   0  0  0  0  0  0  0  0  0  0  0  0
    2.1915    1.2951    0.8290 C   0  0  0  0  0  0  0  0  0  0  0  0
  1  2  1  0
  2  3  1  0
  2  4  1  0
  4  5  2  0
  5  6  1  0
  6  7  2  0
  7  8  1  0
  8  9  2  0
  8 10  1  0
 10 11  1  0
 11 12  1  0
 11 13  2  0
 13 14  1  0
 14 15  3  0
 13 16  1  0
 16 17  1  6
 17 18  1  0
 18 19  2  0
 19 20  1  0
 20 21  1  0
  9  4  1  0
 21 17  2  0
 16  7  1  0
M  END
>  <zinc_id>  (1) 
ZINC000000217234

>  <smiles>  (1) 
CN(C)c1ccc2c(c1)OC(N)=C(C#N)[C@H]2c1ccoc1

$$$$
