
     RDKit          3D

 20 21  0  0  0  0  0  0  0  0999 V2000
   -4.1935    1.5463    0.5780 C   0  0  0  0  0  0  0  0  0  0  0  0
   -2.9754    0.7256    0.2925 C   0  0  0  0  0  0  0  0  0  0  0  0
   -2.2970    0.0956    1.3200 C   0  0  0  0  0  0  0  0  0  0  0  0
   -2.8021    0.2302    2.7019 C   0  0  0  0  0  0  0  0  0  0  0  0
   -1.1876   -0.6672    1.0471 C   0  0  0  0  0  0  0  0  0  0  0  0
   -0.4643   -1.3303    2.1573 C   0  0  0  0  0  0  0  0  0  0  0  0
   -0.7249   -0.8315   -0.2609 C   0  0  0  0  0  0  0  0  0  0  0  0
    0.5541   -1.5442   -0.4007 C   0  0  0  0  0  0  0  0  0  0  0  0
    0.7054   -2.7194   -0.6514 O   0  0  0  0  0  0  0  0  0  0  0  0
    1.7545   -0.6802   -0.1809 C   0  0  0  0  0  0  0  0  0  0  0  0
    2.9128   -1.1390    0.3899 C   0  0  0  0  0  0  0  0  0  0  0  0
    3.9137   -0.1976    0.5539 C   0  0  0  0  0  0  0  0  0  0  0  0
    3.7836    1.1003    0.1772 C   0  0  0  0  0  0  0  0  0  0  0  0
    4.8989    1.9926    0.3955 N   0  0  0  0  0  0  0  0  0  0  0  0
    2.5967    1.5327   -0.4140 C   0  0  0  0  0  0  0  0  0  0  0  0
    1.5698    0.6383   -0.5924 C   0  0  0  0  0  0  0  0  0  0  0  0
   -1.3865   -0.2260   -1.2439 C   0  0  0  0  0  0  0  0  0  0  0  0
   -0.9339   -0.3764   -2.6843 C   0  0  0  0  0  0  0  0  0  0  0  0
   -2.5305    0.5766   -1.0142 C   0  0  0  0  0  0  0  0  0  0  0  0
   -3.1938    1.2735   -2.1706 C   0  0  0  0  0  0  0  0  0  0  0  0
  1  2  1  0
  2  3  2  0
  3  4  1  0
  3  5  1  0
  5  6  1  0
  5  7  2  0
  7  8  1  0
  8  9  2  0
  8 10  1  0
 10 11  2  0
 11 12  1  0
 12 13  2  0
 13 14  1  0
 13 15  1  0
 15 16  2  0
  7 17  1  0
 17 18  1  0
 17 19  2  0
 19 20  1  0
 19  2  1  0
 16 10  1  0
M  END
>  <zinc_id>  (1) 
ZINC000000159164

>  <smiles>  (1) 
Cc1c(C)c(C)c(C(=O)c2ccc(N)cc2)c(C)c1C

$$$$
