
     RDKit          3D

 19 21  0  0  0  0  0  0  0  0999 V2000
   -2.6263    1.7480    2.4234 C   0  0  0  0  0  0  0  0  0  0  0  0
   -2.2086    2.1754    1.0534 C   0  0  0  0  0  0  0  0  0  0  0  0
   -3.0768    1.3451   -0.2736 S   0  0  0  0  0  0  0  0  0  0  0  0
   -2.7033   -0.3988   -0.3525 C   0  0  0  0  0  0  0  0  0  0  0  0
   -3.3780   -1.3554    0.2981 N   0  0  0  0  0  0  0  0  0  0  0  0
   -2.8235   -2.5325    0.0052 N   0  0  0  0  0  0  0  0  0  0  0  0
   -1.7857   -2.3434   -0.8376 C   0  0  0  0  0  0  0  0  0  0  0  0
   -0.9156   -3.3363   -1.4029 N   0  0  0  0  0  0  0  0  0  0  0  0
   -1.7312   -1.0163   -1.0441 N   0  0  0  0  0  0  0  0  0  0  0  0
   -0.7903   -0.2965   -1.8785 C   0  0  0  0  0  0  0  0  0  0  0  0
    0.4313    0.1129   -1.1421 C   0  0  0  0  0  0  0  0  0  0  0  0
    1.5633   -0.6631   -1.0648 C   0  0  0  0  0  0  0  0  0  0  0  0
    2.4764    0.0363   -0.3076 C   0  0  0  0  0  0  0  0  0  0  0  0
    3.7625   -0.2995    0.0657 C   0  0  0  0  0  0  0  0  0  0  0  0
    4.5119    0.5576    0.8351 C   0  0  0  0  0  0  0  0  0  0  0  0
    3.9701    1.7651    1.2367 C   0  0  0  0  0  0  0  0  0  0  0  0
    2.6728    2.0515    0.8327 C   0  0  0  0  0  0  0  0  0  0  0  0
    1.9468    1.1956    0.0739 N   0  0  0  0  0  0  0  0  0  0  0  0
    0.7041    1.2544   -0.4270 C   0  0  0  0  0  0  0  0  0  0  0  0
  1  2  1  0
  2  3  1  0
  3  4  1  0
  4  5  2  0
  5  6  1  0
  6  7  2  0
  7  8  1  0
  7  9  1  0
  9 10  1  0
 10 11  1  0
 11 12  1  0
 12 13  2  0
 13 14  1  0
 14 15  2  0
 15 16  1  0
 16 17  2  0
 17 18  1  0
 18 19  1  0
  9  4  1  0
 19 11  2  0
 18 13  1  0
M  END
>  <zinc_id>  (1) 
ZINC000001922552

>  <smiles>  (1) 
CCSc1nnc(N)n1Cc1cc2ccccn2c1

$$$$
