
     RDKit          3D

 22 24  0  0  0  0  0  0  0  0999 V2000
    1.8046   -2.1851   -0.9763 C   0  0  0  0  0  0  0  0  0  0  0  0
    2.6835   -1.4608    0.2064 C   0  0  1  0  0  0  0  0  0  0  0  0
    3.7278   -0.9580   -0.7615 O   0  0  0  0  0  0  0  0  0  0  0  0
    4.5336   -0.1324    0.0552 C   0  0  0  0  0  0  0  0  0  0  0  0
    5.8193    0.0843   -0.6713 C   0  0  0  0  0  0  0  0  0  0  0  0
    4.6826   -0.7894    1.4003 C   0  0  0  0  0  0  0  0  0  0  0  0
    3.8755    1.1809    0.1657 N   0  0  0  0  0  0  0  0  0  0  0  0
    2.4308    1.0778    0.1943 C   0  0  0  0  0  0  0  0  0  0  0  0
    1.6443    2.2155    0.2073 C   0  0  0  0  0  0  0  0  0  0  0  0
    0.2697    2.1239    0.2347 C   0  0  0  0  0  0  0  0  0  0  0  0
   -0.3582    0.8947    0.2497 C   0  0  0  0  0  0  0  0  0  0  0  0
   -1.8241    0.7802    0.2790 C   0  0  0  0  0  0  0  0  0  0  0  0
   -2.6374    1.7005    0.9044 C   0  0  0  0  0  0  0  0  0  0  0  0
   -4.0173    1.5829    0.9248 C   0  0  0  0  0  0  0  0  0  0  0  0
   -4.6411    0.5237    0.3106 C   0  0  0  0  0  0  0  0  0  0  0  0
   -3.8606   -0.4226   -0.3288 C   0  0  0  0  0  0  0  0  0  0  0  0
   -4.4994   -1.5125   -0.9614 N   0  0  0  0  0  4  0  0  0  0  0  0
   -5.7195   -1.6483   -0.9638 O   0  0  0  0  0  0  0  0  0  0  0  0
   -3.7141   -2.4295   -1.5826 O   0  0  0  0  0  1  0  0  0  0  0  0
   -2.4798   -0.2684   -0.3266 C   0  0  0  0  0  0  0  0  0  0  0  0
    0.4619   -0.2195    0.2360 C   0  0  0  0  0  0  0  0  0  0  0  0
    1.8180   -0.1378    0.2092 C   0  0  0  0  0  0  0  0  0  0  0  0
  2  1  1  6
  2  3  1  0
  3  4  1  0
  4  5  1  0
  4  6  1  0
  4  7  1  0
  7  8  1  0
  8  9  2  0
  9 10  1  0
 10 11  2  0
 11 12  1  0
 12 13  2  0
 13 14  1  0
 14 15  2  0
 15 16  1  0
 16 17  1  0
 17 18  2  0
 17 19  1  0
 16 20  2  0
 11 21  1  0
 21 22  2  0
 22  2  1  0
 22  8  1  0
 20 12  1  0
M  CHG  2  17   1  19  -1
M  END
>  <zinc_id>  (1) 
ZINC000000026384

>  <smiles>  (1) 
C[C@H]1OC(C)(C)Nc2ccc(-c3cccc([N+](=O)[O-])c3)cc21

$$$$
