
     RDKit          3D

 21 23  0  0  0  0  0  0  0  0999 V2000
   -0.6718    2.0530   -2.4493 N   0  0  0  0  0  0  0  0  0  0  0  0
   -1.3994    0.9650   -1.9433 C   0  0  0  0  0  0  0  0  0  0  0  0
   -2.0361    0.2419   -2.7309 O   0  0  0  0  0  0  0  0  0  0  0  0
   -1.4293    0.6578   -0.5133 C   0  0  0  0  0  0  0  0  0  0  0  0
   -0.7294    1.4495    0.3695 C   0  0  0  0  0  0  0  0  0  0  0  0
    0.0725    2.5955    0.0980 N   0  0  0  0  0  0  0  0  0  0  0  0
    1.3301    2.5249   -0.0420 C   0  0  0  0  0  0  0  0  0  0  0  0
    2.0385    1.2742    0.0644 C   0  0  0  0  0  0  0  0  0  0  0  0
    3.4142    1.3007   -0.1045 C   0  0  0  0  0  0  0  0  0  0  0  0
    4.1833    0.1390   -0.0190 C   0  0  0  0  0  0  0  0  0  0  0  0
    3.5145   -1.0431    0.2420 C   0  0  0  0  0  0  0  0  0  0  0  0
    4.2499   -2.1678    0.3259 F   0  0  0  0  0  0  0  0  0  0  0  0
    2.1375   -1.0882    0.4140 C   0  0  0  0  0  0  0  0  0  0  0  0
    1.4044    0.0780    0.3235 C   0  0  0  0  0  0  0  0  0  0  0  0
   -1.0385    0.7451    1.8852 S   0  0  0  0  0  0  0  0  0  0  0  0
   -2.0448   -0.5371    1.3889 C   0  0  0  0  0  0  0  0  0  0  0  0
   -2.1115   -0.3770    0.0394 C   0  0  0  0  0  0  0  0  0  0  0  0
   -2.9724   -1.4284   -0.6298 C   0  0  0  0  0  0  0  0  0  0  0  0
   -2.5174   -2.7647   -0.1480 C   0  0  0  0  0  0  0  0  0  0  0  0
   -2.6225   -2.9566    1.3338 C   0  0  0  0  0  0  0  0  0  0  0  0
   -2.7717   -1.6616    2.0955 C   0  0  0  0  0  0  0  0  0  0  0  0
  1  2  1  0
  2  3  2  0
  2  4  1  0
  4  5  2  0
  5  6  1  0
  6  7  2  0
  7  8  1  0
  8  9  2  0
  9 10  1  0
 10 11  2  0
 11 12  1  0
 11 13  1  0
 13 14  2  0
  5 15  1  0
 15 16  1  0
 16 17  2  0
 17 18  1  0
 18 19  1  0
 19 20  1  0
 20 21  1  0
 17  4  1  0
 14  8  1  0
 21 16  1  0
M  END
>  <zinc_id>  (1) 
ZINC000000524370

>  <smiles>  (1) 
NC(=O)c1c(/N=C\c2ccc(F)cc2)sc2c1CCCC2

$$$$
