
     RDKit          3D

 20 22  0  0  0  0  0  0  0  0999 V2000
    5.4612    1.8711    1.7094 C   0  0  0  0  0  0  0  0  0  0  0  0
    4.4201    1.2429    0.8264 C   0  0  0  0  0  0  0  0  0  0  0  0
    3.8390    1.9484   -0.1977 C   0  0  0  0  0  0  0  0  0  0  0  0
    2.8902    1.4059   -1.0174 C   0  0  0  0  0  0  0  0  0  0  0  0
    2.4916    0.1121   -0.8258 C   0  0  0  0  0  0  0  0  0  0  0  0
    1.4818   -0.4925   -1.6843 C   0  0  0  0  0  0  0  0  0  0  0  0
    0.1350   -0.3383   -1.2306 N   0  0  0  0  0  0  0  0  0  0  0  0
   -0.4404   -1.0696   -0.1787 C   0  0  0  0  0  0  0  0  0  0  0  0
    0.3135   -1.9086    0.3777 O   0  0  0  0  0  0  0  0  0  0  0  0
   -1.8534   -0.8857    0.2733 C   0  0  0  0  0  0  0  0  0  0  0  0
   -2.3339   -1.6456    1.3122 C   0  0  0  0  0  0  0  0  0  0  0  0
   -1.6587   -2.6555    2.0891 N   0  0  0  0  0  0  0  0  0  0  0  0
   -3.9368   -1.1123    1.4746 S   0  0  0  0  0  0  0  0  0  0  0  0
   -3.9713    0.0564    0.2325 C   0  0  0  0  0  0  0  0  0  0  0  0
   -2.7089   -0.0054   -0.2811 C   0  0  0  0  0  0  0  0  0  0  0  0
   -2.6799    1.0289   -1.4082 C   0  0  0  0  0  0  0  0  0  0  0  0
   -3.7246    2.0315   -0.9646 C   0  0  0  0  0  0  0  0  0  0  0  0
   -4.8141    1.0858   -0.4882 C   0  0  0  0  0  0  0  0  0  0  0  0
    3.0590   -0.6079    0.1896 C   0  0  0  0  0  0  0  0  0  0  0  0
    4.0305   -0.0615    1.0336 C   0  0  0  0  0  0  0  0  0  0  0  0
  1  2  1  0
  2  3  2  0
  3  4  1  0
  4  5  2  0
  5  6  1  0
  6  7  1  0
  7  8  1  0
  8  9  2  0
  8 10  1  0
 10 11  2  0
 11 12  1  0
 11 13  1  0
 13 14  1  0
 14 15  2  0
 15 16  1  0
 16 17  1  0
 17 18  1  0
  5 19  1  0
 19 20  2  0
 20  2  1  0
 15 10  1  0
 18 14  1  0
M  END
>  <zinc_id>  (1) 
ZINC000002558500

>  <smiles>  (1) 
Cc1ccc(CNC(=O)c2c(N)sc3c2CCC3)cc1

$$$$
