
     RDKit          3D

 19 21  0  0  0  0  0  0  0  0999 V2000
    2.0752    2.7798   -0.0154 C   0  0  0  0  0  0  0  0  0  0  0  0
    2.8335    1.4893    0.0860 C   0  0  0  0  0  0  0  0  0  0  0  0
    4.1961    1.5366    0.1770 C   0  0  0  0  0  0  0  0  0  0  0  0
    4.9320    0.3548    0.2727 C   0  0  0  0  0  0  0  0  0  0  0  0
    4.2558   -0.8577    0.2732 C   0  0  0  0  0  0  0  0  0  0  0  0
    2.8789   -0.8816    0.1803 C   0  0  0  0  0  0  0  0  0  0  0  0
    2.1506    0.2941    0.0854 C   0  0  0  0  0  0  0  0  0  0  0  0
    0.7333    0.3070   -0.0117 N   0  0  0  0  0  0  0  0  0  0  0  0
   -0.0231   -0.8951   -0.0170 C   0  0  0  0  0  0  0  0  0  0  0  0
    0.6340   -1.9462    0.0682 O   0  0  0  0  0  0  0  0  0  0  0  0
   -1.5146   -0.8922   -0.1187 C   0  0  0  0  0  0  0  0  0  0  0  0
   -2.1833   -2.0865   -0.1183 C   0  0  0  0  0  0  0  0  0  0  0  0
   -1.6129   -3.4192   -0.0283 N   0  0  0  0  0  0  0  0  0  0  0  0
   -3.8138   -1.6262   -0.2470 S   0  0  0  0  0  0  0  0  0  0  0  0
   -3.6198    0.0658   -0.2989 C   0  0  0  0  0  0  0  0  0  0  0  0
   -2.2735    0.2369   -0.2139 C   0  0  0  0  0  0  0  0  0  0  0  0
   -1.9940    1.7467   -0.2547 C   0  0  0  0  0  0  0  0  0  0  0  0
   -3.3025    2.4028    0.0261 C   0  0  0  0  0  0  0  0  0  0  0  0
   -4.3519    1.3909   -0.3980 C   0  0  0  0  0  0  0  0  0  0  0  0
  1  2  1  0
  2  3  2  0
  3  4  1  0
  4  5  2  0
  5  6  1  0
  6  7  2  0
  7  8  1  0
  8  9  1  0
  9 10  2  0
  9 11  1  0
 11 12  2  0
 12 13  1  0
 12 14  1  0
 14 15  1  0
 15 16  2  0
 16 17  1  0
 17 18  1  0
 18 19  1  0
  7  2  1  0
 16 11  1  0
 19 15  1  0
M  END
>  <zinc_id>  (1) 
ZINC000000083255

>  <smiles>  (1) 
Cc1ccccc1NC(=O)c1c(N)sc2c1CCC2

$$$$
