
     RDKit          3D

 23 25  0  0  0  0  0  0  0  0999 V2000
   -0.0151   -4.5759    0.2116 C   0  0  0  0  0  0  0  0  0  0  0  0
   -0.2571   -3.1728    0.1543 O   0  0  0  0  0  0  0  0  0  0  0  0
   -0.5082   -2.4807   -0.9959 C   0  0  0  0  0  0  0  0  0  0  0  0
   -0.5291   -3.1032   -2.0628 O   0  0  0  0  0  0  0  0  0  0  0  0
   -0.7436   -1.0142   -0.8885 C   0  0  0  0  0  0  0  0  0  0  0  0
   -0.9903   -0.3191   -1.9636 C   0  0  0  0  0  0  0  0  0  0  0  0
   -0.9800   -1.1037   -3.2101 N   0  0  0  0  0  0  0  0  0  0  0  0
   -1.2726    1.0217   -2.0337 O   0  0  0  0  0  0  0  0  0  0  0  0
   -1.3008    1.6783   -0.7706 C   0  0  0  0  0  0  0  0  0  0  0  0
   -1.0835    1.1223    0.3542 C   0  0  0  0  0  0  0  0  0  0  0  0
   -1.1314    1.8058    1.6781 C   0  0  0  0  0  0  0  0  0  0  0  0
   -1.2010    1.1517    2.7585 O   0  0  0  0  0  0  0  0  0  0  0  0
   -1.0931    3.2767    1.6195 C   0  0  0  0  0  0  0  0  0  0  0  0
   -1.9740    3.7726    0.4821 C   0  0  0  0  0  0  0  0  0  0  0  0
   -1.6169    3.1558   -0.8095 C   0  0  0  0  0  0  0  0  0  0  0  0
   -0.5998   -0.3485    0.4192 C   0  0  2  0  0  0  0  0  0  0  0  0
    0.9435   -0.1179    0.7051 C   0  0  0  0  0  0  0  0  0  0  0  0
    1.2773    0.6462    1.7852 C   0  0  0  0  0  0  0  0  0  0  0  0
    2.5803    0.8666    2.1332 C   0  0  0  0  0  0  0  0  0  0  0  0
    3.5695    0.2975    1.3661 C   0  0  0  0  0  0  0  0  0  0  0  0
    3.2623   -0.4767    0.2714 C   0  0  0  0  0  0  0  0  0  0  0  0
    1.8936   -0.6685   -0.0398 C   0  0  0  0  0  0  0  0  0  0  0  0
    1.7700   -1.4139   -1.1641 F   0  0  0  0  0  0  0  0  0  0  0  0
  1  2  1  0
  2  3  1  0
  3  4  2  0
  3  5  1  0
  5  6  2  0
  6  7  1  0
  6  8  1  0
  8  9  1  0
  9 10  2  0
 10 11  1  0
 11 12  2  0
 11 13  1  0
 13 14  1  0
 14 15  1  0
 10 16  1  0
 16 17  1  1
 17 18  2  0
 18 19  1  0
 19 20  2  0
 20 21  1  0
 21 22  2  0
 22 23  1  0
 16  5  1  0
 22 17  1  0
 15  9  1  0
M  END
>  <zinc_id>  (1) 
ZINC000000062228

>  <smiles>  (1) 
COC(=O)C1=C(N)OC2=C(C(=O)CCC2)[C@H]1c1ccccc1F

$$$$
