
     RDKit          3D

 20 22  0  0  0  0  0  0  0  0999 V2000
    5.7961    0.3415    1.8777 C   0  0  0  0  0  0  0  0  0  0  0  0
    6.0380   -0.8508    1.0051 C   0  0  0  0  0  0  0  0  0  0  0  0
    5.4020   -0.6594   -0.2452 O   0  0  0  0  0  0  0  0  0  0  0  0
    4.0113   -0.4790   -0.2434 C   0  0  0  0  0  0  0  0  0  0  0  0
    3.2698   -0.4839    0.9195 C   0  0  0  0  0  0  0  0  0  0  0  0
    1.9094   -0.3100    0.9510 C   0  0  0  0  0  0  0  0  0  0  0  0
    1.2214   -0.1179   -0.2289 C   0  0  0  0  0  0  0  0  0  0  0  0
   -0.2244    0.0680   -0.2070 C   0  0  0  0  0  0  0  0  0  0  0  0
   -1.0262    0.7959   -1.0452 C   0  0  0  0  0  0  0  0  0  0  0  0
   -2.3392    0.6768   -0.6337 C   0  0  0  0  0  0  0  0  0  0  0  0
   -3.5454    1.1980   -1.1137 C   0  0  0  0  0  0  0  0  0  0  0  0
   -4.7290    0.8926   -0.4731 C   0  0  0  0  0  0  0  0  0  0  0  0
   -6.0439    1.4129   -0.9319 C   0  0  0  0  0  0  0  0  0  0  0  0
   -4.6741    0.0934    0.6039 N   0  0  0  0  0  0  0  0  0  0  0  0
   -3.4959   -0.4065    1.0601 C   0  0  0  0  0  0  0  0  0  0  0  0
   -3.4426   -1.1562    2.0702 O   0  0  0  0  0  0  0  0  0  0  0  0
   -2.3291   -0.1199    0.4484 N   0  0  0  0  0  0  0  0  0  0  0  0
   -1.0595   -0.5001    0.7246 C   0  0  0  0  0  0  0  0  0  0  0  0
    1.9476   -0.1093   -1.4108 C   0  0  0  0  0  0  0  0  0  0  0  0
    3.3139   -0.2860   -1.4200 C   0  0  0  0  0  0  0  0  0  0  0  0
  1  2  1  0
  2  3  1  0
  3  4  1  0
  4  5  2  0
  5  6  1  0
  6  7  2  0
  7  8  1  0
  8  9  1  0
  9 10  2  0
 10 11  1  0
 11 12  2  0
 12 13  1  0
 12 14  1  0
 14 15  1  0
 15 16  2  0
 15 17  1  0
 17 18  1  0
  7 19  1  0
 19 20  2  0
 20  4  1  0
 18  8  2  0
 17 10  1  0
M  END
>  <zinc_id>  (1) 
ZINC000001924071

>  <smiles>  (1) 
CCOc1ccc(-c2cc3cc(C)[nH]c(=O)n3c2)cc1

$$$$
