
     RDKit          3D

 20 21  0  0  0  0  0  0  0  0999 V2000
    2.7713    3.1717   -1.6536 C   0  0  0  0  0  0  0  0  0  0  0  0
    2.9523    1.9423   -1.0150 O   0  0  0  0  0  0  0  0  0  0  0  0
    1.9170    1.0939   -0.6630 C   0  0  0  0  0  0  0  0  0  0  0  0
    0.7690    1.4836   -0.9488 O   0  0  0  0  0  0  0  0  0  0  0  0
    2.1411   -0.2103    0.0169 C   0  0  0  0  0  0  0  0  0  0  0  0
    1.1682   -1.0627    0.3663 C   0  0  0  0  0  0  0  0  0  0  0  0
   -0.2985   -0.8392    0.1826 C   0  0  0  0  0  0  0  0  0  0  0  0
   -1.0608   -1.8035   -0.4657 C   0  0  0  0  0  0  0  0  0  0  0  0
   -2.4233   -1.6301   -0.6180 C   0  0  0  0  0  0  0  0  0  0  0  0
   -3.0450   -0.5049   -0.1324 C   0  0  0  0  0  0  0  0  0  0  0  0
   -4.4319   -0.3442   -0.2957 O   0  0  0  0  0  0  0  0  0  0  0  0
   -5.1792   -1.3438   -0.9601 C   0  0  0  0  0  0  0  0  0  0  0  0
   -2.2928    0.4430    0.5055 C   0  0  0  0  0  0  0  0  0  0  0  0
   -2.8514    1.5944    1.0163 O   0  0  0  0  0  0  0  0  0  0  0  0
   -2.0878    2.5640    1.6677 C   0  0  0  0  0  0  0  0  0  0  0  0
   -0.9356    0.2546    0.6488 C   0  0  0  0  0  0  0  0  0  0  0  0
    1.5521   -2.2348    0.9725 C   0  0  0  0  0  0  0  0  0  0  0  0
    3.2383   -2.1161    1.0390 S   0  0  0  0  0  0  0  0  0  0  0  0
    3.4353   -0.5945    0.3029 C   0  0  0  0  0  0  0  0  0  0  0  0
    4.6618    0.1364    0.0337 N   0  0  0  0  0  0  0  0  0  0  0  0
  1  2  1  0
  2  3  1  0
  3  4  2  0
  3  5  1  0
  5  6  1  0
  6  7  1  0
  7  8  2  0
  8  9  1  0
  9 10  2  0
 10 11  1  0
 11 12  1  0
 10 13  1  0
 13 14  1  0
 14 15  1  0
 13 16  2  0
  6 17  2  0
 17 18  1  0
 18 19  1  0
 19 20  1  0
 19  5  2  0
 16  7  1  0
M  END
>  <zinc_id>  (1) 
ZINC000000442718

>  <smiles>  (1) 
COC(=O)c1c(-c2ccc(OC)c(OC)c2)csc1N

$$$$
