
     RDKit          3D

 22 23  0  0  0  0  0  0  0  0999 V2000
   -0.8597    1.9086   -0.8835 C   0  0  0  0  0  0  0  0  0  0  0  0
   -2.1937    1.3383   -0.5095 C   0  0  0  0  0  0  0  0  0  0  0  0
   -3.3231    2.1243   -0.6834 C   0  0  0  0  0  0  0  0  0  0  0  0
   -4.5587    1.6384   -0.3544 C   0  0  0  0  0  0  0  0  0  0  0  0
   -4.6580    0.3654    0.1480 C   0  0  0  0  0  0  0  0  0  0  0  0
   -3.5162   -0.4102    0.3165 C   0  0  0  0  0  0  0  0  0  0  0  0
   -3.7124   -1.7734    0.8649 C   0  0  0  0  0  0  0  0  0  0  0  0
   -2.2677    0.0641   -0.0094 C   0  0  0  0  0  0  0  0  0  0  0  0
   -1.1522   -0.7744    0.1874 N   0  0  0  0  0  0  0  0  0  0  0  0
   -0.7898   -1.6012   -0.9205 C   0  0  0  0  0  0  0  0  0  0  0  0
   -1.3734   -1.6154   -1.9877 O   0  0  0  0  0  0  0  0  0  0  0  0
    0.4861   -2.5494   -0.6596 C   0  0  1  0  0  0  0  0  0  0  0  0
    0.9156   -2.6621   -2.2515 C   0  0  0  0  0  0  0  0  0  0  0  0
    1.4974   -1.3675   -0.3107 C   0  0  0  0  0  0  0  0  0  0  0  0
    1.0841   -0.4433    0.5878 C   0  0  0  0  0  0  0  0  0  0  0  0
    1.9165    0.5947    0.9434 C   0  0  0  0  0  0  0  0  0  0  0  0
    3.1849    0.6729    0.3623 C   0  0  0  0  0  0  0  0  0  0  0  0
    4.0562    1.7256    0.7093 N   0  0  0  0  0  4  0  0  0  0  0  0
    3.6902    2.5742    1.5276 O   0  0  0  0  0  0  0  0  0  0  0  0
    5.2946    1.7882    0.1317 O   0  0  0  0  0  1  0  0  0  0  0  0
    3.5720   -0.2881   -0.5506 C   0  0  0  0  0  0  0  0  0  0  0  0
    2.7076   -1.3100   -0.8781 C   0  0  0  0  0  0  0  0  0  0  0  0
  1  2  1  0
  2  3  2  0
  3  4  1  0
  4  5  2  0
  5  6  1  0
  6  7  1  0
  6  8  2  0
  8  9  1  0
  9 10  1  0
 10 11  2  0
 10 12  1  0
 12 13  1  6
 12 14  1  0
 14 15  2  0
 15 16  1  0
 16 17  2  0
 17 18  1  0
 18 19  2  0
 18 20  1  0
 17 21  1  0
 21 22  2  0
  8  2  1  0
 22 14  1  0
M  CHG  2  18   1  20  -1
M  END
>  <zinc_id>  (1) 
ZINC000000579979

>  <smiles>  (1) 
Cc1cccc(C)c1NC(=O)[C@@H](C)c1ccc([N+](=O)[O-])cc1

$$$$
