
     RDKit          3D

 20 22  0  0  0  0  0  0  0  0999 V2000
   -5.5917    0.4085   -1.0883 C   0  0  0  0  0  0  0  0  0  0  0  0
   -4.6395   -0.4681   -0.3906 C   0  0  0  0  0  0  0  0  0  0  0  0
   -4.9630   -1.7180    0.0425 N   0  0  0  0  0  0  0  0  0  0  0  0
   -3.8806   -2.2468    0.6336 C   0  0  0  0  0  0  0  0  0  0  0  0
   -2.8927   -1.3335    0.5686 N   0  0  0  0  0  0  0  0  0  0  0  0
   -3.3284   -0.2295   -0.0551 C   0  0  0  0  0  0  0  0  0  0  0  0
   -2.5455    0.9971   -0.3226 C   0  0  0  0  0  0  0  0  0  0  0  0
   -1.1918    0.8894    0.1772 N   0  0  0  0  0  0  0  0  0  0  0  0
   -0.6663    1.2482    1.4752 C   0  0  0  0  0  0  0  0  0  0  0  0
    0.5002    0.2960    1.6294 C   0  0  0  0  0  0  0  0  0  0  0  0
    1.0332    0.2026    0.2921 N   0  0  0  0  0  0  0  0  0  0  0  0
    2.3859   -0.0207   -0.0328 C   0  0  0  0  0  0  0  0  0  0  0  0
    2.7221   -0.3581   -1.3261 C   0  0  0  0  0  0  0  0  0  0  0  0
    4.0328   -0.5820   -1.6856 C   0  0  0  0  0  0  0  0  0  0  0  0
    5.0267   -0.4717   -0.7548 C   0  0  0  0  0  0  0  0  0  0  0  0
    4.7420   -0.1360    0.5549 C   0  0  0  0  0  0  0  0  0  0  0  0
    6.0079    0.0113    1.7743 Cl  0  0  0  0  0  0  0  0  0  0  0  0
    3.4099    0.0825    0.8805 C   0  0  0  0  0  0  0  0  0  0  0  0
   -0.0772    0.3830   -0.5721 C   0  0  0  0  0  0  0  0  0  0  0  0
   -0.0840    0.1378   -1.8003 O   0  0  0  0  0  0  0  0  0  0  0  0
  1  2  1  0
  2  3  1  0
  3  4  1  0
  4  5  2  0
  5  6  1  0
  6  7  1  0
  7  8  1  0
  8  9  1  0
  9 10  1  0
 10 11  1  0
 11 12  1  0
 12 13  2  0
 13 14  1  0
 14 15  2  0
 15 16  1  0
 16 17  1  0
 16 18  2  0
 11 19  1  0
 19 20  2  0
  6  2  2  0
 19  8  1  0
 18 12  1  0
M  END
>  <zinc_id>  (1) 
ZINC000000006052

>  <smiles>  (1) 
Cc1[nH]cnc1CN1CCN(c2cccc(Cl)c2)C1=O

$$$$
