
     RDKit          3D

 21 23  0  0  0  0  0  0  0  0999 V2000
    5.5143    1.1674    0.5845 C   0  0  0  0  0  0  0  0  0  0  0  0
    4.4362    0.0794    0.4569 C   0  0  0  0  0  0  0  0  0  0  0  0
    3.9380   -0.5140    1.6469 C   0  0  0  0  0  0  0  0  0  0  0  0
    4.9798   -0.9175   -0.6766 C   0  0  1  0  0  0  0  0  0  0  0  0
    3.9610   -2.1672   -0.3293 C   0  0  0  0  0  0  0  0  0  0  0  0
    2.6334   -1.6290   -0.1632 C   0  0  0  0  0  0  0  0  0  0  0  0
    2.2009   -0.4340   -0.2312 C   0  0  0  0  0  0  0  0  0  0  0  0
    0.8583    0.0616   -0.0575 C   0  0  0  0  0  0  0  0  0  0  0  0
    0.5208    1.2867   -0.1456 N   0  0  0  0  0  0  0  0  0  0  0  0
   -0.8132    1.6268    0.0452 N   0  0  0  0  0  0  0  0  0  0  0  0
   -1.8700    0.6599   -0.0884 C   0  0  0  0  0  0  0  0  0  0  0  0
   -1.6470   -0.6497   -0.4090 C   0  0  0  0  0  0  0  0  0  0  0  0
   -2.6958   -1.5415   -0.5260 C   0  0  0  0  0  0  0  0  0  0  0  0
   -3.9733   -1.0901   -0.3142 C   0  0  0  0  0  0  0  0  0  0  0  0
   -4.2502    0.2235    0.0119 C   0  0  0  0  0  0  0  0  0  0  0  0
   -5.5884    0.6731    0.2284 N   0  0  0  0  0  4  0  0  0  0  0  0
   -5.7650    1.8653    0.5180 O   0  0  0  0  0  0  0  0  0  0  0  0
   -6.6002   -0.2212    0.1077 O   0  0  0  0  0  1  0  0  0  0  0  0
   -3.1643    1.0886    0.1196 C   0  0  0  0  0  0  0  0  0  0  0  0
    3.3346    0.6730   -0.5604 C   0  0  2  0  0  0  0  0  0  0  0  0
    3.9900   -0.2411   -1.7593 C   0  0  0  0  0  0  0  0  0  0  0  0
  1  2  1  0
  2  3  1  0
  2  4  1  0
  4  5  1  1
  5  6  1  0
  6  7  2  0
  7  8  1  0
  8  9  2  0
  9 10  1  0
 10 11  1  0
 11 12  2  0
 12 13  1  0
 13 14  2  0
 14 15  1  0
 15 16  1  0
 16 17  2  0
 16 18  1  0
 15 19  2  0
  7 20  1  0
 20 21  1  6
 20  2  1  0
 21  4  1  0
 19 11  1  0
M  CHG  2  16   1  18  -1
M  END
>  <zinc_id>  (1) 
ZINC000003270568

>  <smiles>  (1) 
CC1(C)[C@H]2CC=C(/C=N/Nc3cccc([N+](=O)[O-])c3)[C@@H]1C2

$$$$
