
     RDKit          3D

 22 24  0  0  0  0  0  0  0  0999 V2000
   -0.3557    4.6741   -0.0053 C   0  0  0  0  0  0  0  0  0  0  0  0
   -1.2981    3.5957    0.3095 C   0  0  0  0  0  0  0  0  0  0  0  0
   -2.5947    3.8971    0.6594 C   0  0  0  0  0  0  0  0  0  0  0  0
   -3.4436    2.8499    0.9464 C   0  0  0  0  0  0  0  0  0  0  0  0
   -2.9622    1.5594    0.8714 C   0  0  0  0  0  0  0  0  0  0  0  0
   -1.6922    1.2968    0.5272 N   0  0  0  0  0  0  0  0  0  0  0  0
   -0.9851    0.0917    0.3847 C   0  0  0  0  0  0  0  0  0  0  0  0
   -1.6304   -1.0920    0.5800 N   0  0  0  0  0  0  0  0  0  0  0  0
   -1.3517   -2.4367    0.5782 C   0  0  0  0  0  0  0  0  0  0  0  0
   -2.7202   -3.1892    0.6498 C   0  0  0  0  0  0  0  0  0  0  0  0
   -0.5360   -2.9341    1.7863 C   0  0  0  0  0  0  0  0  0  0  0  0
   -0.7180   -2.9182   -0.6952 C   0  0  0  0  0  0  0  0  0  0  0  0
    0.3015    0.3773    0.0113 C   0  0  0  0  0  0  0  0  0  0  0  0
    1.4460   -0.4593   -0.3042 C   0  0  0  0  0  0  0  0  0  0  0  0
    2.1105   -0.2791   -1.5276 C   0  0  0  0  0  0  0  0  0  0  0  0
    3.2164   -0.9802   -1.8826 C   0  0  0  0  0  0  0  0  0  0  0  0
    3.7373   -1.9197   -1.0268 C   0  0  0  0  0  0  0  0  0  0  0  0
    4.8788   -2.6539   -1.3755 O   0  0  0  0  0  0  0  0  0  0  0  0
    3.1022   -2.1187    0.1875 C   0  0  0  0  0  0  0  0  0  0  0  0
    1.9847   -1.3902    0.5125 C   0  0  0  0  0  0  0  0  0  0  0  0
    0.3504    1.7578   -0.0672 N   0  0  0  0  0  0  0  0  0  0  0  0
   -0.8399    2.2716    0.2425 C   0  0  0  0  0  0  0  0  0  0  0  0
  1  2  1  0
  2  3  2  0
  3  4  1  0
  4  5  2  0
  5  6  1  0
  6  7  1  0
  7  8  1  0
  8  9  1  0
  9 10  1  0
  9 11  1  0
  9 12  1  0
  7 13  2  0
 13 14  1  0
 14 15  2  0
 15 16  1  0
 16 17  2  0
 17 18  1  0
 17 19  1  0
 19 20  2  0
 13 21  1  0
 21 22  2  0
 22  2  1  0
 22  6  1  0
 20 14  1  0
M  END
>  <zinc_id>  (1) 
ZINC000000416286

>  <smiles>  (1) 
Cc1cccn2c(NC(C)(C)C)c(-c3ccc(O)cc3)nc12

$$$$
