
     RDKit          3D

 19 21  0  0  0  0  0  0  0  0999 V2000
    6.1327   -1.1449   -0.3864 C   0  0  0  0  0  0  0  0  0  0  0  0
    4.9948   -1.5816    0.1506 C   0  0  0  0  0  0  0  0  0  0  0  0
    4.3319   -0.7574    1.1969 C   0  0  0  0  0  0  0  0  0  0  0  0
    3.0134   -0.3262    0.8985 N   0  0  0  0  0  0  0  0  0  0  0  0
    2.6041    0.6067   -0.0785 C   0  0  0  0  0  0  0  0  0  0  0  0
    3.7303    1.3231   -1.0050 S   0  0  0  0  0  0  0  0  0  0  0  0
    1.1913    0.8751   -0.1941 N   0  0  0  0  0  0  0  0  0  0  0  0
    0.7391    1.8114   -1.1665 C   0  0  0  0  0  0  0  0  0  0  0  0
   -0.5198    2.4906   -0.6692 C   0  0  0  0  0  0  0  0  0  0  0  0
   -1.5452    1.4642   -0.4590 C   0  0  0  0  0  0  0  0  0  0  0  0
   -2.8216    1.3358   -0.7604 N   0  0  0  0  0  0  0  0  0  0  0  0
   -3.2979    0.1499   -0.3186 C   0  0  0  0  0  0  0  0  0  0  0  0
   -4.5427   -0.4515   -0.3841 C   0  0  0  0  0  0  0  0  0  0  0  0
   -4.7515   -1.7109    0.1702 C   0  0  0  0  0  0  0  0  0  0  0  0
   -3.6793   -2.3357    0.7832 C   0  0  0  0  0  0  0  0  0  0  0  0
   -2.4567   -1.7412    0.8430 C   0  0  0  0  0  0  0  0  0  0  0  0
   -2.2536   -0.4931    0.2925 C   0  0  0  0  0  0  0  0  0  0  0  0
   -1.1348    0.3046    0.2235 C   0  0  0  0  0  0  0  0  0  0  0  0
    0.2654    0.1812    0.6744 C   0  0  0  0  0  0  0  0  0  0  0  0
  1  2  2  0
  2  3  1  0
  3  4  1  0
  4  5  1  0
  5  6  2  0
  5  7  1  0
  7  8  1  0
  8  9  1  0
  9 10  1  0
 10 11  1  0
 11 12  1  0
 12 13  2  0
 13 14  1  0
 14 15  2  0
 15 16  1  0
 16 17  2  0
 17 18  1  0
 18 19  1  0
 19  7  1  0
 18 10  2  0
 17 12  1  0
M  END
>  <zinc_id>  (1) 
ZINC000002200057

>  <smiles>  (1) 
C=CCNC(=S)N1CCc2[nH]c3ccccc3c2C1

$$$$
