
     RDKit          3D

 20 21  0  0  0  0  0  0  0  0999 V2000
    3.9787   -1.4968   -1.1661 C   0  0  0  0  0  0  0  0  0  0  0  0
    4.2824    0.0763   -1.5298 C   0  0  1  0  0  0  0  0  0  0  0  0
    2.9583    0.2318   -2.4816 C   0  0  0  0  0  0  0  0  0  0  0  0
    1.8358    0.2178   -1.5877 C   0  0  0  0  0  0  0  0  0  0  0  0
    2.2582    0.0235   -0.1833 C   0  0  2  0  0  0  0  0  0  0  0  0
    2.1469   -1.3513    0.3451 C   0  0  0  0  0  0  0  0  0  0  0  0
    1.3456    0.8949    0.6872 C   0  0  0  0  0  0  0  0  0  0  0  0
    0.0180    0.4246    0.4502 O   0  0  0  0  0  0  0  0  0  0  0  0
   -1.0961    0.9434    1.0415 C   0  0  0  0  0  0  0  0  0  0  0  0
   -0.9828    1.8951    1.8502 O   0  0  0  0  0  0  0  0  0  0  0  0
   -2.4179    0.3841    0.7268 C   0  0  0  0  0  0  0  0  0  0  0  0
   -3.5805    0.8661    1.2924 C   0  0  0  0  0  0  0  0  0  0  0  0
   -4.7993    0.3073    0.9650 C   0  0  0  0  0  0  0  0  0  0  0  0
   -4.9200   -0.7406    0.0741 C   0  0  0  0  0  0  0  0  0  0  0  0
   -6.2055   -1.2828   -0.2304 N   0  0  0  0  0  0  0  0  0  0  0  0
   -3.7656   -1.2268   -0.4941 C   0  0  0  0  0  0  0  0  0  0  0  0
   -2.5497   -0.6661   -0.1647 C   0  0  0  0  0  0  0  0  0  0  0  0
    3.5759    0.6655   -0.1749 C   0  0  0  0  0  0  0  0  0  0  0  0
    4.4631    0.2677    0.9548 C   0  0  0  0  0  0  0  0  0  0  0  0
    3.4546    2.1449   -0.3748 C   0  0  0  0  0  0  0  0  0  0  0  0
  2  1  1  1
  2  3  1  0
  3  4  1  0
  4  5  1  0
  5  6  1  1
  5  7  1  0
  7  8  1  0
  8  9  1  0
  9 10  2  0
  9 11  1  0
 11 12  2  0
 12 13  1  0
 13 14  2  0
 14 15  1  0
 14 16  1  0
 16 17  2  0
  5 18  1  0
 18 19  1  0
 18 20  1  0
 18  2  1  0
 17 11  1  0
M  END
>  <zinc_id>  (1) 
ZINC000003846131

>  <smiles>  (1) 
C[C@H]1CC[C@](C)(COC(=O)c2ccc(N)cc2)C1(C)C

$$$$
