
     RDKit          3D

 19 19  0  0  0  0  0  0  0  0999 V2000
    5.4423    1.1868   -2.7283 C   0  0  0  0  0  0  0  0  0  0  0  0
    5.9226   -0.0731   -2.0319 C   0  0  0  0  0  0  0  0  0  0  0  0
    5.5230   -0.1289   -0.5932 C   0  0  0  0  0  0  0  0  0  0  0  0
    4.0317   -0.0922   -0.4383 C   0  0  0  0  0  0  0  0  0  0  0  0
    3.3315   -0.0225   -1.4785 O   0  0  0  0  0  0  0  0  0  0  0  0
    3.3942   -0.1321    0.8077 N   0  0  0  0  0  0  0  0  0  0  0  0
    1.9800   -0.0991    0.9933 C   0  0  0  0  0  0  0  0  0  0  0  0
    1.3975   -0.1539    2.5207 S   0  0  0  0  0  0  0  0  0  0  0  0
    1.0739   -0.0213   -0.0924 N   0  0  0  0  0  0  0  0  0  0  0  0
   -0.3150    0.0095    0.1237 C   0  0  0  0  0  0  0  0  0  0  0  0
   -1.1704    0.0858   -0.9627 C   0  0  0  0  0  0  0  0  0  0  0  0
   -2.5433    0.1203   -0.8345 C   0  0  0  0  0  0  0  0  0  0  0  0
   -3.1180    0.0787    0.4150 C   0  0  0  0  0  0  0  0  0  0  0  0
   -4.5611    0.1126    0.6006 C   0  0  0  0  0  0  0  0  0  0  0  0
   -5.0995    0.0764    1.7113 O   0  0  0  0  0  0  0  0  0  0  0  0
   -5.3619    0.1891   -0.5263 O   0  0  0  0  0  0  0  0  0  0  0  0
   -6.7674    0.2230   -0.3636 C   0  0  0  0  0  0  0  0  0  0  0  0
   -2.2664    0.0026    1.5004 C   0  0  0  0  0  0  0  0  0  0  0  0
   -0.8938   -0.0322    1.3771 C   0  0  0  0  0  0  0  0  0  0  0  0
  1  2  1  0
  2  3  1  0
  3  4  1  0
  4  5  2  0
  4  6  1  0
  6  7  1  0
  7  8  2  0
  7  9  1  0
  9 10  1  0
 10 11  2  0
 11 12  1  0
 12 13  2  0
 13 14  1  0
 14 15  2  0
 14 16  1  0
 16 17  1  0
 13 18  1  0
 18 19  2  0
 19 10  1  0
M  END
>  <zinc_id>  (1) 
ZINC000000342010

>  <smiles>  (1) 
CCCC(=O)NC(=S)Nc1ccc(C(=O)OC)cc1

$$$$
