
     RDKit          3D

 20 21  0  0  0  0  0  0  0  0999 V2000
   -2.1489    1.1160   -0.8090 C   0  0  0  0  0  0  0  0  0  0  0  0
   -3.1025   -0.1237   -1.3177 C   0  0  1  0  0  0  0  0  0  0  0  0
   -2.3657   -1.3016   -0.4491 C   0  0  0  0  0  0  0  0  0  0  0  0
   -1.8606   -0.7913    0.7752 C   0  0  0  0  0  0  0  0  0  0  0  0
   -0.5962   -1.2428    1.3000 N   0  0  0  0  0  0  0  0  0  0  0  0
    0.5417   -1.0007    0.5307 N   0  0  0  0  0  0  0  0  0  0  0  0
    1.6253   -0.2523    1.0665 C   0  0  0  0  0  0  0  0  0  0  0  0
    1.5757    0.2079    2.2533 O   0  0  0  0  0  0  0  0  0  0  0  0
    2.8047   -0.0075    0.2537 C   0  0  0  0  0  0  0  0  0  0  0  0
    3.8695    0.7220    0.7743 C   0  0  0  0  0  0  0  0  0  0  0  0
    5.0145    0.9775    0.0280 C   0  0  0  0  0  0  0  0  0  0  0  0
    5.0521    0.4773   -1.2522 C   0  0  0  0  0  0  0  0  0  0  0  0
    4.0028   -0.2473   -1.7795 C   0  0  0  0  0  0  0  0  0  0  0  0
    2.8781   -0.4920   -1.0310 C   0  0  0  0  0  0  0  0  0  0  0  0
    1.8226   -1.2072   -1.5300 F   0  0  0  0  0  0  0  0  0  0  0  0
   -2.4956    0.0975    1.4846 C   0  0  0  0  0  0  0  0  0  0  0  0
   -3.7861    0.6085    1.0234 C   0  0  0  0  0  0  0  0  0  0  0  0
   -4.8143    0.2093    2.0890 C   0  0  0  0  0  0  0  0  0  0  0  0
   -3.7136    2.1387    1.0901 C   0  0  0  0  0  0  0  0  0  0  0  0
   -4.3034    0.1118   -0.2359 C   0  0  0  0  0  0  0  0  0  0  0  0
  2  1  1  1
  2  3  1  0
  3  4  1  0
  4  5  1  0
  5  6  1  0
  6  7  1  0
  7  8  2  0
  7  9  1  0
  9 10  2  0
 10 11  1  0
 11 12  2  0
 12 13  1  0
 13 14  2  0
 14 15  1  0
  4 16  2  0
 16 17  1  0
 17 18  1  0
 17 19  1  0
 17 20  1  0
 20  2  1  0
 14  9  1  0
M  END
>  <zinc_id>  (1) 
ZINC000003304260

>  <smiles>  (1) 
C[C@H]1CC(NNC(=O)c2ccccc2F)=CC(C)(C)C1

$$$$
