
     RDKit          3D

 18 19  0  0  0  0  0  0  0  0999 V2000
    5.4899   -1.7988   -0.4349 C   0  0  0  0  0  0  0  0  0  0  0  0
    4.1126   -1.2897   -0.1917 C   0  0  0  0  0  0  0  0  0  0  0  0
    3.0249   -1.7335   -0.9152 C   0  0  0  0  0  0  0  0  0  0  0  0
    1.7511   -1.2491   -0.6757 C   0  0  0  0  0  0  0  0  0  0  0  0
    1.5106   -0.2995    0.2985 C   0  0  0  0  0  0  0  0  0  0  0  0
    0.1275    0.1988    0.5287 C   0  0  0  0  0  0  0  0  0  0  0  0
   -0.1571    1.4181   -0.3484 C   0  0  0  0  0  0  0  0  0  0  0  0
   -1.5181    1.8248   -0.0526 N   0  0  0  0  0  0  0  0  0  0  0  0
   -2.5838    0.9097   -0.2821 C   0  0  0  0  0  0  0  0  0  0  0  0
   -2.3334   -0.3184   -0.7676 N   0  0  0  0  0  0  0  0  0  0  0  0
   -3.3622   -1.1548   -0.9716 C   0  0  0  0  0  0  0  0  0  0  0  0
   -4.6652   -0.8261   -0.7110 C   0  0  0  0  0  0  0  0  0  0  0  0
   -4.9112    0.4363   -0.2132 C   0  0  0  0  0  0  0  0  0  0  0  0
   -3.8808    1.3100    0.0046 C   0  0  0  0  0  0  0  0  0  0  0  0
   -4.0956    2.6188    0.5165 N   0  0  0  0  0  0  0  0  0  0  0  0
    2.5993    0.1450    1.0229 C   0  0  0  0  0  0  0  0  0  0  0  0
    3.8740   -0.3423    0.7804 C   0  0  0  0  0  0  0  0  0  0  0  0
    5.0173    0.1507    1.5697 C   0  0  0  0  0  0  0  0  0  0  0  0
  1  2  1  0
  2  3  2  0
  3  4  1  0
  4  5  2  0
  5  6  1  0
  6  7  1  0
  7  8  1  0
  8  9  1  0
  9 10  2  0
 10 11  1  0
 11 12  2  0
 12 13  1  0
 13 14  2  0
 14 15  1  0
  5 16  1  0
 16 17  2  0
 17 18  1  0
 17  2  1  0
 14  9  1  0
M  END
>  <zinc_id>  (1) 
ZINC000003631036

>  <smiles>  (1) 
Cc1ccc(CCNc2ncccc2N)cc1C

$$$$
