
     RDKit          3D

 21 23  0  0  0  0  0  0  0  0999 V2000
    3.1514   -3.0156    0.7489 C   0  0  0  0  0  0  0  0  0  0  0  0
    2.2324   -2.0515    0.5683 C   0  0  0  0  0  0  0  0  0  0  0  0
    0.9315   -2.4677    0.0086 C   0  0  0  0  0  0  0  0  0  0  0  0
    0.5861   -1.8057   -1.2901 C   0  0  0  0  0  0  0  0  0  0  0  0
    0.5469   -0.3259   -1.0219 C   0  0  0  0  0  0  0  0  0  0  0  0
    1.4406    0.5775   -1.3409 O   0  0  0  0  0  0  0  0  0  0  0  0
    1.0372    1.7709   -0.9288 C   0  0  0  0  0  0  0  0  0  0  0  0
    1.6234    3.0116   -1.0297 C   0  0  0  0  0  0  0  0  0  0  0  0
    0.9541    4.1143   -0.4927 C   0  0  0  0  0  0  0  0  0  0  0  0
   -0.2663    3.9443    0.1212 C   0  0  0  0  0  0  0  0  0  0  0  0
   -0.8701    2.7091    0.2321 C   0  0  0  0  0  0  0  0  0  0  0  0
   -0.1685    1.6442   -0.3155 C   0  0  0  0  0  0  0  0  0  0  0  0
   -0.4933    0.3103   -0.3678 C   0  0  0  0  0  0  0  0  0  0  0  0
   -1.6884   -0.3518    0.1495 C   0  0  0  0  0  0  0  0  0  0  0  0
   -2.7396    0.2545    0.8039 C   0  0  0  0  0  0  0  0  0  0  0  0
   -3.6813   -0.7252    1.1346 C   0  0  0  0  0  0  0  0  0  0  0  0
   -3.1345   -1.8946    0.6510 C   0  0  0  0  0  0  0  0  0  0  0  0
   -3.7279   -3.2501    0.7353 C   0  0  0  0  0  0  0  0  0  0  0  0
   -1.9806   -1.6245    0.0895 O   0  0  0  0  0  0  0  0  0  0  0  0
    2.5234   -0.6961    0.9095 N   0  0  0  0  0  0  0  0  0  0  0  0
    3.7234   -0.1280    0.6351 O   0  0  0  0  0  0  0  0  0  0  0  0
  1  2  2  0
  2  3  1  0
  3  4  1  0
  4  5  1  0
  5  6  1  0
  6  7  1  0
  7  8  2  0
  8  9  1  0
  9 10  2  0
 10 11  1  0
 11 12  2  0
 12 13  1  0
 13 14  1  0
 14 15  2  0
 15 16  1  0
 16 17  2  0
 17 18  1  0
 17 19  1  0
  2 20  1  0
 20 21  1  0
 13  5  2  0
 19 14  1  0
 12  7  1  0
M  END
>  <zinc_id>  (1) 
ZINC000002292290

>  <smiles>  (1) 
C=C(CCc1oc2ccccc2c1-c1ccc(C)o1)NO

$$$$
