
     RDKit          3D

 19 20  0  0  0  0  0  0  0  0999 V2000
   -6.2520    0.6914    0.3799 C   0  0  0  0  0  0  0  0  0  0  0  0
   -4.8030    0.3979    0.1918 C   0  0  0  0  0  0  0  0  0  0  0  0
   -3.9078    0.9871    1.0626 C   0  0  0  0  0  0  0  0  0  0  0  0
   -2.5598    0.7194    0.8944 C   0  0  0  0  0  0  0  0  0  0  0  0
   -2.0853   -0.1037   -0.0984 C   0  0  0  0  0  0  0  0  0  0  0  0
   -0.6913   -0.3319   -0.2100 N   0  0  0  0  0  0  0  0  0  0  0  0
    0.1914    0.2939    0.7060 C   0  0  0  0  0  0  0  0  0  0  0  0
   -0.2812    1.0399    1.6005 O   0  0  0  0  0  0  0  0  0  0  0  0
    1.6246    0.0618    0.5944 C   0  0  0  0  0  0  0  0  0  0  0  0
    2.1211   -0.7533   -0.3853 C   0  0  0  0  0  0  0  0  0  0  0  0
    3.4758   -0.9784   -0.4983 C   0  0  0  0  0  0  0  0  0  0  0  0
    4.3465   -0.3687    0.3956 C   0  0  0  0  0  0  0  0  0  0  0  0
    5.7961   -0.6452    0.2290 C   0  0  0  0  0  0  0  0  0  0  0  0
    6.5550    0.5352   -0.8579 Cl  0  0  0  0  0  0  0  0  0  0  0  0
    3.8352    0.4480    1.3755 C   0  0  0  0  0  0  0  0  0  0  0  0
    2.4854    0.6628    1.4759 C   0  0  0  0  0  0  0  0  0  0  0  0
   -2.9838   -0.6909   -0.9670 C   0  0  0  0  0  0  0  0  0  0  0  0
   -2.5158   -1.5252   -1.9750 O   0  0  0  0  0  0  0  0  0  0  0  0
   -4.3510   -0.4401   -0.8230 C   0  0  0  0  0  0  0  0  0  0  0  0
  1  2  1  0
  2  3  2  0
  3  4  1  0
  4  5  2  0
  5  6  1  0
  6  7  1  0
  7  8  2  0
  7  9  1  0
  9 10  2  0
 10 11  1  0
 11 12  2  0
 12 13  1  0
 13 14  1  0
 12 15  1  0
 15 16  2  0
  5 17  1  0
 17 18  1  0
 17 19  2  0
 19  2  1  0
 16  9  1  0
M  END
>  <zinc_id>  (1) 
ZINC000000152683

>  <smiles>  (1) 
Cc1ccc(NC(=O)c2ccc(CCl)cc2)c(O)c1

$$$$
