
     RDKit          3D

 22 23  0  0  0  0  0  0  0  0999 V2000
    5.4757    1.8716    0.2246 C   0  0  0  0  0  0  0  0  0  0  0  0
    4.9240    0.6291   -0.1716 O   0  0  0  0  0  0  0  0  0  0  0  0
    3.5447    0.5016   -0.1490 C   0  0  0  0  0  0  0  0  0  0  0  0
    2.6990    1.5277    0.2406 C   0  0  0  0  0  0  0  0  0  0  0  0
    1.3141    1.3364    0.2420 C   0  0  0  0  0  0  0  0  0  0  0  0
    0.7857    0.1273   -0.1439 C   0  0  0  0  0  0  0  0  0  0  0  0
   -0.6410   -0.1357   -0.1631 C   0  0  0  0  0  0  0  0  0  0  0  0
   -1.0775   -1.2506   -0.5443 O   0  0  0  0  0  0  0  0  0  0  0  0
   -1.6141    0.8215    0.2367 N   0  0  0  0  0  0  0  0  0  0  0  0
   -3.0083    0.5429    0.2106 C   0  0  0  0  0  0  0  0  0  0  0  0
   -3.6485   -0.0041    1.3100 C   0  0  0  0  0  0  0  0  0  0  0  0
   -2.8406   -0.2908    2.5129 C   0  0  0  0  0  0  0  0  0  0  0  0
   -5.0091   -0.2802    1.2973 C   0  0  0  0  0  0  0  0  0  0  0  0
   -5.7557   -0.0099    0.1720 C   0  0  0  0  0  0  0  0  0  0  0  0
   -5.1456    0.5309   -0.9275 C   0  0  0  0  0  0  0  0  0  0  0  0
   -3.7839    0.8015   -0.8993 C   0  0  0  0  0  0  0  0  0  0  0  0
   -3.0870    1.3910   -2.0797 C   0  0  0  0  0  0  0  0  0  0  0  0
    1.6510   -0.8699   -0.5247 C   0  0  0  0  0  0  0  0  0  0  0  0
    3.0220   -0.7182   -0.5388 C   0  0  0  0  0  0  0  0  0  0  0  0
    3.8406   -1.7993   -0.9456 N   0  0  0  0  0  4  0  0  0  0  0  0
    4.9303   -1.6355   -1.5227 O   0  0  0  0  0  0  0  0  0  0  0  0
    3.4241   -3.0872   -0.6977 O   0  0  0  0  0  1  0  0  0  0  0  0
  1  2  1  0
  2  3  1  0
  3  4  2  0
  4  5  1  0
  5  6  2  0
  6  7  1  0
  7  8  2  0
  7  9  1  0
  9 10  1  0
 10 11  2  0
 11 12  1  0
 11 13  1  0
 13 14  2  0
 14 15  1  0
 15 16  2  0
 16 17  1  0
  6 18  1  0
 18 19  2  0
 19 20  1  0
 20 21  2  0
 20 22  1  0
 19  3  1  0
 16 10  1  0
M  CHG  2  20   1  22  -1
M  END
>  <zinc_id>  (1) 
ZINC000000440469

>  <smiles>  (1) 
COc1ccc(C(=O)Nc2c(C)cccc2C)cc1[N+](=O)[O-]

$$$$
