
     RDKit          3D

 19 20  0  0  0  0  0  0  0  0999 V2000
    3.7335   -1.6337    0.3627 C   0  0  0  0  0  0  0  0  0  0  0  0
    4.0870   -0.3826   -0.4146 C   0  0  0  0  0  0  0  0  0  0  0  0
    4.8001   -0.7653   -1.6931 C   0  0  0  0  0  0  0  0  0  0  0  0
    4.9478    0.4731    0.4936 C   0  0  0  0  0  0  0  0  0  0  0  0
    2.8903    0.3224   -0.7587 O   0  0  0  0  0  0  0  0  0  0  0  0
    2.0207    0.7925    0.2125 C   0  0  0  0  0  0  0  0  0  0  0  0
    2.3420    0.5649    1.4235 O   0  0  0  0  0  0  0  0  0  0  0  0
    0.8127    1.5026   -0.1046 N   0  0  0  0  0  0  0  0  0  0  0  0
    0.0034    1.9311    1.0467 C   0  0  0  0  0  0  0  0  0  0  0  0
   -0.3508    0.6235    1.7661 C   0  0  0  0  0  0  0  0  0  0  0  0
   -1.1061   -0.1865    0.7802 C   0  0  0  0  0  0  0  0  0  0  0  0
   -0.6163   -1.2568    0.0823 C   0  0  0  0  0  0  0  0  0  0  0  0
   -1.5971   -1.7142   -0.7006 N   0  0  0  0  0  0  0  0  0  0  0  0
   -2.6865   -0.9595   -0.5114 C   0  0  0  0  0  0  0  0  0  0  0  0
   -3.9507   -1.0331   -1.0875 C   0  0  0  0  0  0  0  0  0  0  0  0
   -4.9015   -0.1150   -0.7045 C   0  0  0  0  0  0  0  0  0  0  0  0
   -4.6216    0.8611    0.2278 C   0  0  0  0  0  0  0  0  0  0  0  0
   -3.3780    0.9570    0.8143 C   0  0  0  0  0  0  0  0  0  0  0  0
   -2.4287    0.0185    0.4136 C   0  0  0  0  0  0  0  0  0  0  0  0
  1  2  1  0
  2  3  1  0
  2  4  1  0
  2  5  1  0
  5  6  1  0
  6  7  2  0
  6  8  1  0
  8  9  1  0
  9 10  1  0
 10 11  1  0
 11 12  2  0
 12 13  1  0
 13 14  1  0
 14 15  2  0
 15 16  1  0
 16 17  2  0
 17 18  1  0
 18 19  2  0
 19 11  1  0
 19 14  1  0
M  END
>  <zinc_id>  (1) 
ZINC000000063026

>  <smiles>  (1) 
CC(C)(C)OC(=O)NCCc1c[nH]c2ccccc12

$$$$
