
     RDKit          3D

 20 21  0  0  0  0  0  0  0  0999 V2000
    2.2961    2.9603   -1.6853 C   0  0  0  0  0  0  0  0  0  0  0  0
    2.4716    1.7081   -0.9257 C   0  0  0  0  0  0  0  0  0  0  0  0
    3.7404    1.3533   -0.5161 C   0  0  0  0  0  0  0  0  0  0  0  0
    3.9399    0.1970    0.1913 C   0  0  0  0  0  0  0  0  0  0  0  0
    5.3460   -0.1098    0.5947 C   0  0  0  0  0  0  0  0  0  0  0  0
    2.8925   -0.6220    0.5028 C   0  0  0  0  0  0  0  0  0  0  0  0
    3.2032   -1.8570    1.2740 C   0  0  0  0  0  0  0  0  0  0  0  0
    1.6149   -0.2997    0.1109 C   0  0  0  0  0  0  0  0  0  0  0  0
    0.5989   -1.1679    0.4561 O   0  0  0  0  0  0  0  0  0  0  0  0
   -0.7370   -0.9273    0.1026 C   0  0  0  0  0  0  0  0  0  0  0  0
   -1.2214   -1.4081   -1.0913 C   0  0  0  0  0  0  0  0  0  0  0  0
   -2.5213   -1.2094   -1.5018 C   0  0  0  0  0  0  0  0  0  0  0  0
   -3.0500   -1.6934   -2.7284 N   0  0  0  0  0  0  0  0  0  0  0  0
   -3.3329   -0.4937   -0.6481 C   0  0  0  0  0  0  0  0  0  0  0  0
   -2.8975    0.0110    0.5611 C   0  0  0  0  0  0  0  0  0  0  0  0
   -3.7916    0.7402    1.3904 N   0  0  0  0  0  4  0  0  0  0  0  0
   -4.9572    0.9083    1.0035 O   0  0  0  0  0  0  0  0  0  0  0  0
   -3.4313    1.2676    2.5970 O   0  0  0  0  0  1  0  0  0  0  0  0
   -1.5927   -0.2216    0.9110 C   0  0  0  0  0  0  0  0  0  0  0  0
    1.4294    0.8641   -0.5987 C   0  0  0  0  0  0  0  0  0  0  0  0
  1  2  1  0
  2  3  2  0
  3  4  1  0
  4  5  1  0
  4  6  2  0
  6  7  1  0
  6  8  1  0
  8  9  1  0
  9 10  1  0
 10 11  2  0
 11 12  1  0
 12 13  1  0
 12 14  2  0
 14 15  1  0
 15 16  1  0
 16 17  2  0
 16 18  1  0
 15 19  2  0
  8 20  2  0
 20  2  1  0
 19 10  1  0
M  CHG  2  16   1  18  -1
M  END
>  <zinc_id>  (1) 
ZINC000002549466

>  <smiles>  (1) 
Cc1cc(C)c(C)c(Oc2cc(N)cc([N+](=O)[O-])c2)c1

$$$$
