
     RDKit          3D

 21 23  0  0  0  0  0  0  0  0999 V2000
    6.1211    2.2386    0.0435 C   0  0  0  0  0  0  0  0  0  0  0  0
    4.7103    1.8097    0.1058 C   0  0  0  0  0  0  0  0  0  0  0  0
    4.3678    0.5711   -0.3911 C   0  0  0  0  0  0  0  0  0  0  0  0
    3.0546    0.1888   -0.3254 C   0  0  0  0  0  0  0  0  0  0  0  0
    2.0673    1.0127    0.2255 C   0  0  0  0  0  0  0  0  0  0  0  0
    0.7487    0.4769    0.2229 N   0  0  0  0  0  0  0  0  0  0  0  0
    0.4179   -0.7896   -0.2887 C   0  0  0  0  0  0  0  0  0  0  0  0
    1.3767   -1.4529   -0.7622 O   0  0  0  0  0  0  0  0  0  0  0  0
   -0.9690   -1.3298   -0.2809 C   0  0  0  0  0  0  0  0  0  0  0  0
   -1.2403   -2.5668   -0.7901 C   0  0  0  0  0  0  0  0  0  0  0  0
   -0.3307   -3.4955   -1.3744 N   0  0  0  0  0  0  0  0  0  0  0  0
   -2.9172   -2.7330   -0.5607 S   0  0  0  0  0  0  0  0  0  0  0  0
   -3.2224   -1.2246    0.1756 C   0  0  0  0  0  0  0  0  0  0  0  0
   -2.0019   -0.6330    0.2211 C   0  0  0  0  0  0  0  0  0  0  0  0
   -1.8491    0.7545    0.8197 C   0  0  0  0  0  0  0  0  0  0  0  0
   -3.0074    1.6275    0.4653 C   0  0  0  0  0  0  0  0  0  0  0  0
   -3.8262    1.1456   -0.6814 C   0  0  0  0  0  0  0  0  0  0  0  0
   -5.0397    0.3530   -0.2565 C   0  0  0  0  0  0  0  0  0  0  0  0
   -4.5940   -0.8036    0.6147 C   0  0  0  0  0  0  0  0  0  0  0  0
    2.3986    2.2320    0.7158 C   0  0  0  0  0  0  0  0  0  0  0  0
    3.7347    2.6184    0.6478 C   0  0  0  0  0  0  0  0  0  0  0  0
  1  2  1  0
  2  3  2  0
  3  4  1  0
  4  5  2  0
  5  6  1  0
  6  7  1  0
  7  8  2  0
  7  9  1  0
  9 10  2  0
 10 11  1  0
 10 12  1  0
 12 13  1  0
 13 14  2  0
 14 15  1  0
 15 16  1  0
 16 17  1  0
 17 18  1  0
 18 19  1  0
  5 20  1  0
 20 21  2  0
 21  2  1  0
 14  9  1  0
 19 13  1  0
M  END
>  <zinc_id>  (1) 
ZINC000000282372

>  <smiles>  (1) 
Cc1ccc(NC(=O)c2c(N)sc3c2CCCCC3)cc1

$$$$
