
     RDKit          3D

 22 25  0  0  0  0  0  0  0  0999 V2000
    5.0115    1.2721   -0.1482 C   0  0  0  0  0  0  0  0  0  0  0  0
    4.4852    0.0306    0.4759 C   0  0  0  0  0  0  0  0  0  0  0  0
    4.9281   -0.6626    1.5289 N   0  0  0  0  0  0  0  0  0  0  0  0
    4.1466   -1.7169    1.7393 C   0  0  0  0  0  0  0  0  0  0  0  0
    3.1957   -1.6910    0.8060 N   0  0  0  0  0  0  0  0  0  0  0  0
    3.3674   -0.6309    0.0074 C   0  0  0  0  0  0  0  0  0  0  0  0
    2.4997   -0.3233   -1.1294 C   0  0  0  0  0  0  0  0  0  0  0  0
    1.5640    0.9581   -0.7177 C   0  0  1  0  0  0  0  0  0  0  0  0
    0.8115    0.9706   -2.2181 C   0  0  0  0  0  0  0  0  0  0  0  0
   -0.3189    1.9670   -2.0527 C   0  0  0  0  0  0  0  0  0  0  0  0
   -1.3867    1.2632   -1.2752 C   0  0  0  0  0  0  0  0  0  0  0  0
   -2.7041    1.3164   -1.2985 N   0  0  0  0  0  0  0  0  0  0  0  0
   -3.1709    0.4426   -0.3582 C   0  0  0  0  0  0  0  0  0  0  0  0
   -4.4361    0.0873    0.0519 C   0  0  0  0  0  0  0  0  0  0  0  0
   -5.4838    0.6820   -0.5532 F   0  0  0  0  0  0  0  0  0  0  0  0
   -4.6769   -0.8399    1.0438 C   0  0  0  0  0  0  0  0  0  0  0  0
   -3.6065   -1.4421    1.6565 C   0  0  0  0  0  0  0  0  0  0  0  0
   -2.3330   -1.0943    1.2541 C   0  0  0  0  0  0  0  0  0  0  0  0
   -2.0921   -0.1658    0.2607 C   0  0  0  0  0  0  0  0  0  0  0  0
   -0.9565    0.3599   -0.3265 C   0  0  0  0  0  0  0  0  0  0  0  0
    0.4169    0.0684   -0.0477 C   0  0  0  0  0  0  0  0  0  0  0  0
    0.7386   -0.8511    0.6967 O   0  0  0  0  0  0  0  0  0  0  0  0
  1  2  1  0
  2  3  1  0
  3  4  1  0
  4  5  2  0
  5  6  1  0
  6  7  1  0
  8  7  1  6
  8  9  1  0
  9 10  1  0
 10 11  1  0
 11 12  1  0
 12 13  1  0
 13 14  2  0
 14 15  1  0
 14 16  1  0
 16 17  2  0
 17 18  1  0
 18 19  2  0
 19 20  1  0
 20 21  1  0
 21 22  2  0
  6  2  2  0
 21  8  1  0
 20 11  2  0
 19 13  1  0
M  END
>  <zinc_id>  (1) 
ZINC000000011293

>  <smiles>  (1) 
Cc1[nH]cnc1C[C@H]1CCc2[nH]c3c(F)cccc3c2C1=O

$$$$
