
     RDKit          3D

 21 23  0  0  0  0  0  0  0  0999 V2000
    4.4409    0.8168    0.5426 C   0  0  0  0  0  0  0  0  0  0  0  0
    3.0236    0.5203    0.1104 C   0  0  0  0  0  0  0  0  0  0  0  0
    2.6049   -0.7923   -0.0046 C   0  0  0  0  0  0  0  0  0  0  0  0
    3.6140   -1.8427    0.3138 C   0  0  0  0  0  0  0  0  0  0  0  0
    1.3120   -1.0577   -0.3988 C   0  0  0  0  0  0  0  0  0  0  0  0
    0.4183   -0.0452   -0.6846 C   0  0  0  0  0  0  0  0  0  0  0  0
    0.8290    1.2333   -0.5712 C   0  0  0  0  0  0  0  0  0  0  0  0
   -0.0241    2.4192   -0.8473 C   0  0  0  0  0  0  0  0  0  0  0  0
    2.1450    1.5332   -0.1697 C   0  0  0  0  0  0  0  0  0  0  0  0
    2.6005    2.8708   -0.0432 N   0  0  0  0  0  0  0  0  0  0  0  0
   -0.8981   -0.7395   -1.1091 C   0  0  2  0  0  0  0  0  0  0  0  0
   -2.0002   -0.0435   -0.2469 C   0  0  0  0  0  0  0  0  0  0  0  0
   -2.5310    1.0532   -0.8986 C   0  0  0  0  0  0  0  0  0  0  0  0
   -3.5198    1.7862   -0.2993 C   0  0  0  0  0  0  0  0  0  0  0  0
   -3.9446    1.3873    0.9458 C   0  0  0  0  0  0  0  0  0  0  0  0
   -3.4089    0.3192    1.5499 N   0  0  0  0  0  0  0  0  0  0  0  0
   -2.4364   -0.3881    0.9417 C   0  0  0  0  0  0  0  0  0  0  0  0
   -0.6671   -2.0437   -0.1617 C   0  0  0  0  0  0  0  0  0  0  0  0
   -1.6428   -3.0651   -0.5335 C   0  0  0  0  0  0  0  0  0  0  0  0
   -0.5886   -1.6419    1.2570 C   0  0  0  0  0  0  0  0  0  0  0  0
    0.6736   -2.2798   -0.5800 O   0  0  0  0  0  0  0  0  0  0  0  0
  1  2  1  0
  2  3  2  0
  3  4  1  0
  3  5  1  0
  5  6  2  0
  6  7  1  0
  7  8  1  0
  7  9  2  0
  9 10  1  0
  6 11  1  0
 11 12  1  1
 12 13  2  0
 13 14  1  0
 14 15  2  0
 15 16  1  0
 16 17  2  0
 11 18  1  0
 18 19  1  0
 18 20  1  0
 18 21  1  0
  9  2  1  0
 17 12  1  0
 21  5  1  0
M  END
>  <zinc_id>  (1) 
ZINC000000016008

>  <smiles>  (1) 
Cc1c(C)c2c(c(C)c1N)[C@H](c1cccnc1)C(C)(C)O2

$$$$
