
     RDKit          3D

 21 22  0  0  0  0  0  0  0  0999 V2000
    6.8260    0.5253    0.1811 C   0  0  0  0  0  0  0  0  0  0  0  0
    5.3709    0.2100    0.2141 C   0  0  0  0  0  0  0  0  0  0  0  0
    4.4912    1.1975   -0.1898 C   0  0  0  0  0  0  0  0  0  0  0  0
    3.1327    0.9314   -0.1690 C   0  0  0  0  0  0  0  0  0  0  0  0
    2.6364   -0.2816    0.2403 C   0  0  0  0  0  0  0  0  0  0  0  0
    1.2490   -0.5343    0.2540 N   0  0  0  0  0  0  0  0  0  0  0  0
    0.3306    0.4656   -0.1573 C   0  0  0  0  0  0  0  0  0  0  0  0
    0.7992    1.5702   -0.5287 O   0  0  0  0  0  0  0  0  0  0  0  0
   -1.1077    0.2767   -0.1696 C   0  0  0  0  0  0  0  0  0  0  0  0
   -1.6234   -0.9315    0.2393 C   0  0  0  0  0  0  0  0  0  0  0  0
   -2.9890   -1.1839    0.2532 C   0  0  0  0  0  0  0  0  0  0  0  0
   -3.8551   -0.1907   -0.1563 C   0  0  0  0  0  0  0  0  0  0  0  0
   -5.2450   -0.4197   -0.1525 N   0  0  0  0  0  4  0  0  0  0  0  0
   -5.9710    0.1263   -0.9850 O   0  0  0  0  0  0  0  0  0  0  0  0
   -5.7901   -1.2487    0.7757 O   0  0  0  0  0  1  0  0  0  0  0  0
   -3.3683    1.0246   -0.5694 C   0  0  0  0  0  0  0  0  0  0  0  0
   -4.2936    2.0883   -1.0075 C   0  0  0  0  0  0  0  0  0  0  0  0
   -2.0086    1.2391   -0.5699 C   0  0  0  0  0  0  0  0  0  0  0  0
    3.5016   -1.2696    0.6436 C   0  0  0  0  0  0  0  0  0  0  0  0
    3.0429   -2.6026    1.0980 C   0  0  0  0  0  0  0  0  0  0  0  0
    4.8714   -0.9923    0.6193 C   0  0  0  0  0  0  0  0  0  0  0  0
  1  2  1  0
  2  3  2  0
  3  4  1  0
  4  5  2  0
  5  6  1  0
  6  7  1  0
  7  8  2  0
  7  9  1  0
  9 10  2  0
 10 11  1  0
 11 12  2  0
 12 13  1  0
 13 14  2  0
 13 15  1  0
 12 16  1  0
 16 17  1  0
 16 18  2  0
  5 19  1  0
 19 20  1  0
 19 21  2  0
 21  2  1  0
 18  9  1  0
M  CHG  2  13   1  15  -1
M  END
>  <zinc_id>  (1) 
ZINC000003452729

>  <smiles>  (1) 
Cc1ccc(NC(=O)c2ccc([N+](=O)[O-])c(C)c2)c(C)c1

$$$$
