
     RDKit          3D

 20 23  0  0  0  0  0  0  0  0999 V2000
    5.9778   -1.3851   -0.1035 O   0  0  0  0  0  0  0  0  0  0  0  0
    4.6670   -0.9420   -0.0552 C   0  0  0  0  0  0  0  0  0  0  0  0
    3.6134   -1.8242   -0.1501 C   0  0  0  0  0  0  0  0  0  0  0  0
    2.2915   -1.3649   -0.1000 C   0  0  0  0  0  0  0  0  0  0  0  0
    2.0174   -0.0169    0.0456 C   0  0  0  0  0  0  0  0  0  0  0  0
    0.6828    0.4117    0.0924 N   0  0  0  0  0  0  0  0  0  0  0  0
   -0.4321   -0.4463    0.0006 C   0  0  0  0  0  0  0  0  0  0  0  0
   -0.2213   -1.7623   -0.1414 N   0  0  0  0  0  0  0  0  0  0  0  0
   -1.1554   -2.6870   -0.2406 C   0  0  0  0  0  0  0  0  0  0  0  0
   -2.4346   -2.2593   -0.1938 N   0  0  0  0  0  0  0  0  0  0  0  0
   -2.7151   -0.9308   -0.0505 C   0  0  0  0  0  0  0  0  0  0  0  0
   -4.1694   -0.0557    0.0446 S   0  0  0  0  0  0  0  0  0  0  0  0
   -3.5455    1.5196    0.2141 C   0  0  0  0  0  0  0  0  0  0  0  0
   -2.1959    1.3214    0.1920 C   0  0  0  0  0  0  0  0  0  0  0  0
   -1.7597    0.0388    0.0535 C   0  0  0  0  0  0  0  0  0  0  0  0
   -1.5890    2.7189    0.3422 C   0  0  0  0  0  0  0  0  0  0  0  0
   -2.6345    3.4522    1.1176 C   0  0  0  0  0  0  0  0  0  0  0  0
   -3.8915    2.9815    0.3721 C   0  0  0  0  0  0  0  0  0  0  0  0
    3.1005    0.8303    0.1367 C   0  0  0  0  0  0  0  0  0  0  0  0
    4.3936    0.4003    0.0898 C   0  0  0  0  0  0  0  0  0  0  0  0
  1  2  1  0
  2  3  2  0
  3  4  1  0
  4  5  2  0
  5  6  1  0
  6  7  1  0
  7  8  2  0
  8  9  1  0
  9 10  2  0
 10 11  1  0
 11 12  1  0
 12 13  1  0
 13 14  2  0
 14 15  1  0
 14 16  1  0
 16 17  1  0
 17 18  1  0
  5 19  1  0
 19 20  2  0
 20  2  1  0
 15  7  1  0
 15 11  2  0
 18 13  1  0
M  END
>  <zinc_id>  (1) 
ZINC000000250266

>  <smiles>  (1) 
Oc1ccc(Nc2ncnc3sc4c(c23)CCC4)cc1

$$$$
