
     RDKit          3D

 20 23  0  0  0  0  0  0  0  0999 V2000
    0.0186    1.2917   -2.3667 O   0  0  0  0  0  0  0  0  0  0  0  0
    0.2076    0.2058   -1.7361 C   0  0  0  0  0  0  0  0  0  0  0  0
    1.2277   -0.6068   -2.0279 N   0  0  0  0  0  0  0  0  0  0  0  0
    1.8002   -1.7136   -1.1067 C   0  0  1  0  0  0  0  0  0  0  0  0
    2.4280   -0.7808    0.0381 C   0  0  0  0  0  0  0  0  0  0  0  0
    1.7958    0.2575    0.5482 C   0  0  0  0  0  0  0  0  0  0  0  0
    2.3879    1.0230    1.5319 C   0  0  0  0  0  0  0  0  0  0  0  0
    3.6503    0.6716    1.9613 C   0  0  0  0  0  0  0  0  0  0  0  0
    4.2694   -0.3850    1.4283 N   0  0  0  0  0  0  0  0  0  0  0  0
    3.6800   -1.1216    0.4705 C   0  0  0  0  0  0  0  0  0  0  0  0
    0.5541   -2.1365   -0.3250 N   0  0  0  0  0  0  0  0  0  0  0  0
   -0.5071   -1.3261    0.0063 C   0  0  0  0  0  0  0  0  0  0  0  0
   -1.7938   -1.3918    1.1780 S   0  0  0  0  0  0  0  0  0  0  0  0
   -2.5745    0.0566    0.7989 C   0  0  0  0  0  0  0  0  0  0  0  0
   -1.8317    0.5640   -0.2214 C   0  0  0  0  0  0  0  0  0  0  0  0
   -0.7246   -0.1762   -0.6460 C   0  0  0  0  0  0  0  0  0  0  0  0
   -2.3632    1.8978   -0.7345 C   0  0  0  0  0  0  0  0  0  0  0  0
   -3.8238    1.7796   -1.0352 C   0  0  0  0  0  0  0  0  0  0  0  0
   -4.6084    1.0559    0.0168 C   0  0  0  0  0  0  0  0  0  0  0  0
   -3.7925    0.8348    1.2924 C   0  0  0  0  0  0  0  0  0  0  0  0
  1  2  2  0
  2  3  1  0
  3  4  1  0
  4  5  1  1
  5  6  2  0
  6  7  1  0
  7  8  2  0
  8  9  1  0
  9 10  2  0
  4 11  1  0
 11 12  1  0
 12 13  1  0
 13 14  1  0
 14 15  2  0
 15 16  1  0
 15 17  1  0
 17 18  1  0
 18 19  1  0
 19 20  1  0
 16  2  1  0
 10  5  1  0
 16 12  2  0
 20 14  1  0
M  END
>  <zinc_id>  (1) 
ZINC000000565682

>  <smiles>  (1) 
O=C1N[C@@H](c2cccnc2)Nc2sc3c(c21)CCCC3

$$$$
