
     RDKit          3D

 18 20  0  0  0  0  0  0  0  0999 V2000
    3.6915    0.0591    1.0984 C   0  0  0  0  0  0  0  0  0  0  0  0
    2.7325   -0.3376    0.2720 C   0  0  0  0  0  0  0  0  0  0  0  0
    1.4235   -0.3318    0.8290 N   0  0  0  0  0  0  0  0  0  0  0  0
    0.4918   -1.2132    0.3414 N   0  0  0  0  0  0  0  0  0  0  0  0
   -0.9086   -0.8848    0.2220 C   0  0  0  0  0  0  0  0  0  0  0  0
   -1.5217    0.2450    0.5356 N   0  0  0  0  0  0  0  0  0  0  0  0
   -2.8015    0.3651    0.3597 C   0  0  0  0  0  0  0  0  0  0  0  0
   -3.5767    1.5098    0.6509 C   0  0  0  0  0  0  0  0  0  0  0  0
   -4.9068    1.4950    0.4162 C   0  0  0  0  0  0  0  0  0  0  0  0
   -5.6206    0.4362   -0.0996 C   0  0  0  0  0  0  0  0  0  0  0  0
   -4.8606   -0.6958   -0.3887 C   0  0  0  0  0  0  0  0  0  0  0  0
   -3.4771   -0.7105   -0.1558 C   0  0  0  0  0  0  0  0  0  0  0  0
   -2.2027   -1.8395   -0.3551 S   0  0  0  0  0  0  0  0  0  0  0  0
    2.9156   -0.7683   -1.1296 C   0  0  0  0  0  0  0  0  0  0  0  0
    3.7459    0.2156   -1.9234 C   0  0  0  0  0  0  0  0  0  0  0  0
    4.2308    1.3496   -1.0484 C   0  0  0  0  0  0  0  0  0  0  0  0
    5.5048    0.9143   -0.3645 C   0  0  0  0  0  0  0  0  0  0  0  0
    5.1401    0.1918    0.9105 C   0  0  0  0  0  0  0  0  0  0  0  0
  1  2  2  0
  2  3  1  0
  3  4  1  0
  4  5  1  0
  5  6  2  0
  6  7  1  0
  7  8  2  0
  8  9  1  0
  9 10  2  0
 10 11  1  0
 11 12  2  0
 12 13  1  0
  2 14  1  0
 14 15  1  0
 15 16  1  0
 16 17  1  0
 17 18  1  0
 18  1  1  0
 13  5  1  0
 12  7  1  0
M  END
>  <zinc_id>  (1) 
ZINC000003182484

>  <smiles>  (1) 
C1=C(NNc2nc3ccccc3s2)CCCCC1

$$$$
