
     RDKit          3D

 20 22  0  0  0  0  0  0  0  0999 V2000
   -3.8668    2.4956   -0.2404 C   0  0  0  0  0  0  0  0  0  0  0  0
   -4.1403    1.3514   -1.1962 C   0  0  0  0  0  0  0  0  0  0  0  0
   -3.6066    0.1765   -0.6331 O   0  0  0  0  0  0  0  0  0  0  0  0
   -2.2542    0.0274   -0.3313 C   0  0  0  0  0  0  0  0  0  0  0  0
   -1.3273    1.0225   -0.5611 C   0  0  0  0  0  0  0  0  0  0  0  0
    0.0113    0.8379   -0.2477 C   0  0  0  0  0  0  0  0  0  0  0  0
    1.1097    1.6393   -0.3697 N   0  0  0  0  0  0  0  0  0  0  0  0
    2.1948    1.0046    0.0773 C   0  0  0  0  0  0  0  0  0  0  0  0
    3.5735    1.5372    0.1125 C   0  0  0  0  0  0  0  0  0  0  0  0
    3.7890    2.6860   -0.3059 O   0  0  0  0  0  0  0  0  0  0  0  0
    4.6067    0.7791    0.5994 O   0  0  0  0  0  0  0  0  0  0  0  0
    5.9621    1.2450    0.6570 C   0  0  0  0  0  0  0  0  0  0  0  0
    1.7708   -0.2385    0.4959 C   0  0  0  0  0  0  0  0  0  0  0  0
    0.4218   -0.3492    0.2981 C   0  0  0  0  0  0  0  0  0  0  0  0
   -0.5176   -1.3544    0.5297 C   0  0  0  0  0  0  0  0  0  0  0  0
   -0.0403   -2.5322    1.0839 C   0  0  0  0  0  0  0  0  0  0  0  0
   -0.9036   -3.5616    1.3387 C   0  0  0  0  0  0  0  0  0  0  0  0
   -2.2264   -3.3929    1.0345 C   0  0  0  0  0  0  0  0  0  0  0  0
   -2.7118   -2.2078    0.4760 C   0  0  0  0  0  0  0  0  0  0  0  0
   -1.8449   -1.1661    0.2169 C   0  0  0  0  0  0  0  0  0  0  0  0
  1  2  1  0
  2  3  1  0
  3  4  1  0
  4  5  2  0
  5  6  1  0
  6  7  1  0
  7  8  1  0
  8  9  1  0
  9 10  2  0
  9 11  1  0
 11 12  1  0
  8 13  2  0
 13 14  1  0
 14 15  1  0
 15 16  2  0
 16 17  1  0
 17 18  2  0
 18 19  1  0
 19 20  2  0
 20  4  1  0
 14  6  2  0
 20 15  1  0
M  END
>  <zinc_id>  (1) 
ZINC000004235099

>  <smiles>  (1) 
CCOc1cc2[nH]c(C(=O)OC)cc2c2ccccc12

$$$$
