
     RDKit          3D

 22 23  0  0  0  0  0  0  0  0999 V2000
    3.5229   -2.3599    0.2940 C   0  0  0  0  0  0  0  0  0  0  0  0
    3.1980   -1.2944    1.3404 C   0  0  0  0  0  0  0  0  0  0  0  0
    3.4465    0.0307    0.6737 C   0  0  0  0  0  0  0  0  0  0  0  0
    4.5767    0.7700    0.9496 C   0  0  0  0  0  0  0  0  0  0  0  0
    4.8008    1.9794    0.3377 C   0  0  0  0  0  0  0  0  0  0  0  0
    3.8700    2.4386   -0.5593 C   0  0  0  0  0  0  0  0  0  0  0  0
    2.7485    1.6847   -0.8206 C   0  0  0  0  0  0  0  0  0  0  0  0
    1.7146    2.1737   -1.8043 C   0  0  0  0  0  0  0  0  0  0  0  0
    2.4876    0.4634   -0.2251 C   0  0  0  0  0  0  0  0  0  0  0  0
    1.3077   -0.2678   -0.5316 N   0  0  0  0  0  0  0  0  0  0  0  0
    0.1274   -0.0427    0.2229 C   0  0  0  0  0  0  0  0  0  0  0  0
    0.1858    0.8108    1.1439 O   0  0  0  0  0  0  0  0  0  0  0  0
   -1.1365   -0.7264    0.0082 C   0  0  0  0  0  0  0  0  0  0  0  0
   -1.1485   -2.0782   -0.2641 C   0  0  0  0  0  0  0  0  0  0  0  0
   -2.3602   -2.7374   -0.4653 C   0  0  0  0  0  0  0  0  0  0  0  0
   -3.5610   -2.0694   -0.3996 C   0  0  0  0  0  0  0  0  0  0  0  0
   -3.5662   -0.7199   -0.1286 C   0  0  0  0  0  0  0  0  0  0  0  0
   -4.7732    0.0271   -0.0473 N   0  0  0  0  0  4  0  0  0  0  0  0
   -4.9359    1.0157    0.6890 O   0  0  0  0  0  0  0  0  0  0  0  0
   -5.8176   -0.3788   -0.8393 O   0  0  0  0  0  1  0  0  0  0  0  0
   -2.3568   -0.0904    0.0668 C   0  0  0  0  0  0  0  0  0  0  0  0
   -2.3308    1.3715    0.3589 C   0  0  0  0  0  0  0  0  0  0  0  0
  1  2  1  0
  2  3  1  0
  3  4  2  0
  4  5  1  0
  5  6  2  0
  6  7  1  0
  7  8  1  0
  7  9  2  0
  9 10  1  0
 10 11  1  0
 11 12  2  0
 11 13  1  0
 13 14  2  0
 14 15  1  0
 15 16  2  0
 16 17  1  0
 17 18  1  0
 18 19  2  0
 18 20  1  0
 17 21  2  0
 21 22  1  0
  9  3  1  0
 21 13  1  0
M  CHG  2  18   1  20  -1
M  END
>  <zinc_id>  (1) 
ZINC000000272680

>  <smiles>  (1) 
CCc1cccc(C)c1NC(=O)c1cccc([N+](=O)[O-])c1C

$$$$
