
     RDKit          3D

 20 21  0  0  0  0  0  0  0  0999 V2000
   -5.5960   -0.5445    1.4905 C   0  0  0  0  0  0  0  0  0  0  0  0
   -5.1771    0.3328    0.3440 C   0  0  0  0  0  0  0  0  0  0  0  0
   -5.5611    1.7810    0.5334 C   0  0  0  0  0  0  0  0  0  0  0  0
   -5.8016   -0.1696   -0.9686 C   0  0  0  0  0  0  0  0  0  0  0  0
   -3.7134    0.2859    0.1287 C   0  0  0  0  0  0  0  0  0  0  0  0
   -3.2135    0.1475   -1.1716 C   0  0  0  0  0  0  0  0  0  0  0  0
   -1.8743    0.1310   -1.4326 C   0  0  0  0  0  0  0  0  0  0  0  0
   -0.9925    0.2578   -0.3461 C   0  0  0  0  0  0  0  0  0  0  0  0
    0.4161    0.3645   -0.6178 C   0  0  0  0  0  0  0  0  0  0  0  0
    1.3305   -1.1769   -0.8281 S   0  0  0  0  0  0  0  0  0  0  0  0
    3.0164   -0.6597   -0.3655 C   0  0  0  0  0  0  0  0  0  0  0  0
    3.8444   -0.0890   -1.2265 N   0  0  0  0  0  0  0  0  0  0  0  0
    5.0570    0.3313   -0.7914 N   0  0  0  0  0  0  0  0  0  0  0  0
    5.4460    0.1851    0.4783 C   0  0  0  0  0  0  0  0  0  0  0  0
    6.5978    0.5983    0.8375 O   0  0  0  0  0  0  0  0  0  0  0  0
    4.6088   -0.3959    1.3473 N   0  0  0  0  0  0  0  0  0  0  0  0
    3.3947   -0.8183    0.9534 C   0  0  0  0  0  0  0  0  0  0  0  0
    2.5504   -1.3706    1.7216 O   0  0  0  0  0  0  0  0  0  0  0  0
   -1.4926    0.3974    0.9239 C   0  0  0  0  0  0  0  0  0  0  0  0
   -2.8399    0.4119    1.1664 C   0  0  0  0  0  0  0  0  0  0  0  0
  1  2  1  0
  2  3  1  0
  2  4  1  0
  2  5  1  0
  5  6  2  0
  6  7  1  0
  7  8  2  0
  8  9  1  0
  9 10  1  0
 10 11  1  0
 11 12  2  0
 12 13  1  0
 13 14  1  0
 14 15  2  0
 14 16  1  0
 16 17  1  0
 17 18  2  0
  8 19  1  0
 19 20  2  0
 20  5  1  0
 17 11  1  0
M  END
>  <zinc_id>  (1) 
ZINC000000148912

>  <smiles>  (1) 
CC(C)(C)c1ccc(CSc2n[nH]c(=O)[nH]c2=O)cc1

$$$$
