
     RDKit          3D

 20 21  0  0  0  0  0  0  0  0999 V2000
    6.0092    0.3026    0.5842 C   0  0  0  0  0  0  0  0  0  0  0  0
    4.5360    0.2348    0.4605 C   0  0  0  0  0  0  0  0  0  0  0  0
    3.7036    1.2746    0.8311 C   0  0  0  0  0  0  0  0  0  0  0  0
    2.3201    1.1551    0.6920 C   0  0  0  0  0  0  0  0  0  0  0  0
    1.4916    2.2014    1.0655 O   0  0  0  0  0  0  0  0  0  0  0  0
    1.7400    0.0153    0.1884 C   0  0  0  0  0  0  0  0  0  0  0  0
    0.3392   -0.0965    0.0514 N   0  0  0  0  0  0  0  0  0  0  0  0
   -0.3332   -1.2106   -0.4478 C   0  0  0  0  0  0  0  0  0  0  0  0
    0.4938   -2.5215   -0.9297 S   0  0  0  0  0  0  0  0  0  0  0  0
   -1.7430   -1.2102   -0.5396 N   0  0  0  0  0  0  0  0  0  0  0  0
   -2.5314   -0.0872   -0.1320 C   0  0  0  0  0  0  0  0  0  0  0  0
   -1.8792    0.9004    0.3142 O   0  0  0  0  0  0  0  0  0  0  0  0
   -3.9796   -0.0837   -0.2250 C   0  0  0  0  0  0  0  0  0  0  0  0
   -4.7807    0.9652    0.1516 C   0  0  0  0  0  0  0  0  0  0  0  0
   -6.0705    0.5533   -0.1009 C   0  0  0  0  0  0  0  0  0  0  0  0
   -5.9894   -0.7179   -0.6153 C   0  0  0  0  0  0  0  0  0  0  0  0
   -4.7061   -1.0684   -0.6750 O   0  0  0  0  0  0  0  0  0  0  0  0
    2.5681   -1.0198   -0.1806 C   0  0  0  0  0  0  0  0  0  0  0  0
    3.9577   -0.9111   -0.0456 C   0  0  0  0  0  0  0  0  0  0  0  0
    4.8537   -2.0372   -0.4473 C   0  0  0  0  0  0  0  0  0  0  0  0
  1  2  1  0
  2  3  2  0
  3  4  1  0
  4  5  1  0
  4  6  2  0
  6  7  1  0
  7  8  1  0
  8  9  2  0
  8 10  1  0
 10 11  1  0
 11 12  2  0
 11 13  1  0
 13 14  2  0
 14 15  1  0
 15 16  2  0
 16 17  1  0
  6 18  1  0
 18 19  2  0
 19 20  1  0
 19  2  1  0
 17 13  1  0
M  END
>  <zinc_id>  (1) 
ZINC000001181126

>  <smiles>  (1) 
Cc1cc(O)c(NC(=S)NC(=O)c2ccco2)cc1C

$$$$
