
     RDKit          3D

 20 21  0  0  0  0  0  0  0  0999 V2000
   -1.8534    0.3782    1.9447 C   0  0  0  0  0  0  0  0  0  0  0  0
   -1.8417    1.4432    0.8419 C   0  0  0  0  0  0  0  0  0  0  0  0
   -2.5652    0.8819   -0.3750 C   0  0  0  0  0  0  0  0  0  0  0  0
   -1.9700   -0.0285   -1.1987 C   0  0  0  0  0  0  0  0  0  0  0  0
   -0.5856   -0.5586   -1.0486 C   0  0  0  0  0  0  0  0  0  0  0  0
   -0.1967   -1.4600   -1.8148 O   0  0  0  0  0  0  0  0  0  0  0  0
    0.3355   -0.0948   -0.0733 N   0  0  0  0  0  0  0  0  0  0  0  0
    1.6649   -0.6760   -0.0045 C   0  0  0  0  0  0  0  0  0  0  0  0
    1.9852   -1.7127   -0.8920 C   0  0  0  0  0  0  0  0  0  0  0  0
    3.2266   -2.2820   -0.8418 C   0  0  0  0  0  0  0  0  0  0  0  0
    4.1677   -1.8533    0.0667 C   0  0  0  0  0  0  0  0  0  0  0  0
    3.8254   -0.8346    0.9246 C   0  0  0  0  0  0  0  0  0  0  0  0
    2.5662   -0.2204    0.9107 C   0  0  0  0  0  0  0  0  0  0  0  0
    2.2618    0.8551    1.8318 C   0  0  0  0  0  0  0  0  0  0  0  0
    3.2786    1.2677    2.7700 N   0  0  0  0  0  0  0  0  0  0  0  0
    1.1874    1.4809    1.9051 O   0  0  0  0  0  0  0  0  0  0  0  0
   -2.7402   -0.4609   -2.2534 C   0  0  0  0  0  0  0  0  0  0  0  0
   -4.2064    0.3720   -2.0816 S   0  0  0  0  0  0  0  0  0  0  0  0
   -3.8379    1.2577   -0.6832 C   0  0  0  0  0  0  0  0  0  0  0  0
   -4.7021    2.2451    0.0714 C   0  0  0  0  0  0  0  0  0  0  0  0
  1  2  1  0
  2  3  1  0
  3  4  1  0
  4  5  1  0
  5  6  2  0
  5  7  1  0
  7  8  1  0
  8  9  2  0
  9 10  1  0
 10 11  2  0
 11 12  1  0
 12 13  2  0
 13 14  1  0
 14 15  1  0
 14 16  2  0
  4 17  2  0
 17 18  1  0
 18 19  1  0
 19 20  1  0
 19  3  2  0
 13  8  1  0
M  END
>  <zinc_id>  (1) 
ZINC000001054102

>  <smiles>  (1) 
CCc1c(C(=O)Nc2ccccc2C(N)=O)csc1C

$$$$
