
     RDKit          3D

 18 19  0  0  0  0  0  0  0  0999 V2000
    5.7239   -1.0538    0.0899 C   0  0  0  0  0  0  0  0  0  0  0  0
    4.8570   -0.1008    0.4189 C   0  0  0  0  0  0  0  0  0  0  0  0
    5.2476    1.0022    1.3675 C   0  0  0  0  0  0  0  0  0  0  0  0
    3.5082   -0.1550   -0.1736 C   0  0  0  0  0  0  0  0  0  0  0  0
    2.3986   -0.2835    0.8476 C   0  0  0  0  0  0  0  0  0  0  0  0
    1.1051   -0.3224    0.0264 C   0  0  2  0  0  0  0  0  0  0  0  0
    1.1724   -1.5106   -0.8993 C   0  0  0  0  0  0  0  0  0  0  0  0
    0.9608    0.9117   -0.7160 N   0  0  0  0  0  0  0  0  0  0  0  0
   -0.3733    1.3722   -0.4897 C   0  0  0  0  0  0  0  0  0  0  0  0
   -0.8701    2.4903   -0.7503 O   0  0  0  0  0  0  0  0  0  0  0  0
   -1.0382    0.2541    0.1163 N   0  0  0  0  0  0  0  0  0  0  0  0
   -2.4117   -0.0576   -0.0137 C   0  0  0  0  0  0  0  0  0  0  0  0
   -3.2962    0.2581    0.9981 C   0  0  0  0  0  0  0  0  0  0  0  0
   -4.6476   -0.0213    0.9216 C   0  0  0  0  0  0  0  0  0  0  0  0
   -5.0937   -0.6486   -0.2433 C   0  0  0  0  0  0  0  0  0  0  0  0
   -4.2535   -0.9844   -1.2824 C   0  0  0  0  0  0  0  0  0  0  0  0
   -2.9232   -0.6821   -1.1477 C   0  0  0  0  0  0  0  0  0  0  0  0
   -0.0663   -0.4684    0.8508 N   0  0  0  0  0  0  0  0  0  0  0  0
  1  2  2  0
  2  3  1  0
  2  4  1  0
  4  5  1  0
  5  6  1  0
  6  7  1  6
  6  8  1  0
  8  9  1  0
  9 10  2  0
  9 11  1  0
 11 12  1  0
 12 13  2  0
 13 14  1  0
 14 15  2  0
 15 16  1  0
 16 17  2  0
 11 18  1  0
 18  6  1  0
 17 12  1  0
M  END
>  <zinc_id>  (1) 
ZINC000000099109

>  <smiles>  (1) 
C=C(C)CC[C@]1(C)NC(=O)N(c2ccccc2)N1

$$$$
