
     RDKit          3D

 21 23  0  0  0  0  0  0  0  0999 V2000
    5.7230    1.9598   -0.2178 C   0  0  0  0  0  0  0  0  0  0  0  0
    4.3543    2.2670   -0.4058 O   0  0  0  0  0  0  0  0  0  0  0  0
    3.3746    1.3034   -0.5856 C   0  0  0  0  0  0  0  0  0  0  0  0
    2.0541    1.6344   -0.7675 C   0  0  0  0  0  0  0  0  0  0  0  0
    1.0707    0.6966   -0.9464 C   0  0  0  0  0  0  0  0  0  0  0  0
    1.3341   -0.6335   -0.9556 C   0  0  0  0  0  0  0  0  0  0  0  0
    0.3568   -1.6768   -1.1352 C   0  0  0  0  0  0  0  0  0  0  0  0
    0.8048   -2.8805   -1.0629 O   0  0  0  0  0  0  0  0  0  0  0  0
   -1.0390   -1.5359   -1.3826 C   0  0  0  0  0  0  0  0  0  0  0  0
   -1.8534   -1.1971   -0.1950 N   0  0  0  0  0  4  0  0  0  0  0  0
   -2.2024   -2.1600    0.6673 C   0  0  0  0  0  0  0  0  0  0  0  0
   -1.8323   -3.5614    0.6195 N   0  0  0  0  0  0  0  0  0  0  0  0
   -3.1669   -1.3503    1.8094 S   0  0  0  0  0  0  0  0  0  0  0  0
   -3.0893    0.2086    1.1350 C   0  0  0  0  0  0  0  0  0  0  0  0
   -2.3027    0.0178    0.0349 C   0  0  0  0  0  0  0  0  0  0  0  0
   -2.1349    1.3107   -0.7553 C   0  0  0  0  0  0  0  0  0  0  0  0
   -1.6274    2.4047    0.1696 C   0  0  0  0  0  0  0  0  0  0  0  0
   -2.5618    2.6472    1.3340 C   0  0  0  0  0  0  0  0  0  0  0  0
   -3.6348    1.5858    1.4423 C   0  0  0  0  0  0  0  0  0  0  0  0
    2.6960   -0.9866   -0.7671 C   0  0  0  0  0  0  0  0  0  0  0  0
    3.6764   -0.0539   -0.5896 C   0  0  0  0  0  0  0  0  0  0  0  0
  1  2  1  0
  2  3  1  0
  3  4  2  0
  4  5  1  0
  5  6  2  0
  6  7  1  0
  7  8  2  0
  7  9  1  0
  9 10  1  0
 10 11  2  0
 11 12  1  0
 11 13  1  0
 13 14  1  0
 14 15  2  0
 15 16  1  0
 16 17  1  0
 17 18  1  0
 18 19  1  0
  6 20  1  0
 20 21  2  0
 21  3  1  0
 15 10  1  0
 19 14  1  0
M  CHG  1  10   1
M  END
>  <zinc_id>  (1) 
ZINC000001883733

>  <smiles>  (1) 
COc1ccc(C(=O)C[n+]2c(N)sc3c2CCCC3)cc1

$$$$
