
     RDKit          3D

 20 22  0  0  0  0  0  0  0  0999 V2000
    6.3014   -0.2863   -0.0561 C   0  0  0  0  0  0  0  0  0  0  0  0
    5.6213    0.8134    0.3020 C   0  0  0  0  0  0  0  0  0  0  0  0
    4.9803    0.8894    1.6406 C   0  0  0  0  0  0  0  0  0  0  0  0
    3.5485    1.0743    1.5050 N   0  0  0  0  0  0  0  0  0  0  0  0
    2.7989    0.0522    0.7968 C   0  0  0  0  0  0  0  0  0  0  0  0
    1.4985    0.0215    0.5606 N   0  0  0  0  0  0  0  0  0  0  0  0
    0.9883   -0.9802   -0.0957 C   0  0  0  0  0  0  0  0  0  0  0  0
   -0.4714   -1.0512   -0.3817 C   0  0  0  0  0  0  0  0  0  0  0  0
   -1.0673   -2.0778   -1.0666 C   0  0  0  0  0  0  0  0  0  0  0  0
   -2.3728   -1.8028   -1.1296 N   0  0  0  0  0  0  0  0  0  0  0  0
   -2.6376   -0.6385   -0.5111 C   0  0  0  0  0  0  0  0  0  0  0  0
   -3.8281    0.0579   -0.3147 C   0  0  0  0  0  0  0  0  0  0  0  0
   -3.8270    1.2513    0.3651 C   0  0  0  0  0  0  0  0  0  0  0  0
   -5.0202    1.9663    0.5716 O   0  0  0  0  0  0  0  0  0  0  0  0
   -6.2234    1.4286    0.0630 C   0  0  0  0  0  0  0  0  0  0  0  0
   -2.6288    1.7310    0.8398 C   0  0  0  0  0  0  0  0  0  0  0  0
   -1.4256    1.0457    0.6519 C   0  0  0  0  0  0  0  0  0  0  0  0
   -1.4508   -0.1479   -0.0320 C   0  0  0  0  0  0  0  0  0  0  0  0
    1.8594   -1.9600   -0.5070 C   0  0  0  0  0  0  0  0  0  0  0  0
    3.3562   -1.3871    0.0711 S   0  0  0  0  0  0  0  0  0  0  0  0
  1  2  2  0
  2  3  1  0
  3  4  1  0
  4  5  1  0
  5  6  2  0
  6  7  1  0
  7  8  1  0
  8  9  2  0
  9 10  1  0
 10 11  1  0
 11 12  2  0
 12 13  1  0
 13 14  1  0
 14 15  1  0
 13 16  2  0
 16 17  1  0
 17 18  2  0
  7 19  2  0
 19 20  1  0
 20  5  1  0
 18  8  1  0
 18 11  1  0
M  END
>  <zinc_id>  (1) 
ZINC000002210173

>  <smiles>  (1) 
C=CCNc1nc(-c2c[nH]c3cc(OC)ccc23)cs1

$$$$
