
     RDKit          3D

 18 19  0  0  0  0  0  0  0  0999 V2000
    1.1758    1.1227   -1.3148 O   0  0  0  0  0  0  0  0  0  0  0  0
    1.8107    0.3496   -0.5658 C   0  0  0  0  0  0  0  0  0  0  0  0
    1.1279   -0.3733    0.4416 N   0  0  0  0  0  0  0  0  0  0  0  0
   -0.2511   -0.2568    0.6374 N   0  0  0  0  0  0  0  0  0  0  0  0
   -1.0824    0.0471   -0.3001 C   0  0  0  0  0  0  0  0  0  0  0  0
   -2.5099    0.1377    0.0378 C   0  0  0  0  0  0  0  0  0  0  0  0
   -2.9542   -0.0952    1.3233 C   0  0  0  0  0  0  0  0  0  0  0  0
   -4.2957   -0.0093    1.6379 C   0  0  0  0  0  0  0  0  0  0  0  0
   -5.2497    0.3121    0.6847 C   0  0  0  0  0  0  0  0  0  0  0  0
   -6.5889    0.3983    0.9966 O   0  0  0  0  0  0  0  0  0  0  0  0
   -4.8094    0.5467   -0.6062 C   0  0  0  0  0  0  0  0  0  0  0  0
   -3.4639    0.4568   -0.9045 C   0  0  0  0  0  0  0  0  0  0  0  0
    3.2699    0.1896   -0.7302 C   0  0  0  0  0  0  0  0  0  0  0  0
    3.9600    0.6036    0.5674 C   0  0  0  0  0  0  0  0  0  0  0  0
    5.4507    0.3813    0.4594 C   0  0  0  0  0  0  0  0  0  0  0  0
    5.8000   -1.0226    0.0680 C   0  0  0  0  0  0  0  0  0  0  0  0
    5.0482   -1.5305   -1.1188 C   0  0  0  0  0  0  0  0  0  0  0  0
    3.5620   -1.2579   -1.0277 C   0  0  0  0  0  0  0  0  0  0  0  0
  1  2  2  0
  2  3  1  0
  3  4  1  0
  4  5  2  0
  5  6  1  0
  6  7  2  0
  7  8  1  0
  8  9  2  0
  9 10  1  0
  9 11  1  0
 11 12  2  0
  2 13  1  0
 13 14  1  0
 14 15  1  0
 15 16  1  0
 16 17  1  0
 17 18  1  0
 12  6  1  0
 18 13  1  0
M  END
>  <zinc_id>  (1) 
ZINC000000370585

>  <smiles>  (1) 
O=C(N/N=C/c1ccc(O)cc1)C1CCCCC1

$$$$
