
     RDKit          3D

 20 22  0  0  0  0  0  0  0  0999 V2000
    3.5129    2.4932   -1.9278 O   0  0  0  0  0  0  0  0  0  0  0  0
    3.5253    1.3607   -1.1458 C   0  0  0  0  0  0  0  0  0  0  0  0
    4.6762    0.7920   -0.6480 C   0  0  0  0  0  0  0  0  0  0  0  0
    4.6001   -0.3395    0.1252 C   0  0  0  0  0  0  0  0  0  0  0  0
    3.3575   -0.9099    0.4044 C   0  0  0  0  0  0  0  0  0  0  0  0
    3.3752   -2.0483    1.1909 O   0  0  0  0  0  0  0  0  0  0  0  0
    2.1927   -0.3549   -0.0853 C   0  0  0  0  0  0  0  0  0  0  0  0
    0.6660   -1.1278    0.3075 S   0  0  0  0  0  3  0  0  0  0  0  0
    0.0755   -0.3962    1.8262 C   0  0  0  0  0  0  0  0  0  0  0  0
   -1.2525   -1.0420    2.1458 C   0  0  0  0  0  0  0  0  0  0  0  0
   -1.8871   -1.4510    0.8222 C   0  0  0  0  0  0  0  0  0  0  0  0
   -1.7761   -0.0492   -0.0338 C   0  0  2  0  0  0  0  0  0  0  0  0
   -2.8880   -0.5462   -1.1538 C   0  0  0  0  0  0  0  0  0  0  0  0
   -4.1531   -0.7963   -0.3581 C   0  0  0  0  0  0  0  0  0  0  0  0
   -4.3449    0.3181    0.6521 C   0  0  0  0  0  0  0  0  0  0  0  0
   -4.1980    1.6788    0.0127 C   0  0  0  0  0  0  0  0  0  0  0  0
   -4.1541    1.5983   -1.4932 C   0  0  0  0  0  0  0  0  0  0  0  0
   -3.1182    0.6597   -2.0147 C   0  0  0  0  0  0  0  0  0  0  0  0
   -0.5034   -0.6069   -0.9397 C   0  0  0  0  0  0  0  0  0  0  0  0
    2.2941    0.7671   -0.8496 C   0  0  0  0  0  0  0  0  0  0  0  0
  1  2  1  0
  2  3  2  0
  3  4  1  0
  4  5  2  0
  5  6  1  0
  5  7  1  0
  8  7  1  6
  8  9  1  0
  9 10  1  0
 10 11  1  0
 11 12  1  0
 12 13  1  6
 13 14  1  0
 14 15  1  0
 15 16  1  0
 16 17  1  0
 17 18  1  0
 12 19  1  0
  7 20  2  0
 20  2  1  0
 19  8  1  0
 18 13  1  0
M  CHG  1   8   1
M  END
>  <zinc_id>  (1) 
ZINC000004084803

>  <smiles>  (1) 
Oc1ccc(O)c([S@@+]2CCC[C@H](C3CCCCC3)C2)c1

$$$$
