
     RDKit          3D

 23 25  0  0  0  0  0  0  0  0999 V2000
    3.1734    4.4973   -0.6899 C   0  0  0  0  0  0  0  0  0  0  0  0
    2.2610    3.4495   -0.4660 O   0  0  0  0  0  0  0  0  0  0  0  0
    2.6121    2.1139   -0.7337 C   0  0  0  0  0  0  0  0  0  0  0  0
    3.8747    1.8358   -1.2240 C   0  0  0  0  0  0  0  0  0  0  0  0
    4.1841    0.5225   -1.4742 C   0  0  0  0  0  0  0  0  0  0  0  0
    3.2890   -0.4958   -1.2534 C   0  0  0  0  0  0  0  0  0  0  0  0
    2.0057   -0.2299   -0.7569 C   0  0  0  0  0  0  0  0  0  0  0  0
    1.1443   -1.2957   -0.5534 N   0  0  0  0  0  0  0  0  0  0  0  0
   -0.1587   -1.3744   -0.0855 C   0  0  0  0  0  0  0  0  0  0  0  0
   -0.8254   -2.6034    0.0297 C   0  0  0  0  0  0  0  0  0  0  0  0
   -0.2939   -3.8865   -0.2985 N   0  0  0  0  0  4  0  0  0  0  0  0
   -0.9485   -4.9333   -0.1686 O   0  0  0  0  0  0  0  0  0  0  0  0
    0.9815   -3.9731   -0.7735 O   0  0  0  0  0  1  0  0  0  0  0  0
   -2.0399   -2.2998    0.5052 N   0  0  0  0  0  0  0  0  0  0  0  0
   -2.2031   -0.9825    0.7024 C   0  0  0  0  0  0  0  0  0  0  0  0
   -3.2456   -0.1957    1.1654 C   0  0  0  0  0  0  0  0  0  0  0  0
   -3.1634    1.1735    1.2784 C   0  0  0  0  0  0  0  0  0  0  0  0
   -4.2470    1.9014    1.7503 O   0  0  0  0  0  0  0  0  0  0  0  0
   -4.2089    3.3090    1.8834 C   0  0  0  0  0  0  0  0  0  0  0  0
   -1.9762    1.7640    0.9063 C   0  0  0  0  0  0  0  0  0  0  0  0
   -0.9299    0.9953    0.4437 C   0  0  0  0  0  0  0  0  0  0  0  0
   -1.0117   -0.3752    0.3305 C   0  0  0  0  0  0  0  0  0  0  0  0
    1.7264    1.0832   -0.5177 C   0  0  0  0  0  0  0  0  0  0  0  0
  1  2  1  0
  2  3  1  0
  3  4  2  0
  4  5  1  0
  5  6  2  0
  6  7  1  0
  7  8  1  0
  8  9  1  0
  9 10  2  0
 10 11  1  0
 11 12  2  0
 11 13  1  0
 10 14  1  0
 14 15  1  0
 15 16  2  0
 16 17  1  0
 17 18  1  0
 18 19  1  0
 17 20  2  0
 20 21  1  0
 21 22  2  0
  7 23  2  0
 23  3  1  0
 22  9  1  0
 22 15  1  0
M  CHG  2  11   1  13  -1
M  END
>  <zinc_id>  (1) 
ZINC000004177114

>  <smiles>  (1) 
COc1cccc(Nc2c([N+](=O)[O-])[nH]c3cc(OC)ccc23)c1

$$$$
