
     RDKit          3D

 22 24  0  0  0  0  0  0  0  0999 V2000
    0.4637   -0.8627    1.0487 C   0  0  0  0  0  0  0  0  0  0  0  0
    0.0673    0.6745    0.8039 C   0  0  1  0  0  0  0  0  0  0  0  0
    1.2830    1.3531    1.6110 C   0  0  0  0  0  0  0  0  0  0  0  0
    2.4883    1.4714    0.7349 C   0  0  0  0  0  0  0  0  0  0  0  0
    2.6363   -0.1333    0.4545 C   0  0  2  0  0  0  0  0  0  0  0  0
    4.0768   -0.0044   -0.3033 C   0  0  0  0  0  0  0  0  0  0  0  0
    4.4519   -1.4281   -0.6874 C   0  0  0  0  0  0  0  0  0  0  0  0
    4.9668    0.5115    0.8073 C   0  0  0  0  0  0  0  0  0  0  0  0
    3.9491    0.8430   -1.3514 O   0  0  0  0  0  0  0  0  0  0  0  0
    1.7645   -0.1954   -0.9124 C   0  0  0  0  0  0  0  0  0  0  0  0
    0.6160    0.9310   -0.7697 C   0  0  1  0  0  0  0  0  0  0  0  0
   -0.5229    0.1432   -1.4697 N   0  0  0  0  0  0  0  0  0  0  0  0
   -0.4875    0.0333   -2.9070 C   0  0  0  0  0  0  0  0  0  0  0  0
   -1.5621   -0.4428   -0.7452 C   0  0  0  0  0  0  0  0  0  0  0  0
   -1.6284   -1.8061   -0.8545 N   0  0  0  0  0  0  0  0  0  0  0  0
   -2.5873   -2.4760   -0.1972 C   0  0  0  0  0  0  0  0  0  0  0  0
   -3.4911   -1.8448    0.5706 N   0  0  0  0  0  0  0  0  0  0  0  0
   -3.4572   -0.5087    0.7014 C   0  0  0  0  0  0  0  0  0  0  0  0
   -4.1987    0.3890    1.3740 N   0  0  0  0  0  0  0  0  0  0  0  0
   -3.7227    1.6129    1.1510 C   0  0  0  0  0  0  0  0  0  0  0  0
   -2.6277    1.5415    0.3034 C   0  0  0  0  0  0  0  0  0  0  0  0
   -2.4783    0.1978    0.0331 C   0  0  0  0  0  0  0  0  0  0  0  0
  2  1  1  1
  2  3  1  0
  3  4  1  0
  4  5  1  0
  5  6  1  6
  6  7  1  0
  6  8  1  0
  6  9  1  0
  5 10  1  0
 10 11  1  0
 11 12  1  6
 12 13  1  0
 12 14  1  0
 14 15  2  0
 15 16  1  0
 16 17  2  0
 17 18  1  0
 18 19  1  0
 19 20  1  0
 20 21  2  0
 21 22  1  0
 11  2  1  0
 22 14  1  0
 22 18  2  0
M  END
>  <zinc_id>  (1) 
ZINC000000008591

>  <smiles>  (1) 
C[C@H]1CC[C@H](C(C)(C)O)C[C@H]1N(C)c1ncnc2[nH]ccc12

$$$$
