
     RDKit          3D

 20 21  0  0  0  0  0  0  0  0999 V2000
    5.7043   -0.8870    1.4700 C   0  0  0  0  0  0  0  0  0  0  0  0
    5.1600   -0.0012    0.3860 C   0  0  0  0  0  0  0  0  0  0  0  0
    5.7248   -0.5069   -0.9229 C   0  0  0  0  0  0  0  0  0  0  0  0
    5.6091    1.4364    0.5765 C   0  0  0  0  0  0  0  0  0  0  0  0
    3.6600   -0.0563    0.3587 C   0  0  0  0  0  0  0  0  0  0  0  0
    2.9652   -1.1400    0.8746 C   0  0  0  0  0  0  0  0  0  0  0  0
    1.5957   -1.2433    0.8726 C   0  0  0  0  0  0  0  0  0  0  0  0
    0.8216   -0.1964    0.3252 C   0  0  0  0  0  0  0  0  0  0  0  0
   -0.6276   -0.2861    0.3853 C   0  0  0  0  0  0  0  0  0  0  0  0
   -1.1286   -0.9487    1.3113 O   0  0  0  0  0  0  0  0  0  0  0  0
   -1.4262    0.3608   -0.5910 N   0  0  0  0  0  0  0  0  0  0  0  0
   -2.8486    0.3287   -0.5522 C   0  0  0  0  0  0  0  0  0  0  0  0
   -3.6677    0.8400   -1.5215 C   0  0  0  0  0  0  0  0  0  0  0  0
   -5.0298    0.7825   -1.4292 C   0  0  0  0  0  0  0  0  0  0  0  0
   -5.6216    0.1948   -0.3439 C   0  0  0  0  0  0  0  0  0  0  0  0
   -7.0091    0.1109   -0.2206 O   0  0  0  0  0  0  0  0  0  0  0  0
   -4.8135   -0.3272    0.6520 C   0  0  0  0  0  0  0  0  0  0  0  0
   -3.4535   -0.2670    0.5613 C   0  0  0  0  0  0  0  0  0  0  0  0
    1.5070    0.8606   -0.1850 C   0  0  0  0  0  0  0  0  0  0  0  0
    2.8785    0.9455   -0.1751 C   0  0  0  0  0  0  0  0  0  0  0  0
  1  2  1  0
  2  3  1  0
  2  4  1  0
  2  5  1  0
  5  6  2  0
  6  7  1  0
  7  8  2  0
  8  9  1  0
  9 10  2  0
  9 11  1  0
 11 12  1  0
 12 13  2  0
 13 14  1  0
 14 15  2  0
 15 16  1  0
 15 17  1  0
 17 18  2  0
  8 19  1  0
 19 20  2  0
 20  5  1  0
 18 12  1  0
M  END
>  <zinc_id>  (1) 
ZINC000000012482

>  <smiles>  (1) 
CC(C)(C)c1ccc(C(=O)Nc2ccc(O)cc2)cc1

$$$$
