
     RDKit          3D

 22 24  0  0  0  0  0  0  0  0999 V2000
    6.3976   -1.2663   -0.6507 C   0  0  0  0  0  0  0  0  0  0  0  0
    5.6284   -0.2075   -0.1673 O   0  0  0  0  0  0  0  0  0  0  0  0
    4.2551   -0.2695   -0.1747 C   0  0  0  0  0  0  0  0  0  0  0  0
    3.6352   -1.3817   -0.6615 C   0  0  0  0  0  0  0  0  0  0  0  0
    2.2808   -1.4593   -0.6761 C   0  0  0  0  0  0  0  0  0  0  0  0
    1.4594   -0.4309   -0.2055 C   0  0  0  0  0  0  0  0  0  0  0  0
    0.0894   -0.6502   -0.2830 N   0  0  0  0  0  0  0  0  0  0  0  0
   -0.9670    0.2297    0.1248 C   0  0  1  0  0  0  0  0  0  0  0  0
   -2.2402   -0.4590   -0.1635 C   0  0  0  0  0  0  0  0  0  0  0  0
   -2.9515   -1.0240    0.8629 C   0  0  0  0  0  0  0  0  0  0  0  0
   -4.1498   -1.6785    0.6334 C   0  0  0  0  0  0  0  0  0  0  0  0
   -4.6483   -1.7733   -0.6313 C   0  0  0  0  0  0  0  0  0  0  0  0
   -3.9588   -1.2167   -1.6854 C   0  0  0  0  0  0  0  0  0  0  0  0
   -2.7456   -0.5567   -1.4355 C   0  0  0  0  0  0  0  0  0  0  0  0
   -0.9164    0.5539    1.6032 C   0  0  0  0  0  0  0  0  0  0  0  0
   -1.3452    1.9870    1.8315 C   0  0  0  0  0  0  0  0  0  0  0  0
   -2.5338    2.3662    0.9386 C   0  0  0  0  0  0  0  0  0  0  0  0
   -2.0202    2.4640   -0.5043 C   0  0  0  0  0  0  0  0  0  0  0  0
   -0.8933    1.5171   -0.5970 C   0  0  0  0  0  0  0  0  0  0  0  0
    0.0722    1.8004   -1.2570 O   0  0  0  0  0  0  0  0  0  0  0  0
    2.0883    0.6752    0.2785 C   0  0  0  0  0  0  0  0  0  0  0  0
    3.4636    0.7801    0.3050 C   0  0  0  0  0  0  0  0  0  0  0  0
  1  2  1  0
  2  3  1  0
  3  4  2  0
  4  5  1  0
  5  6  2  0
  6  7  1  0
  8  7  1  6
  8  9  1  0
  9 10  2  0
 10 11  1  0
 11 12  2  0
 12 13  1  0
 13 14  2  0
  8 15  1  0
 15 16  1  0
 16 17  1  0
 17 18  1  0
 18 19  1  0
 19 20  2  0
  6 21  1  0
 21 22  2  0
 22  3  1  0
 19  8  1  0
 14  9  1  0
M  END
>  <zinc_id>  (1) 
ZINC000001696129

>  <smiles>  (1) 
COc1ccc(N[C@@]2(c3ccccc3)CCCCC2=O)cc1

$$$$
