
     RDKit          3D

 21 24  0  0  0  0  0  0  0  0999 V2000
   -6.8776    0.4851    0.5207 C   0  0  0  0  0  0  0  0  0  0  0  0
   -5.3928    0.4103    0.4295 C   0  0  0  0  0  0  0  0  0  0  0  0
   -4.6678   -0.3902    1.2894 C   0  0  0  0  0  0  0  0  0  0  0  0
   -3.2846   -0.4600    1.2046 C   0  0  0  0  0  0  0  0  0  0  0  0
   -2.5982    0.2698    0.2574 C   0  0  0  0  0  0  0  0  0  0  0  0
   -1.1417    0.1697    0.1995 C   0  0  0  0  0  0  0  0  0  0  0  0
   -0.4329   -0.6000    1.0251 N   0  0  0  0  0  0  0  0  0  0  0  0
    0.8835   -0.7247    1.0133 C   0  0  0  0  0  0  0  0  0  0  0  0
    1.4739   -1.5900    1.9665 N   0  0  0  0  0  0  0  0  0  0  0  0
    1.6347   -0.0044    0.0696 C   0  0  0  0  0  0  0  0  0  0  0  0
    2.9816   -0.0103   -0.0865 C   0  0  0  0  0  0  0  0  0  0  0  0
    3.4915    0.7786   -1.0823 C   0  0  0  0  0  0  0  0  0  0  0  0
    2.1005    1.4923   -1.7590 S   0  0  0  0  0  0  0  0  0  0  0  0
    0.9071    0.7776   -0.7684 C   0  0  0  0  0  0  0  0  0  0  0  0
   -0.4388    0.8666   -0.7107 N   0  0  0  0  0  0  0  0  0  0  0  0
    4.9864    0.8059   -1.2955 C   0  0  0  0  0  0  0  0  0  0  0  0
    5.4186   -0.6284   -1.4515 C   0  0  0  0  0  0  0  0  0  0  0  0
    4.8857   -1.5144   -0.3659 C   0  0  0  0  0  0  0  0  0  0  0  0
    4.0818   -0.7559    0.6632 C   0  0  0  0  0  0  0  0  0  0  0  0
   -3.3144    1.0713   -0.6050 C   0  0  0  0  0  0  0  0  0  0  0  0
   -4.6965    1.1361   -0.5143 C   0  0  0  0  0  0  0  0  0  0  0  0
  1  2  1  0
  2  3  2  0
  3  4  1  0
  4  5  2  0
  5  6  1  0
  6  7  2  0
  7  8  1  0
  8  9  1  0
  8 10  2  0
 10 11  1  0
 11 12  2  0
 12 13  1  0
 13 14  1  0
 14 15  2  0
 12 16  1  0
 16 17  1  0
 17 18  1  0
 18 19  1  0
  5 20  1  0
 20 21  2  0
 21  2  1  0
 15  6  1  0
 14 10  1  0
 19 11  1  0
M  END
>  <zinc_id>  (1) 
ZINC000002833281

>  <smiles>  (1) 
Cc1ccc(-c2nc(N)c3c4c(sc3n2)CCCC4)cc1

$$$$
