
     RDKit          3D

 18 19  0  0  0  0  0  0  0  0999 V2000
    5.3088    0.1629    1.7729 C   0  0  0  0  0  0  0  0  0  0  0  0
    4.3013    1.0793    0.8033 C   0  0  2  0  0  0  0  0  0  0  0  0
    3.1740   -0.0850    0.7782 C   0  0  0  0  0  0  0  0  0  0  0  0
    2.3949   -0.0195   -0.2735 C   0  0  0  0  0  0  0  0  0  0  0  0
    1.3254   -0.8745   -0.5960 N   0  0  0  0  0  0  0  0  0  0  0  0
    0.0380   -0.7360   -0.0753 N   0  0  0  0  0  0  0  0  0  0  0  0
   -1.1017   -0.6237   -0.9477 C   0  0  0  0  0  0  0  0  0  0  0  0
   -0.9333   -0.6482   -2.2142 O   0  0  0  0  0  0  0  0  0  0  0  0
   -2.4486   -0.4816   -0.3863 C   0  0  0  0  0  0  0  0  0  0  0  0
   -3.5797   -0.8635   -1.0608 C   0  0  0  0  0  0  0  0  0  0  0  0
   -4.8319   -0.6992   -0.5109 C   0  0  0  0  0  0  0  0  0  0  0  0
   -5.0106   -0.1417    0.7445 C   0  0  0  0  0  0  0  0  0  0  0  0
   -3.8836    0.2449    1.4282 C   0  0  0  0  0  0  0  0  0  0  0  0
   -3.9443    1.0326    3.1750 Br  0  0  0  0  0  0  0  0  0  0  0  0
   -2.6284    0.0804    0.8814 C   0  0  0  0  0  0  0  0  0  0  0  0
    2.6773    1.0891   -1.2448 C   0  0  0  0  0  0  0  0  0  0  0  0
    4.1147    0.9727   -1.6884 C   0  0  0  0  0  0  0  0  0  0  0  0
    5.0278    0.5111   -0.5856 C   0  0  0  0  0  0  0  0  0  0  0  0
  2  1  1  1
  2  3  1  0
  3  4  2  0
  4  5  1  0
  5  6  1  0
  6  7  1  0
  7  8  2  0
  7  9  1  0
  9 10  2  0
 10 11  1  0
 11 12  2  0
 12 13  1  0
 13 14  1  0
 13 15  2  0
  4 16  1  0
 16 17  1  0
 17 18  1  0
 18  2  1  0
 15  9  1  0
M  END
>  <zinc_id>  (1) 
ZINC000003194363

>  <smiles>  (1) 
C[C@@H]1C=C(NNC(=O)c2cccc(Br)c2)CCC1

$$$$
