
     RDKit          3D

 21 24  0  0  0  0  0  0  0  0999 V2000
   -2.9233   -2.3635   -1.1996 C   0  0  0  0  0  0  0  0  0  0  0  0
   -1.8627   -1.3285   -1.0671 C   0  0  0  0  0  0  0  0  0  0  0  0
   -1.0557   -1.1509   -2.3249 C   0  0  0  0  0  0  0  0  0  0  0  0
   -2.6374    0.1065   -0.8363 C   0  0  1  0  0  0  0  0  0  0  0  0
   -3.1816   -0.2622    0.6152 C   0  0  0  0  0  0  0  0  0  0  0  0
   -2.2249   -1.2292    1.1917 C   0  0  0  0  0  0  0  0  0  0  0  0
   -1.0886   -1.3309    0.1685 C   0  0  1  0  0  0  0  0  0  0  0  0
   -0.1787   -2.4554    0.4215 C   0  0  0  0  0  0  0  0  0  0  0  0
   -0.4479   -0.0036    0.1315 C   0  0  0  0  0  0  0  0  0  0  0  0
   -1.3228    0.8490   -0.3795 C   0  0  0  0  0  0  0  0  0  0  0  0
   -0.7389    2.0944   -0.3715 C   0  0  0  0  0  0  0  0  0  0  0  0
   -1.2844    3.3885   -0.8274 C   0  0  0  0  0  0  0  0  0  0  0  0
   -0.3687    4.4070   -0.6443 O   0  0  0  0  0  0  0  0  0  0  0  0
    0.5030    1.9327    0.1582 N   0  0  0  0  0  0  0  0  0  0  0  0
    0.7079    0.6698    0.4724 N   0  0  0  0  0  0  0  0  0  0  0  0
    1.8434    0.0309    1.0459 C   0  0  0  0  0  0  0  0  0  0  0  0
    1.8313   -0.6913    2.1931 C   0  0  0  0  0  0  0  0  0  0  0  0
    2.9865   -1.2742    2.6705 C   0  0  0  0  0  0  0  0  0  0  0  0
    4.1793   -1.1382    1.9961 C   0  0  0  0  0  0  0  0  0  0  0  0
    4.2054   -0.4074    0.8298 C   0  0  0  0  0  0  0  0  0  0  0  0
    3.0589    0.1564    0.3793 C   0  0  0  0  0  0  0  0  0  0  0  0
  1  2  1  0
  2  3  1  0
  2  4  1  0
  4  5  1  1
  5  6  1  0
  6  7  1  0
  7  8  1  1
  7  9  1  0
  9 10  2  0
 10 11  1  0
 11 12  1  0
 12 13  1  0
 11 14  2  0
 14 15  1  0
 15 16  1  0
 16 17  2  0
 17 18  1  0
 18 19  2  0
 19 20  1  0
 20 21  2  0
  7  2  1  0
 15  9  1  0
 21 16  1  0
 10  4  1  0
M  END
>  <zinc_id>  (1) 
ZINC000003166450

>  <smiles>  (1) 
CC1(C)[C@H]2CC[C@]1(C)c1c2c(CO)nn1-c1ccccc1

$$$$
