
     RDKit          3D

 19 20  0  0  0  0  0  0  0  0999 V2000
   -1.2458   -1.6390    2.0368 C   0  0  0  0  0  0  0  0  0  0  0  0
   -1.4176   -1.3834    0.7489 C   0  0  0  0  0  0  0  0  0  0  0  0
   -0.6861   -2.2497   -0.1530 N   0  0  0  0  0  0  0  0  0  0  0  0
    0.7365   -2.1036   -0.0031 N   0  0  0  0  0  0  0  0  0  0  0  0
    1.2932   -0.7745   -0.0929 C   0  0  0  0  0  0  0  0  0  0  0  0
    0.4538    0.1382   -0.3080 O   0  0  0  0  0  0  0  0  0  0  0  0
    2.7071   -0.4542    0.0503 C   0  0  0  0  0  0  0  0  0  0  0  0
    3.6094   -1.2035   -0.8652 C   0  0  0  0  0  0  0  0  0  0  0  0
    5.0648   -0.8878   -0.6841 C   0  0  0  0  0  0  0  0  0  0  0  0
    5.2937    0.4910   -0.1062 C   0  0  0  0  0  0  0  0  0  0  0  0
    4.1837    1.4143   -0.6289 C   0  0  0  0  0  0  0  0  0  0  0  0
    2.9399    1.0114    0.1164 C   0  0  0  0  0  0  0  0  0  0  0  0
   -2.2460   -0.2982    0.2746 C   0  0  0  0  0  0  0  0  0  0  0  0
   -2.6483    0.6672    1.1970 C   0  0  0  0  0  0  0  0  0  0  0  0
   -3.4393    1.7308    0.8172 C   0  0  0  0  0  0  0  0  0  0  0  0
   -3.8477    1.8604   -0.4796 C   0  0  0  0  0  0  0  0  0  0  0  0
   -4.6271    2.9227   -0.8377 F   0  0  0  0  0  0  0  0  0  0  0  0
   -3.4613    0.9118   -1.4194 C   0  0  0  0  0  0  0  0  0  0  0  0
   -2.6627   -0.1540   -1.0161 C   0  0  0  0  0  0  0  0  0  0  0  0
  1  2  2  0
  2  3  1  0
  3  4  1  0
  4  5  1  0
  5  6  2  0
  5  7  1  0
  7  8  1  0
  8  9  1  0
  9 10  1  0
 10 11  1  0
 11 12  1  0
  2 13  1  0
 13 14  2  0
 14 15  1  0
 15 16  2  0
 16 17  1  0
 16 18  1  0
 18 19  2  0
 12  7  1  0
 19 13  1  0
M  END
>  <zinc_id>  (1) 
ZINC000002754011

>  <smiles>  (1) 
C=C(NNC(=O)C1CCCCC1)c1ccc(F)cc1

$$$$
