
     RDKit          3D

 21 23  0  0  0  0  0  0  0  0999 V2000
   -5.1916    2.4187    1.4905 C   0  0  0  0  0  0  0  0  0  0  0  0
   -3.9800    1.7226    1.4621 O   0  0  0  0  0  0  0  0  0  0  0  0
   -3.7960    0.7024    0.5369 C   0  0  0  0  0  0  0  0  0  0  0  0
   -4.7650    0.3356   -0.3430 C   0  0  0  0  0  0  0  0  0  0  0  0
   -4.5989   -0.6785   -1.2718 C   0  0  0  0  0  0  0  0  0  0  0  0
   -3.3663   -1.3697   -1.3024 C   0  0  0  0  0  0  0  0  0  0  0  0
   -2.3836   -1.0414   -0.4535 C   0  0  0  0  0  0  0  0  0  0  0  0
   -1.0001   -1.7065   -0.3115 C   0  0  0  0  0  0  0  0  0  0  0  0
   -0.1205   -0.6347   -0.5444 N   0  0  0  0  0  0  0  0  0  0  0  0
    1.1983   -0.3593   -0.3695 C   0  0  0  0  0  0  0  0  0  0  0  0
    1.7713    0.8932   -0.4962 N   0  0  0  0  0  0  0  0  0  0  0  0
    3.0565    0.8621   -0.2098 C   0  0  0  0  0  0  0  0  0  0  0  0
    4.0711    1.8657   -0.1717 C   0  0  0  0  0  0  0  0  0  0  0  0
    5.3084    1.4905    0.1813 C   0  0  0  0  0  0  0  0  0  0  0  0
    5.6199    0.2045    0.5027 C   0  0  0  0  0  0  0  0  0  0  0  0
    4.6505   -0.7970    0.4721 C   0  0  0  0  0  0  0  0  0  0  0  0
    3.3483   -0.4447    0.1055 C   0  0  0  0  0  0  0  0  0  0  0  0
    2.1926   -1.1564   -0.0025 N   0  0  0  0  0  0  0  0  0  0  0  0
    2.1314   -2.6074    0.2609 C   0  0  0  0  0  0  0  0  0  0  0  0
   -2.6100    0.0073    0.4684 C   0  0  0  0  0  0  0  0  0  0  0  0
   -1.5363    0.2931    1.3111 O   0  0  0  0  0  0  0  0  0  0  0  0
  1  2  1  0
  2  3  1  0
  3  4  2  0
  4  5  1  0
  5  6  2  0
  6  7  1  0
  7  8  1  0
  8  9  1  0
  9 10  1  0
 10 11  2  0
 11 12  1  0
 12 13  2  0
 13 14  1  0
 14 15  2  0
 15 16  1  0
 16 17  2  0
 17 18  1  0
 18 19  1  0
  7 20  2  0
 20 21  1  0
 20  3  1  0
 18 10  1  0
 17 12  1  0
M  END
>  <zinc_id>  (1) 
ZINC000000111513

>  <smiles>  (1) 
COc1cccc(CNc2nc3ccccc3n2C)c1O

$$$$
