
     RDKit          3D

 20 22  0  0  0  0  0  0  0  0999 V2000
    4.2301   -2.8863   -0.1792 C   0  0  0  0  0  0  0  0  0  0  0  0
    3.2488   -1.7630   -0.0444 C   0  0  0  0  0  0  0  0  0  0  0  0
    2.3526   -1.6708    0.9797 C   0  0  0  0  0  0  0  0  0  0  0  0
    1.4936   -0.6015    1.0159 C   0  0  0  0  0  0  0  0  0  0  0  0
    1.4904    0.3950    0.0597 C   0  0  0  0  0  0  0  0  0  0  0  0
    0.5706    1.5253    0.1169 C   0  0  0  0  0  0  0  0  0  0  0  0
    0.9259    2.8311    0.2272 N   0  0  0  0  0  0  0  0  0  0  0  0
   -0.2400    3.4999    0.2391 C   0  0  0  0  0  0  0  0  0  0  0  0
   -0.3946    4.9104    0.3407 N   0  0  0  0  0  0  0  0  0  0  0  0
   -1.2411    2.6603    0.1425 O   0  0  0  0  0  0  0  0  0  0  0  0
   -0.8090    1.4288    0.0640 C   0  0  0  0  0  0  0  0  0  0  0  0
   -1.5517    0.1748   -0.0545 C   0  0  0  0  0  0  0  0  0  0  0  0
   -1.4143   -0.6572   -1.1506 C   0  0  0  0  0  0  0  0  0  0  0  0
   -2.1086   -1.8425   -1.2746 C   0  0  0  0  0  0  0  0  0  0  0  0
   -2.9842   -2.2594   -0.2970 C   0  0  0  0  0  0  0  0  0  0  0  0
   -3.7315   -3.5330   -0.4282 C   0  0  0  0  0  0  0  0  0  0  0  0
   -3.1302   -1.4275    0.8133 C   0  0  0  0  0  0  0  0  0  0  0  0
   -2.4302   -0.2439    0.9251 C   0  0  0  0  0  0  0  0  0  0  0  0
    2.4187    0.2576   -0.9608 C   0  0  0  0  0  0  0  0  0  0  0  0
    3.3049   -0.7980   -1.0439 C   0  0  0  0  0  0  0  0  0  0  0  0
  1  2  1  0
  2  3  2  0
  3  4  1  0
  4  5  2  0
  5  6  1  0
  6  7  1  0
  7  8  2  0
  8  9  1  0
  8 10  1  0
 10 11  1  0
 11 12  1  0
 12 13  2  0
 13 14  1  0
 14 15  2  0
 15 16  1  0
 15 17  1  0
 17 18  2  0
  5 19  1  0
 19 20  2  0
 20  2  1  0
 11  6  2  0
 18 12  1  0
M  END
>  <zinc_id>  (1) 
ZINC000003268080

>  <smiles>  (1) 
Cc1ccc(-c2nc(N)oc2-c2ccc(C)cc2)cc1

$$$$
