
     RDKit          3D

 19 20  0  0  0  0  0  0  0  0999 V2000
   -3.4531    2.1223    0.9570 C   0  0  0  0  0  0  0  0  0  0  0  0
   -4.0808    1.0176   -0.0947 C   0  0  1  0  0  0  0  0  0  0  0  0
   -3.1063    1.4649   -1.3008 C   0  0  0  0  0  0  0  0  0  0  0  0
   -3.1122    0.3880   -2.3331 C   0  0  0  0  0  0  0  0  0  0  0  0
   -3.8905   -0.7641   -1.8055 C   0  0  0  0  0  0  0  0  0  0  0  0
   -3.4809   -1.3640   -0.5650 C   0  0  0  0  0  0  0  0  0  0  0  0
   -3.1989   -0.2594    0.6027 C   0  0  1  0  0  0  0  0  0  0  0  0
   -1.7500    0.0912    0.1044 N   0  0  0  0  0  0  0  0  0  0  0  0
   -0.7442   -0.5892    0.8033 C   0  0  0  0  0  0  0  0  0  0  0  0
   -1.0283   -1.4087    1.7399 O   0  0  0  0  0  0  0  0  0  0  0  0
    0.6811   -0.3878    0.4926 C   0  0  0  0  0  0  0  0  0  0  0  0
    1.0768    0.4138   -0.5638 C   0  0  0  0  0  0  0  0  0  0  0  0
    2.4184    0.5795   -0.8192 C   0  0  0  0  0  0  0  0  0  0  0  0
    3.4015   -0.0390   -0.0490 C   0  0  0  0  0  0  0  0  0  0  0  0
    4.7829    0.1160   -0.3068 N   0  0  0  0  0  4  0  0  0  0  0  0
    5.6281   -0.4486    0.4047 O   0  0  0  0  0  0  0  0  0  0  0  0
    5.1897    0.8896   -1.3514 O   0  0  0  0  0  1  0  0  0  0  0  0
    3.0008   -0.8351    0.9948 C   0  0  0  0  0  0  0  0  0  0  0  0
    1.6659   -0.9871    1.2358 C   0  0  0  0  0  0  0  0  0  0  0  0
  2  1  1  1
  2  3  1  0
  3  4  1  0
  4  5  1  0
  5  6  1  0
  6  7  1  0
  7  8  1  6
  8  9  1  0
  9 10  2  0
  9 11  1  0
 11 12  2  0
 12 13  1  0
 13 14  2  0
 14 15  1  0
 15 16  2  0
 15 17  1  0
 14 18  1  0
 18 19  2  0
  7  2  1  0
 19 11  1  0
M  CHG  2  15   1  17  -1
M  END
>  <zinc_id>  (1) 
ZINC000000137178

>  <smiles>  (1) 
C[C@H]1CCCC[C@H]1NC(=O)c1ccc([N+](=O)[O-])cc1

$$$$
