
     RDKit          3D

 21 22  0  0  0  0  0  0  0  0999 V2000
    5.2865    2.0242    0.3161 C   0  0  0  0  0  0  0  0  0  0  0  0
    4.4838    0.8516   -0.1386 C   0  0  0  0  0  0  0  0  0  0  0  0
    5.0538   -0.3405   -0.5297 C   0  0  0  0  0  0  0  0  0  0  0  0
    4.2610   -1.4054   -0.9295 C   0  0  0  0  0  0  0  0  0  0  0  0
    2.8904   -1.1873   -0.9063 C   0  0  0  0  0  0  0  0  0  0  0  0
    2.0678   -2.3656   -1.3745 C   0  0  0  0  0  0  0  0  0  0  0  0
    2.2847   -0.0255   -0.5243 C   0  0  0  0  0  0  0  0  0  0  0  0
    0.8346    0.1333   -0.4304 C   0  0  0  0  0  0  0  0  0  0  0  0
    0.2086    0.8570   -1.2737 O   0  0  0  0  0  0  0  0  0  0  0  0
    0.0959   -0.4995    0.6083 N   0  0  0  0  0  0  0  0  0  0  0  0
   -1.3185   -0.3670    0.7521 C   0  0  0  0  0  0  0  0  0  0  0  0
   -2.1121    0.3113   -0.1647 C   0  0  0  0  0  0  0  0  0  0  0  0
   -3.4664    0.4370    0.0126 C   0  0  0  0  0  0  0  0  0  0  0  0
   -4.2862    1.1353   -0.9133 N   0  0  0  0  0  4  0  0  0  0  0  0
   -5.5203    1.2750   -0.7216 O   0  0  0  0  0  0  0  0  0  0  0  0
   -3.7779    1.7068   -2.0721 O   0  0  0  0  0  1  0  0  0  0  0  0
   -4.0055   -0.1370    1.1412 C   0  0  0  0  0  0  0  0  0  0  0  0
   -3.2153   -0.8089    2.0492 C   0  0  0  0  0  0  0  0  0  0  0  0
   -1.8495   -0.9485    1.8875 C   0  0  0  0  0  0  0  0  0  0  0  0
   -1.0225   -1.6744    2.8844 C   0  0  0  0  0  0  0  0  0  0  0  0
    3.1073    1.0282   -0.1283 C   0  0  0  0  0  0  0  0  0  0  0  0
  1  2  1  0
  2  3  2  0
  3  4  1  0
  4  5  2  0
  5  6  1  0
  5  7  1  0
  7  8  1  0
  8  9  2  0
  8 10  1  0
 10 11  1  0
 11 12  2  0
 12 13  1  0
 13 14  1  0
 14 15  2  0
 14 16  1  0
 13 17  2  0
 17 18  1  0
 18 19  2  0
 19 20  1  0
  7 21  2  0
 21  2  1  0
 19 11  1  0
M  CHG  2  14   1  16  -1
M  END
>  <zinc_id>  (1) 
ZINC000000514644

>  <smiles>  (1) 
Cc1ccc(C)c(C(=O)Nc2cc([N+](=O)[O-])ccc2C)c1

$$$$
