
     RDKit          3D

 28 30  0  0  0  0  0  0  0  0999 V2000
   -8.7762   -0.0422    0.7010 C   0  0  0  0  0  0  0  0  0  0  0  0
   -7.5888   -0.0626    1.4702 O   0  0  0  0  0  0  0  0  0  0  0  0
   -6.3307   -0.1444    0.8862 C   0  0  0  0  0  0  0  0  0  0  0  0
   -5.1832   -0.1615    1.6525 C   0  0  0  0  0  0  0  0  0  0  0  0
   -3.9188   -0.2406    1.0751 C   0  0  0  0  0  0  0  0  0  0  0  0
   -3.8338   -0.3009   -0.2782 C   0  0  0  0  0  0  0  0  0  0  0  0
   -2.6531   -0.3855   -1.0591 N   0  0  0  0  0  0  0  0  0  0  0  0
   -1.9436   -1.5853   -1.2905 C   0  0  0  0  0  0  0  0  0  0  0  0
   -0.5692   -1.1556   -1.9660 C   0  0  2  0  0  0  0  0  0  0  0  0
    0.0604   -0.4004   -0.7215 C   0  0  0  0  0  0  0  0  0  0  0  0
   -0.4556   -0.5609    0.3945 O   0  0  0  0  0  0  0  0  0  0  0  0
    1.1589    0.3969   -0.9509 O   0  0  0  0  0  0  0  0  0  0  0  0
    1.7532    1.0723    0.1309 C   0  0  0  0  0  0  0  0  0  0  0  0
    2.2394   -0.0120    1.0893 C   0  0  0  0  0  0  0  0  0  0  0  0
    3.2634   -0.9140    0.3744 C   0  0  0  0  0  0  0  0  0  0  0  0
    4.3189   -0.0127   -0.0288 N   0  0  0  0  0  0  0  0  0  0  0  0
    4.0608    0.9750   -1.0687 C   0  0  0  0  0  0  0  0  0  0  0  0
    5.5783   -0.0892    0.5814 C   0  0  0  0  0  0  0  0  0  0  0  0
    5.8811   -0.9945    1.5552 C   0  0  0  0  0  0  0  0  0  0  0  0
    7.1171   -1.0483    2.1535 C   0  0  0  0  0  0  0  0  0  0  0  0
    8.0833   -0.1716    1.7692 C   0  0  0  0  0  0  0  0  0  0  0  0
    7.8008    0.7502    0.7903 C   0  0  0  0  0  0  0  0  0  0  0  0
    6.5835    0.8075    0.1994 C   0  0  0  0  0  0  0  0  0  0  0  0
   -1.1421    0.1455   -2.7530 C   0  0  0  0  0  0  0  0  0  0  0  0
   -2.0240    0.6978   -1.7263 C   0  0  0  0  0  0  0  0  0  0  0  0
   -2.2094    1.8834   -1.4651 O   0  0  0  0  0  0  0  0  0  0  0  0
   -5.0069   -0.2836   -1.0366 C   0  0  0  0  0  0  0  0  0  0  0  0
   -6.2638   -0.2055   -0.4786 C   0  0  0  0  0  0  0  0  0  0  0  0
  1  2  1  0
  2  3  1  0
  3  4  2  0
  4  5  1  0
  5  6  2  0
  6  7  1  0
  7  8  1  0
  8  9  1  0
  9 10  1  1
 10 11  2  0
 10 12  1  0
 12 13  1  0
 13 14  1  0
 14 15  1  0
 15 16  1  0
 16 17  1  0
 16 18  1  0
 18 19  2  0
 19 20  1  0
 20 21  2  0
 21 22  1  0
 22 23  2  0
  9 24  1  0
 24 25  1  0
 25 26  2  0
  6 27  1  0
 27 28  2  0
 28  3  1  0
 25  7  1  0
 23 18  1  0
M  END
>  <zinc_id>  (1) 
ZINC000000019790

>  <smiles>  (1) 
COc1ccc(N2C[C@H](C(=O)OCCCN(C)c3ccccc3)CC2=O)cc1

$$$$
