
     RDKit          3D

 19 21  0  0  0  0  0  0  0  0999 V2000
    5.5669    0.8812    0.4114 C   0  0  0  0  0  0  0  0  0  0  0  0
    4.9495   -0.4297   -0.0958 C   0  0  0  0  0  0  0  0  0  0  0  0
    5.3907   -0.5368   -1.5442 C   0  0  0  0  0  0  0  0  0  0  0  0
    3.4491   -0.3150    0.0001 C   0  0  0  0  0  0  0  0  0  0  0  0
    2.4855   -0.8486   -0.7631 C   0  0  0  0  0  0  0  0  0  0  0  0
    1.2021   -0.6219   -0.5058 C   0  0  0  0  0  0  0  0  0  0  0  0
    0.9120    0.1814    0.5738 C   0  0  0  0  0  0  0  0  0  0  0  0
    2.4990    0.5471    1.1337 S   0  0  0  0  0  0  0  0  0  0  0  0
   -0.4354    0.4961    0.9464 N   0  0  0  0  0  0  0  0  0  0  0  0
   -1.4081    0.7391   -0.2684 C   0  0  2  0  0  0  0  0  0  0  0  0
   -2.7440    0.6336    0.5056 C   0  0  0  0  0  0  0  0  0  0  0  0
   -3.8145   -0.0870    0.1138 C   0  0  0  0  0  0  0  0  0  0  0  0
   -4.9817   -0.1328    0.8461 C   0  0  0  0  0  0  0  0  0  0  0  0
   -5.0609    0.5725    2.0058 C   0  0  0  0  0  0  0  0  0  0  0  0
   -3.9992    1.3178    2.4423 C   0  0  0  0  0  0  0  0  0  0  0  0
   -2.8119    1.3434    1.6645 C   0  0  0  0  0  0  0  0  0  0  0  0
   -1.3017   -0.7516   -0.7378 N   0  0  0  0  0  0  0  0  0  0  0  0
   -0.0167   -1.1185   -1.2063 C   0  0  0  0  0  0  0  0  0  0  0  0
    0.1196   -1.8706   -2.2226 O   0  0  0  0  0  0  0  0  0  0  0  0
  1  2  1  0
  2  3  1  0
  2  4  1  0
  4  5  2  0
  5  6  1  0
  6  7  2  0
  7  8  1  0
  7  9  1  0
  9 10  1  0
 10 11  1  1
 11 12  2  0
 12 13  1  0
 13 14  2  0
 14 15  1  0
 15 16  2  0
 10 17  1  0
 17 18  1  0
 18 19  2  0
  8  4  1  0
 16 11  1  0
 18  6  1  0
M  END
>  <zinc_id>  (1) 
ZINC000002730553

>  <smiles>  (1) 
CC(C)c1cc2c(s1)N[C@H](c1ccccc1)NC2=O

$$$$
