
     RDKit          3D

 19 20  0  0  0  0  0  0  0  0999 V2000
    6.0929    2.2626   -0.4281 C   0  0  0  0  0  0  0  0  0  0  0  0
    5.0312    1.4545   -1.1289 C   0  0  0  0  0  0  0  0  0  0  0  0
    5.1422    0.0206   -0.6362 C   0  0  0  0  0  0  0  0  0  0  0  0
    4.9251    0.0131    0.8619 C   0  0  0  0  0  0  0  0  0  0  0  0
    3.5912    0.5519    1.1013 N   0  0  0  0  0  0  0  0  0  0  0  0
    2.4919   -0.1775    0.4955 C   0  0  0  0  0  0  0  0  0  0  0  0
    1.2082    0.0933    0.5563 N   0  0  0  0  0  0  0  0  0  0  0  0
    0.3509   -0.6752   -0.0526 C   0  0  0  0  0  0  0  0  0  0  0  0
   -1.1134   -0.4057   -0.0102 C   0  0  0  0  0  0  0  0  0  0  0  0
   -1.6483    0.6651    0.6707 C   0  0  0  0  0  0  0  0  0  0  0  0
   -3.0133    0.8981    0.6978 C   0  0  0  0  0  0  0  0  0  0  0  0
   -3.8957    0.0666    0.0432 C   0  0  0  0  0  0  0  0  0  0  0  0
   -5.3075    0.3061    0.0702 N   0  0  0  0  0  4  0  0  0  0  0  0
   -6.1379   -0.4151   -0.5039 O   0  0  0  0  0  0  0  0  0  0  0  0
   -5.7649    1.3888    0.7668 O   0  0  0  0  0  1  0  0  0  0  0  0
   -3.3644   -1.0073   -0.6402 C   0  0  0  0  0  0  0  0  0  0  0  0
   -1.9996   -1.2317   -0.6614 C   0  0  0  0  0  0  0  0  0  0  0  0
    0.8695   -1.7519   -0.7391 C   0  0  0  0  0  0  0  0  0  0  0  0
    2.5418   -1.5856   -0.4632 S   0  0  0  0  0  0  0  0  0  0  0  0
  1  2  1  0
  2  3  1  0
  3  4  1  0
  4  5  1  0
  5  6  1  0
  6  7  2  0
  7  8  1  0
  8  9  1  0
  9 10  2  0
 10 11  1  0
 11 12  2  0
 12 13  1  0
 13 14  2  0
 13 15  1  0
 12 16  1  0
 16 17  2  0
  8 18  2  0
 18 19  1  0
 19  6  1  0
 17  9  1  0
M  CHG  2  13   1  15  -1
M  END
>  <zinc_id>  (1) 
ZINC000004381925

>  <smiles>  (1) 
CCCCNc1nc(-c2ccc([N+](=O)[O-])cc2)cs1

$$$$
