
     RDKit          3D

 21 24  0  0  0  0  0  0  0  0999 V2000
   -3.9353   -3.0390    0.0557 C   0  0  0  0  0  0  0  0  0  0  0  0
   -3.3497   -1.6727    0.0486 C   0  0  0  0  0  0  0  0  0  0  0  0
   -4.1300   -0.5379   -0.0714 C   0  0  0  0  0  0  0  0  0  0  0  0
   -3.2255    0.5030   -0.0355 C   0  0  0  0  0  0  0  0  0  0  0  0
   -1.9352   -0.0212    0.1037 C   0  0  0  0  0  0  0  0  0  0  0  0
   -0.7363    0.8025    0.1755 C   0  0  0  0  0  0  0  0  0  0  0  0
   -0.7138    2.1673    0.1946 N   0  0  0  0  0  0  0  0  0  0  0  0
    0.5352    2.6072    0.2973 C   0  0  0  0  0  0  0  0  0  0  0  0
    1.0286    3.8580    0.3522 N   0  0  0  0  0  0  0  0  0  0  0  0
    2.3459    4.1111    0.4579 C   0  0  0  0  0  0  0  0  0  0  0  0
    3.2146    3.0403    0.5112 C   0  0  0  0  0  0  0  0  0  0  0  0
    2.6737    1.7732    0.4524 C   0  0  0  0  0  0  0  0  0  0  0  0
    1.3380    1.5603    0.3458 N   0  0  0  0  0  0  0  0  0  0  0  0
    0.5799    0.4204    0.2715 C   0  0  0  0  0  0  0  0  0  0  0  0
    1.1622   -0.8300    0.2684 N   0  0  0  0  0  0  0  0  0  0  0  0
    0.6506   -2.1349    0.1011 C   0  0  0  0  0  0  0  0  0  0  0  0
    1.7887   -3.1408    0.4177 C   0  0  0  0  0  0  0  0  0  0  0  0
    2.7055   -2.8467   -0.7719 C   0  0  0  0  0  0  0  0  0  0  0  0
    1.7340   -2.8661   -1.9336 C   0  0  0  0  0  0  0  0  0  0  0  0
    0.3863   -2.4533   -1.3845 C   0  0  0  0  0  0  0  0  0  0  0  0
   -2.1173   -1.3004    0.1433 O   0  0  0  0  0  0  0  0  0  0  0  0
  1  2  1  0
  2  3  2  0
  3  4  1  0
  4  5  2  0
  5  6  1  0
  6  7  1  0
  7  8  2  0
  8  9  1  0
  9 10  2  0
 10 11  1  0
 11 12  2  0
 12 13  1  0
 13 14  1  0
 14 15  1  0
 15 16  1  0
 16 17  1  0
 17 18  1  0
 18 19  1  0
 19 20  1  0
  5 21  1  0
 21  2  1  0
 14  6  2  0
 20 16  1  0
 13  8  1  0
M  END
>  <zinc_id>  (1) 
ZINC000000428764

>  <smiles>  (1) 
Cc1ccc(-c2nc3ncccn3c2NC2CCCC2)o1

$$$$
