
     RDKit          3D

 20 22  0  0  0  0  0  0  0  0999 V2000
    3.7344    0.9208    1.5059 C   0  0  0  0  0  0  0  0  0  0  0  0
    3.9512    0.2657    0.1645 C   0  0  0  0  0  0  0  0  0  0  0  0
    5.1060   -0.7344    0.2218 C   0  0  0  0  0  0  0  0  0  0  0  0
    4.3069    1.3063   -0.8761 C   0  0  0  0  0  0  0  0  0  0  0  0
    2.7315   -0.4789   -0.2747 C   0  0  0  0  0  0  0  0  0  0  0  0
    2.2827   -1.5588    0.6106 C   0  0  0  0  0  0  0  0  0  0  0  0
    0.9224   -1.4531    1.1718 C   0  0  0  0  0  0  0  0  0  0  0  0
   -0.0662   -0.7116    0.3597 C   0  0  0  0  0  0  0  0  0  0  0  0
    0.5312    0.6356   -0.0545 C   0  0  0  0  0  0  0  0  0  0  0  0
    1.6985    0.3259   -0.9470 C   0  0  0  0  0  0  0  0  0  0  0  0
   -0.4837   -1.3742   -0.8439 N   0  0  0  0  0  0  0  0  0  0  0  0
   -1.5200   -0.7835   -1.6146 C   0  0  0  0  0  0  0  0  0  0  0  0
   -1.6382   -0.9467   -2.8514 O   0  0  0  0  0  0  0  0  0  0  0  0
   -2.4988    0.0630   -0.9053 C   0  0  0  0  0  0  0  0  0  0  0  0
   -3.5239    0.6636   -1.5866 C   0  0  0  0  0  0  0  0  0  0  0  0
   -4.4321    1.4514   -0.9165 C   0  0  0  0  0  0  0  0  0  0  0  0
   -4.2760    1.6117    0.4417 C   0  0  0  0  0  0  0  0  0  0  0  0
   -3.2426    1.0051    1.1231 C   0  0  0  0  0  0  0  0  0  0  0  0
   -2.3300    0.2145    0.4549 C   0  0  0  0  0  0  0  0  0  0  0  0
   -1.2534   -0.4224    1.1400 N   0  0  0  0  0  0  0  0  0  0  0  0
  1  2  1  0
  2  3  1  0
  2  4  1  0
  2  5  1  0
  5  6  1  0
  6  7  1  0
  7  8  1  0
  8  9  1  0
  9 10  1  0
  8 11  1  0
 11 12  1  0
 12 13  2  0
 12 14  1  0
 14 15  2  0
 15 16  1  0
 16 17  2  0
 17 18  1  0
 18 19  2  0
 19 20  1  0
 10  5  1  0
 19 14  1  0
 20  8  1  0
M  END
>  <zinc_id>  (1) 
ZINC000002550132

>  <smiles>  (1) 
CC(C)(C)C1CCC2(CC1)NC(=O)c1ccccc1N2

$$$$
