
     RDKit          3D

 19 20  0  0  0  0  0  0  0  0999 V2000
    6.9842    0.1733   -1.0689 C   0  0  0  0  0  0  0  0  0  0  0  0
    5.5564    0.3339   -0.6697 C   0  0  0  0  0  0  0  0  0  0  0  0
    5.0828    1.5683   -0.2888 C   0  0  0  0  0  0  0  0  0  0  0  0
    3.7567    1.7629    0.0900 C   0  0  0  0  0  0  0  0  0  0  0  0
    2.8610    0.6981    0.0934 C   0  0  0  0  0  0  0  0  0  0  0  0
    1.5611    0.9584    0.4791 O   0  0  0  0  0  0  0  0  0  0  0  0
    0.5174    0.0401    0.5496 C   0  0  0  0  0  0  0  0  0  0  0  0
    0.2303   -0.5917   -0.7843 C   0  0  0  0  0  0  0  0  0  0  0  0
   -1.1248   -1.7826   -0.6918 S   0  0  0  0  0  0  0  0  0  0  0  0
   -2.6671   -0.9598   -0.3050 C   0  0  0  0  0  0  0  0  0  0  0  0
   -3.7982   -1.7598   -0.2081 C   0  0  0  0  0  0  0  0  0  0  0  0
   -4.9931   -1.1433    0.0923 C   0  0  0  0  0  0  0  0  0  0  0  0
   -6.2740   -1.8957    0.2224 C   0  0  0  0  0  0  0  0  0  0  0  0
   -5.0456    0.1893    0.2823 N   0  0  0  0  0  0  0  0  0  0  0  0
   -3.9278    0.9417    0.1813 C   0  0  0  0  0  0  0  0  0  0  0  0
   -4.0014    2.3586    0.3870 N   0  0  0  0  0  0  0  0  0  0  0  0
   -2.7468    0.3579   -0.1122 N   0  0  0  0  0  0  0  0  0  0  0  0
    3.3551   -0.5236   -0.2898 C   0  0  0  0  0  0  0  0  0  0  0  0
    4.6740   -0.7260   -0.6684 C   0  0  0  0  0  0  0  0  0  0  0  0
  1  2  1  0
  2  3  2  0
  3  4  1  0
  4  5  2  0
  5  6  1  0
  6  7  1  0
  7  8  1  0
  8  9  1  0
  9 10  1  0
 10 11  2  0
 11 12  1  0
 12 13  1  0
 12 14  2  0
 14 15  1  0
 15 16  1  0
 15 17  2  0
  5 18  1  0
 18 19  2  0
 19  2  1  0
 17 10  1  0
M  END
>  <zinc_id>  (1) 
ZINC000002818370

>  <smiles>  (1) 
Cc1ccc(OCCSc2cc(C)nc(N)n2)cc1

$$$$
