
     RDKit          3D

 19 20  0  0  0  0  0  0  0  0999 V2000
    5.7067   -1.7299    0.5066 C   0  0  0  0  0  0  0  0  0  0  0  0
    4.7139   -0.6510    0.2105 C   0  0  0  0  0  0  0  0  0  0  0  0
    5.0999    0.6720    0.4515 C   0  0  0  0  0  0  0  0  0  0  0  0
    4.1829    1.6822    0.1791 C   0  0  0  0  0  0  0  0  0  0  0  0
    2.9358    1.3802   -0.3127 C   0  0  0  0  0  0  0  0  0  0  0  0
    2.5543    0.0731   -0.5510 C   0  0  0  0  0  0  0  0  0  0  0  0
    1.2881   -0.2113   -1.0487 O   0  0  0  0  0  0  0  0  0  0  0  0
    0.4172    0.8725   -1.2994 C   0  0  0  0  0  0  0  0  0  0  0  0
    0.2062    1.6032    0.0087 C   0  0  0  0  0  0  0  0  0  0  0  0
   -0.5251    0.4810    1.2289 S   0  0  0  0  0  0  0  0  0  0  0  0
   -2.1654    0.0436    0.7017 C   0  0  0  0  0  0  0  0  0  0  0  0
   -3.2734    0.7868    1.0731 C   0  0  0  0  0  0  0  0  0  0  0  0
   -4.5331    0.4265    0.6535 C   0  0  0  0  0  0  0  0  0  0  0  0
   -5.7709    1.1625    1.0030 C   0  0  0  0  0  0  0  0  0  0  0  0
   -4.6504   -0.6635   -0.1235 N   0  0  0  0  0  0  0  0  0  0  0  0
   -3.5739   -1.4079   -0.4996 C   0  0  0  0  0  0  0  0  0  0  0  0
   -3.7143   -2.5632   -1.3244 N   0  0  0  0  0  0  0  0  0  0  0  0
   -2.3674   -1.0306   -0.0751 N   0  0  0  0  0  0  0  0  0  0  0  0
    3.4689   -0.9259   -0.2786 C   0  0  0  0  0  0  0  0  0  0  0  0
  1  2  1  0
  2  3  2  0
  3  4  1  0
  4  5  2  0
  5  6  1  0
  6  7  1  0
  7  8  1  0
  8  9  1  0
  9 10  1  0
 10 11  1  0
 11 12  2  0
 12 13  1  0
 13 14  1  0
 13 15  2  0
 15 16  1  0
 16 17  1  0
 16 18  2  0
  6 19  2  0
 19  2  1  0
 18 11  1  0
M  END
>  <zinc_id>  (1) 
ZINC000002813806

>  <smiles>  (1) 
Cc1cccc(OCCSc2cc(C)nc(N)n2)c1

$$$$
