
     RDKit          3D

 20 23  0  0  0  0  0  0  0  0999 V2000
    2.4308    2.0413    0.6347 N   0  0  0  0  0  0  0  0  0  0  0  0
    1.0216    2.1267    0.4692 C   0  0  0  0  0  0  0  0  0  0  0  0
    0.3880    3.2942    0.5918 N   0  0  0  0  0  0  0  0  0  0  0  0
   -0.9413    3.3337    0.4286 C   0  0  0  0  0  0  0  0  0  0  0  0
   -1.6334    2.2070    0.1434 N   0  0  0  0  0  0  0  0  0  0  0  0
   -0.9995    1.0324    0.0196 C   0  0  0  0  0  0  0  0  0  0  0  0
    0.3610    0.9307    0.1760 C   0  0  0  0  0  0  0  0  0  0  0  0
    1.0965   -0.3340    0.0496 C   0  0  0  0  0  0  0  0  0  0  0  0
    1.8676   -0.5671    1.3688 C   0  0  0  0  0  0  0  0  0  0  0  0
    2.5319   -1.9251    1.1987 C   0  0  0  0  0  0  0  0  0  0  0  0
    3.6153   -1.7573    0.1659 C   0  0  0  0  0  0  0  0  0  0  0  0
    3.1229   -1.2236   -1.1407 C   0  0  0  0  0  0  0  0  0  0  0  0
    2.1518   -0.1009   -1.0273 C   0  0  0  0  0  0  0  0  0  0  0  0
    0.2915   -1.5346   -0.2631 C   0  0  0  0  0  0  0  0  0  0  0  0
   -1.1471   -1.3694   -0.4183 C   0  0  0  0  0  0  0  0  0  0  0  0
   -1.9715   -2.4600   -0.7140 C   0  0  0  0  0  0  0  0  0  0  0  0
   -3.3142   -2.3452   -0.8657 C   0  0  0  0  0  0  0  0  0  0  0  0
   -3.9367   -1.1263   -0.7327 C   0  0  0  0  0  0  0  0  0  0  0  0
   -3.1519   -0.0538   -0.4453 C   0  0  0  0  0  0  0  0  0  0  0  0
   -1.7830   -0.1687   -0.2902 C   0  0  0  0  0  0  0  0  0  0  0  0
  1  2  1  0
  2  3  2  0
  3  4  1  0
  4  5  2  0
  5  6  1  0
  6  7  2  0
  7  8  1  0
  8  9  1  0
  9 10  1  0
 10 11  1  0
 11 12  1  0
 12 13  1  0
  8 14  1  0
 14 15  1  0
 15 16  2  0
 16 17  1  0
 17 18  2  0
 18 19  1  0
 19 20  2  0
  7  2  1  0
 13  8  1  0
 20 15  1  0
 20  6  1  0
M  END
>  <zinc_id>  (1) 
ZINC000000360098

>  <smiles>  (1) 
Nc1ncnc2c1C1(CCCCC1)Cc1ccccc1-2

$$$$
