
     RDKit          3D

 20 21  0  0  0  0  0  0  0  0999 V2000
   -3.2011    3.9325   -1.1960 C   0  0  0  0  0  0  0  0  0  0  0  0
   -1.8932    4.3165   -0.5466 C   0  0  0  0  0  0  0  0  0  0  0  0
   -1.4857    3.2548    0.3209 N   0  0  0  0  0  0  0  0  0  0  0  0
   -1.0874    2.0078   -0.2106 C   0  0  0  0  0  0  0  0  0  0  0  0
   -1.1077    1.8246   -1.8281 S   0  0  0  0  0  0  0  0  0  0  0  0
   -0.6920    0.9894    0.6850 N   0  0  0  0  0  0  0  0  0  0  0  0
   -0.2686   -0.3017    0.3528 C   0  0  0  0  0  0  0  0  0  0  0  0
    1.0260   -0.6880    0.0959 C   0  0  0  0  0  0  0  0  0  0  0  0
    2.2080    0.1992    0.1187 C   0  0  0  0  0  0  0  0  0  0  0  0
    2.1189    1.4133    0.3835 O   0  0  0  0  0  0  0  0  0  0  0  0
    3.4596   -0.3158   -0.1590 O   0  0  0  0  0  0  0  0  0  0  0  0
    4.6263    0.5215   -0.1440 C   0  0  0  0  0  0  0  0  0  0  0  0
    4.7053    1.0775    1.2566 C   0  0  0  0  0  0  0  0  0  0  0  0
    1.0450   -2.0006   -0.1802 N   0  0  0  0  0  0  0  0  0  0  0  0
   -0.2106   -2.4674   -0.1064 C   0  0  0  0  0  0  0  0  0  0  0  0
   -0.7605   -3.7437   -0.2966 C   0  0  0  0  0  0  0  0  0  0  0  0
   -2.1048   -3.9685   -0.1600 C   0  0  0  0  0  0  0  0  0  0  0  0
   -2.9444   -2.9315    0.1699 C   0  0  0  0  0  0  0  0  0  0  0  0
   -2.3991   -1.6858    0.3543 C   0  0  0  0  0  0  0  0  0  0  0  0
   -1.0339   -1.4341    0.2210 C   0  0  0  0  0  0  0  0  0  0  0  0
  1  2  1  0
  2  3  1  0
  3  4  1  0
  4  5  2  0
  4  6  1  0
  6  7  1  0
  7  8  2  0
  8  9  1  0
  9 10  2  0
  9 11  1  0
 11 12  1  0
 12 13  1  0
  8 14  1  0
 14 15  1  0
 15 16  2  0
 16 17  1  0
 17 18  2  0
 18 19  1  0
 19 20  2  0
 20  7  1  0
 20 15  1  0
M  END
>  <zinc_id>  (1) 
ZINC000000546444

>  <smiles>  (1) 
CCNC(=S)Nc1c(C(=O)OCC)[nH]c2ccccc12

$$$$
