
     RDKit          3D

 20 23  0  0  0  0  0  0  0  0999 V2000
   -0.7497    2.3284    0.9336 O   0  0  0  0  0  0  0  0  0  0  0  0
   -0.3051    1.2976    0.3872 C   0  0  0  0  0  0  0  0  0  0  0  0
    1.0977    1.1098    0.3468 N   0  0  0  0  0  0  0  0  0  0  0  0
    1.5922    0.5128   -1.0549 C   0  0  1  0  0  0  0  0  0  0  0  0
    3.0180    0.0336   -0.5113 C   0  0  0  0  0  0  0  0  0  0  0  0
    3.7211    0.8428    0.3018 C   0  0  0  0  0  0  0  0  0  0  0  0
    4.9702    0.3765    0.7332 C   0  0  0  0  0  0  0  0  0  0  0  0
    5.3902   -0.8523    0.3079 C   0  0  0  0  0  0  0  0  0  0  0  0
    4.6514   -1.6624   -0.5251 C   0  0  0  0  0  0  0  0  0  0  0  0
    3.4330   -1.1572   -0.9191 N   0  0  0  0  0  0  0  0  0  0  0  0
    0.8584   -0.8886   -0.7676 N   0  0  0  0  0  0  0  0  0  0  0  0
   -0.5829   -0.7694   -0.7630 C   0  0  0  0  0  0  0  0  0  0  0  0
   -1.8888   -1.7358   -1.3403 S   0  0  0  0  0  0  0  0  0  0  0  0
   -3.1910   -0.7500   -0.8492 C   0  0  0  0  0  0  0  0  0  0  0  0
   -2.5685    0.3122   -0.2453 C   0  0  0  0  0  0  0  0  0  0  0  0
   -1.2235    0.2930   -0.2058 C   0  0  0  0  0  0  0  0  0  0  0  0
   -3.5821    1.3261    0.2714 C   0  0  0  0  0  0  0  0  0  0  0  0
   -4.5513    0.5231    1.1119 C   0  0  0  0  0  0  0  0  0  0  0  0
   -5.4146   -0.2702    0.1638 C   0  0  0  0  0  0  0  0  0  0  0  0
   -4.6746   -0.8700   -0.9696 C   0  0  0  0  0  0  0  0  0  0  0  0
  1  2  2  0
  2  3  1  0
  3  4  1  0
  4  5  1  1
  5  6  2  0
  6  7  1  0
  7  8  2  0
  8  9  1  0
  9 10  2  0
  4 11  1  0
 11 12  1  0
 12 13  1  0
 13 14  1  0
 14 15  2  0
 15 16  1  0
 15 17  1  0
 17 18  1  0
 18 19  1  0
 19 20  1  0
 16  2  1  0
 10  5  1  0
 16 12  2  0
 20 14  1  0
M  END
>  <zinc_id>  (1) 
ZINC000000565722

>  <smiles>  (1) 
O=C1N[C@@H](c2ccccn2)Nc2sc3c(c21)CCCC3

$$$$
