
     RDKit          3D

 20 21  0  0  0  0  0  0  0  0999 V2000
    5.5627   -0.6834    1.0064 C   0  0  0  0  0  0  0  0  0  0  0  0
    5.0350    0.5656    0.2706 C   0  0  0  0  0  0  0  0  0  0  0  0
    5.5478    0.6680   -1.1173 C   0  0  0  0  0  0  0  0  0  0  0  0
    5.4976    1.7081    1.1237 C   0  0  0  0  0  0  0  0  0  0  0  0
    3.5318    0.5101    0.2537 C   0  0  0  0  0  0  0  0  0  0  0  0
    2.8565    0.1254   -0.8730 C   0  0  0  0  0  0  0  0  0  0  0  0
    1.4601    0.1036   -0.8980 C   0  0  0  0  0  0  0  0  0  0  0  0
    0.7125    0.4706    0.2181 C   0  0  0  0  0  0  0  0  0  0  0  0
   -0.6781    0.4663    0.1901 O   0  0  0  0  0  0  0  0  0  0  0  0
   -1.4140   -0.6816   -0.0311 C   0  0  0  0  0  0  0  0  0  0  0  0
   -0.7958   -1.7268   -0.2440 O   0  0  0  0  0  0  0  0  0  0  0  0
   -2.8744   -0.7155   -0.0344 C   0  0  0  0  0  0  0  0  0  0  0  0
   -3.5496   -1.8809   -0.3244 C   0  0  0  0  0  0  0  0  0  0  0  0
   -4.9422   -1.9683   -0.3029 C   0  0  0  0  0  0  0  0  0  0  0  0
   -5.6709   -0.8416    0.0138 C   0  0  0  0  0  0  0  0  0  0  0  0
   -5.0252    0.3293    0.3040 C   0  0  0  0  0  0  0  0  0  0  0  0
   -5.8280    1.4408    0.6159 N   0  0  0  0  0  0  0  0  0  0  0  0
   -3.6211    0.3912    0.2804 C   0  0  0  0  0  0  0  0  0  0  0  0
    1.4024    0.8499    1.3469 C   0  0  0  0  0  0  0  0  0  0  0  0
    2.7928    0.8693    1.3697 C   0  0  0  0  0  0  0  0  0  0  0  0
  1  2  1  0
  2  3  1  0
  2  4  1  0
  2  5  1  0
  5  6  2  0
  6  7  1  0
  7  8  2  0
  8  9  1  0
  9 10  1  0
 10 11  2  0
 10 12  1  0
 12 13  2  0
 13 14  1  0
 14 15  2  0
 15 16  1  0
 16 17  1  0
 16 18  2  0
  8 19  1  0
 19 20  2  0
 20  5  1  0
 18 12  1  0
M  END
>  <zinc_id>  (1) 
ZINC000000991276

>  <smiles>  (1) 
CC(C)(C)c1ccc(OC(=O)c2cccc(N)c2)cc1

$$$$
