
     RDKit          3D

 18 18  0  0  0  0  0  0  0  0999 V2000
   -0.6197    1.6196   -1.1692 C   0  0  0  0  0  0  0  0  0  0  0  0
   -1.0291    1.0588   -0.0435 C   0  0  0  0  0  0  0  0  0  0  0  0
   -0.1940    1.1416    1.0720 N   0  0  0  0  0  0  0  0  0  0  0  0
    1.1256    0.8471    1.2150 N   0  0  0  0  0  0  0  0  0  0  0  0
    1.9654    0.2238    0.2610 C   0  0  0  0  0  0  0  0  0  0  0  0
    1.4671   -0.1009   -0.8369 O   0  0  0  0  0  0  0  0  0  0  0  0
    3.3263   -0.0235    0.5410 O   0  0  0  0  0  0  0  0  0  0  0  0
    4.1042   -0.6467   -0.4633 C   0  0  0  0  0  0  0  0  0  0  0  0
    3.4950   -1.9784   -0.7720 C   0  0  0  0  0  0  0  0  0  0  0  0
    5.4772   -0.9228    0.1633 C   0  0  0  0  0  0  0  0  0  0  0  0
    4.2876    0.2119   -1.6782 C   0  0  0  0  0  0  0  0  0  0  0  0
   -2.3233    0.3977   -0.0572 C   0  0  0  0  0  0  0  0  0  0  0  0
   -3.0507    0.3042   -1.2105 C   0  0  0  0  0  0  0  0  0  0  0  0
   -4.2965   -0.3160   -1.2648 C   0  0  0  0  0  0  0  0  0  0  0  0
   -4.8258   -0.8600   -0.1162 C   0  0  0  0  0  0  0  0  0  0  0  0
   -4.1037   -0.7744    1.0598 C   0  0  0  0  0  0  0  0  0  0  0  0
   -2.8655   -0.1526    1.0914 C   0  0  0  0  0  0  0  0  0  0  0  0
   -1.9401   -0.0296    2.5683 Cl  0  0  0  0  0  0  0  0  0  0  0  0
  1  2  2  0
  2  3  1  0
  3  4  1  0
  4  5  1  0
  5  6  2  0
  5  7  1  0
  7  8  1  0
  8  9  1  0
  8 10  1  0
  8 11  1  0
  2 12  1  0
 12 13  2  0
 13 14  1  0
 14 15  2  0
 15 16  1  0
 16 17  2  0
 17 18  1  0
 17 12  1  0
M  END
>  <zinc_id>  (1) 
ZINC000003288034

>  <smiles>  (1) 
C=C(NNC(=O)OC(C)(C)C)c1ccccc1Cl

$$$$
