
     RDKit          3D

 19 21  0  0  0  0  0  0  0  0999 V2000
    2.8455   -1.6856    0.5237 C   0  0  0  0  0  0  0  0  0  0  0  0
    3.3576   -0.1277    0.6670 C   0  0  1  0  0  0  0  0  0  0  0  0
    4.8469   -0.4855    0.1029 C   0  0  0  0  0  0  0  0  0  0  0  0
    5.2625    0.6021   -0.8180 C   0  0  0  0  0  0  0  0  0  0  0  0
    4.6364    1.9232   -0.5363 C   0  0  0  0  0  0  0  0  0  0  0  0
    3.1539    1.8950   -0.6800 C   0  0  0  0  0  0  0  0  0  0  0  0
    2.7623    0.2849   -0.8896 C   0  0  2  0  0  0  0  0  0  0  0  0
    1.3144    0.5347   -0.3478 N   0  0  0  0  0  0  0  0  0  0  0  0
    0.3958   -0.4345   -0.7554 C   0  0  0  0  0  0  0  0  0  0  0  0
    0.7739   -1.3825   -1.4828 O   0  0  0  0  0  0  0  0  0  0  0  0
   -0.9994   -0.3399   -0.3350 C   0  0  0  0  0  0  0  0  0  0  0  0
   -1.9950   -1.1721   -0.6190 N   0  0  0  0  0  0  0  0  0  0  0  0
   -3.1455   -0.7272   -0.0411 C   0  0  0  0  0  0  0  0  0  0  0  0
   -4.4465   -1.1837   -0.0056 C   0  0  0  0  0  0  0  0  0  0  0  0
   -5.4395   -0.5168    0.6758 C   0  0  0  0  0  0  0  0  0  0  0  0
   -5.1205    0.6381    1.3402 C   0  0  0  0  0  0  0  0  0  0  0  0
   -3.8335    1.1075    1.3173 C   0  0  0  0  0  0  0  0  0  0  0  0
   -2.8407    0.4321    0.6292 C   0  0  0  0  0  0  0  0  0  0  0  0
   -1.5286    0.6377    0.4288 N   0  0  0  0  0  0  0  0  0  0  0  0
  2  1  1  6
  2  3  1  0
  3  4  1  0
  4  5  1  0
  5  6  1  0
  6  7  1  0
  7  8  1  1
  8  9  1  0
  9 10  2  0
  9 11  1  0
 11 12  2  0
 12 13  1  0
 13 14  2  0
 14 15  1  0
 15 16  2  0
 16 17  1  0
 17 18  2  0
 18 19  1  0
  7  2  1  0
 19 11  1  0
 18 13  1  0
M  END
>  <zinc_id>  (1) 
ZINC000001446486

>  <smiles>  (1) 
C[C@H]1CCCC[C@@H]1NC(=O)c1nc2ccccc2[nH]1

$$$$
