
     RDKit          3D

 19 21  0  0  0  0  0  0  0  0999 V2000
   -3.7722   -1.1138   -0.8485 C   0  0  0  0  0  0  0  0  0  0  0  0
   -2.7437   -0.3542   -1.6368 C   0  0  0  0  0  0  0  0  0  0  0  0
   -2.5015   -0.9390   -3.0042 C   0  0  0  0  0  0  0  0  0  0  0  0
   -1.5071   -0.1740   -0.8960 N   0  0  0  0  0  0  0  0  0  0  0  0
   -0.2798   -0.6856   -1.1835 C   0  0  0  0  0  0  0  0  0  0  0  0
    0.6105   -0.2656   -0.2201 C   0  0  0  0  0  0  0  0  0  0  0  0
    2.0261   -0.6060   -0.1817 C   0  0  0  0  0  0  0  0  0  0  0  0
    2.5206   -1.8733   -0.3951 C   0  0  0  0  0  0  0  0  0  0  0  0
    3.8737   -2.1229   -0.3435 C   0  0  0  0  0  0  0  0  0  0  0  0
    4.7667   -1.1245   -0.0799 C   0  0  0  0  0  0  0  0  0  0  0  0
    4.3009    0.1531    0.1377 C   0  0  0  0  0  0  0  0  0  0  0  0
    2.9449    0.3859    0.0826 C   0  0  0  0  0  0  0  0  0  0  0  0
   -0.1232    0.5124    0.6513 C   0  0  0  0  0  0  0  0  0  0  0  0
    0.1990    1.1767    1.7587 N   0  0  0  0  0  0  0  0  0  0  0  0
   -0.7292    1.8861    2.4539 C   0  0  0  0  0  0  0  0  0  0  0  0
   -1.9918    1.9361    2.0441 N   0  0  0  0  0  0  0  0  0  0  0  0
   -2.3995    1.2924    0.9343 C   0  0  0  0  0  0  0  0  0  0  0  0
   -3.7524    1.3497    0.5008 N   0  0  0  0  0  0  0  0  0  0  0  0
   -1.4420    0.5665    0.2259 C   0  0  0  0  0  0  0  0  0  0  0  0
  1  2  1  0
  2  3  1  0
  2  4  1  0
  4  5  1  0
  5  6  2  0
  6  7  1  0
  7  8  2  0
  8  9  1  0
  9 10  2  0
 10 11  1  0
 11 12  2  0
  6 13  1  0
 13 14  2  0
 14 15  1  0
 15 16  2  0
 16 17  1  0
 17 18  1  0
 17 19  2  0
 19  4  1  0
 12  7  1  0
 19 13  1  0
M  END
>  <zinc_id>  (1) 
ZINC000000007265

>  <smiles>  (1) 
CC(C)n1cc(-c2ccccc2)c2ncnc(N)c21

$$$$
