
     RDKit          3D

 19 20  0  0  0  0  0  0  0  0999 V2000
   -2.7711    3.3616    0.5118 C   0  0  0  0  0  0  0  0  0  0  0  0
   -3.1906    2.5890   -0.7488 C   0  0  0  0  0  0  0  0  0  0  0  0
   -2.9666    1.2010   -0.5682 O   0  0  0  0  0  0  0  0  0  0  0  0
   -1.7805    0.6259   -0.3228 C   0  0  0  0  0  0  0  0  0  0  0  0
   -0.6577    1.6796   -0.2268 C   0  0  0  0  0  0  0  0  0  0  0  0
    0.5240    1.1394    0.0191 C   0  0  0  0  0  0  0  0  0  0  0  0
    0.9615   -0.1232    0.2155 C   0  0  0  0  0  0  0  0  0  0  0  0
    2.3488   -0.4708    0.4605 C   0  0  0  0  0  0  0  0  0  0  0  0
    3.4033    0.4632    0.4269 C   0  0  0  0  0  0  0  0  0  0  0  0
    4.5761   -0.1884    0.6684 C   0  0  0  0  0  0  0  0  0  0  0  0
    5.8869    0.3842    0.7219 N   0  0  0  0  0  0  0  0  0  0  0  0
    4.2722   -1.4506    0.8412 O   0  0  0  0  0  0  0  0  0  0  0  0
    2.9706   -1.6004    0.7147 N   0  0  0  0  0  0  0  0  0  0  0  0
   -0.0663   -1.1068    0.1376 C   0  0  0  0  0  0  0  0  0  0  0  0
   -1.3529   -0.5565   -0.1334 C   0  0  0  0  0  0  0  0  0  0  0  0
   -2.3690   -1.8254   -0.3230 C   0  0  1  0  0  0  0  0  0  0  0  0
   -2.2857   -2.3140    1.2019 C   0  0  0  0  0  0  0  0  0  0  0  0
   -3.7307   -1.2831   -0.5228 C   0  0  0  0  0  0  0  0  0  0  0  0
   -3.7722   -0.5247   -1.8499 C   0  0  0  0  0  0  0  0  0  0  0  0
  1  2  1  0
  2  3  1  0
  3  4  1  0
  4  5  2  0
  5  6  1  0
  6  7  2  0
  7  8  1  0
  8  9  1  0
  9 10  2  0
 10 11  1  0
 10 12  1  0
 12 13  1  0
  7 14  1  0
 14 15  2  0
 15 16  1  0
 16 17  1  1
 16 18  1  0
 18 19  1  0
 15  4  1  0
 13  8  2  0
M  END
>  <zinc_id>  (1) 
ZINC000003704575

>  <smiles>  (1) 
CCOc1ccc(-c2cc(N)on2)cc1[C@@H](C)CC

$$$$
