
     RDKit          3D

 19 21  0  0  0  0  0  0  0  0999 V2000
    5.1395    1.3783    0.2449 C   0  0  0  0  0  0  0  0  0  0  0  0
    4.2656    0.3285   -0.3129 C   0  0  0  0  0  0  0  0  0  0  0  0
    3.3138    0.7119   -1.3867 C   0  0  0  0  0  0  0  0  0  0  0  0
    4.2823   -0.8975    0.0785 N   0  0  0  0  0  0  0  0  0  0  0  0
    3.4774   -1.8921   -0.4268 N   0  0  0  0  0  0  0  0  0  0  0  0
    2.0335   -1.7587   -0.4365 C   0  0  0  0  0  0  0  0  0  0  0  0
    1.3236   -0.7400    0.0046 N   0  0  0  0  0  0  0  0  0  0  0  0
    0.0146   -0.7863   -0.0826 C   0  0  0  0  0  0  0  0  0  0  0  0
   -0.8495    0.3357    0.3991 C   0  0  0  0  0  0  0  0  0  0  0  0
   -0.4520    1.5222    0.9739 C   0  0  0  0  0  0  0  0  0  0  0  0
   -1.5043    2.2617    1.2672 N   0  0  0  0  0  0  0  0  0  0  0  0
   -2.5967    1.5960    0.9012 C   0  0  0  0  0  0  0  0  0  0  0  0
   -3.9500    1.9226    0.9863 C   0  0  0  0  0  0  0  0  0  0  0  0
   -4.9029    1.0443    0.5279 C   0  0  0  0  0  0  0  0  0  0  0  0
   -4.5126   -0.1575   -0.0148 C   0  0  0  0  0  0  0  0  0  0  0  0
   -3.1828   -0.5046   -0.1106 C   0  0  0  0  0  0  0  0  0  0  0  0
   -2.2213    0.3942    0.3578 C   0  0  0  0  0  0  0  0  0  0  0  0
   -0.5293   -1.9161   -0.6383 C   0  0  0  0  0  0  0  0  0  0  0  0
    0.8511   -2.8427   -1.0027 S   0  0  0  0  0  0  0  0  0  0  0  0
  1  2  1  0
  2  3  1  0
  2  4  2  3
  4  5  1  0
  5  6  1  0
  6  7  2  0
  7  8  1  0
  8  9  1  0
  9 10  2  0
 10 11  1  0
 11 12  1  0
 12 13  2  0
 13 14  1  0
 14 15  2  0
 15 16  1  0
 16 17  2  0
  8 18  2  0
 18 19  1  0
 19  6  1  0
 17  9  1  0
 17 12  1  0
M  END
>  <zinc_id>  (1) 
ZINC000000495351

>  <smiles>  (1) 
CC(C)=NNc1nc(-c2c[nH]c3ccccc23)cs1

$$$$
