
     RDKit          3D

 21 22  0  0  0  0  0  0  0  0999 V2000
   -5.6513   -0.3393   -1.5057 C   0  0  0  0  0  0  0  0  0  0  0  0
   -4.8376    0.2126   -0.3640 C   0  0  0  0  0  0  0  0  0  0  0  0
   -5.4879    0.8433    0.6927 C   0  0  0  0  0  0  0  0  0  0  0  0
   -4.7310    1.3569    1.7508 C   0  0  0  0  0  0  0  0  0  0  0  0
   -3.3583    1.2610    1.7882 C   0  0  0  0  0  0  0  0  0  0  0  0
   -2.6780    1.7925    2.8679 O   0  0  0  0  0  0  0  0  0  0  0  0
   -2.7155    0.6345    0.7411 C   0  0  0  0  0  0  0  0  0  0  0  0
   -1.3130    0.4801    0.6871 N   0  0  0  0  0  0  0  0  0  0  0  0
   -0.5854   -0.1336   -0.3375 C   0  0  0  0  0  0  0  0  0  0  0  0
   -1.2420   -0.5978   -1.3247 O   0  0  0  0  0  0  0  0  0  0  0  0
    0.8793   -0.2726   -0.3364 C   0  0  0  0  0  0  0  0  0  0  0  0
    1.5756   -0.4807   -1.5016 C   0  0  0  0  0  0  0  0  0  0  0  0
    2.9666   -0.6284   -1.5123 C   0  0  0  0  0  0  0  0  0  0  0  0
    3.6999   -0.5701   -0.3531 C   0  0  0  0  0  0  0  0  0  0  0  0
    5.1768   -0.7263   -0.3614 C   0  0  0  0  0  0  0  0  0  0  0  0
    5.5672   -2.1485   -0.7135 C   0  0  0  0  0  0  0  0  0  0  0  0
    5.8586    0.1902   -1.3378 C   0  0  0  0  0  0  0  0  0  0  0  0
    5.7582   -0.4296    1.0196 C   0  0  0  0  0  0  0  0  0  0  0  0
    2.9814   -0.3574    0.8302 C   0  0  0  0  0  0  0  0  0  0  0  0
    1.6082   -0.2136    0.8333 C   0  0  0  0  0  0  0  0  0  0  0  0
   -3.4719    0.1268   -0.3069 C   0  0  0  0  0  0  0  0  0  0  0  0
  1  2  1  0
  2  3  2  0
  3  4  1  0
  4  5  2  0
  5  6  1  0
  5  7  1  0
  7  8  1  0
  8  9  1  0
  9 10  2  0
  9 11  1  0
 11 12  2  0
 12 13  1  0
 13 14  2  0
 14 15  1  0
 15 16  1  0
 15 17  1  0
 15 18  1  0
 14 19  1  0
 19 20  2  0
  7 21  2  0
 21  2  1  0
 20 11  1  0
M  END
>  <zinc_id>  (1) 
ZINC000000383791

>  <smiles>  (1) 
Cc1ccc(O)c(NC(=O)c2ccc(C(C)(C)C)cc2)c1

$$$$
