
     RDKit          3D

 20 22  0  0  0  0  0  0  0  0999 V2000
   -0.6194    3.6893    1.2906 N   0  0  0  0  0  0  0  0  0  0  0  0
   -0.0801    2.8140    0.7624 C   0  0  0  0  0  0  0  0  0  0  0  0
    0.5999    1.6894    0.1136 C   0  0  0  0  0  0  0  0  0  0  0  0
    1.1122    1.7717   -1.0430 C   0  0  0  0  0  0  0  0  0  0  0  0
    0.9809    3.0682   -1.6934 N   0  0  0  0  0  0  0  0  0  0  0  0
    1.7365    0.7231   -1.6274 O   0  0  0  0  0  0  0  0  0  0  0  0
    1.8568   -0.4867   -1.0160 C   0  0  0  0  0  0  0  0  0  0  0  0
    1.3899   -0.6805    0.1235 C   0  0  0  0  0  0  0  0  0  0  0  0
    1.4507   -1.9627    0.9127 C   0  0  0  0  0  0  0  0  0  0  0  0
    2.4254   -2.9022    0.3649 C   0  0  0  0  0  0  0  0  0  0  0  0
    3.4092   -2.2363   -0.5513 C   0  0  0  0  0  0  0  0  0  0  0  0
    2.5620   -1.6531   -1.6868 C   0  0  0  0  0  0  0  0  0  0  0  0
    0.6145    0.3855    1.0200 C   0  0  2  0  0  0  0  0  0  0  0  0
   -0.8439   -0.1387    0.7469 C   0  0  0  0  0  0  0  0  0  0  0  0
   -1.7957    0.8096    0.8395 C   0  0  0  0  0  0  0  0  0  0  0  0
   -3.1330    0.4502    0.6209 C   0  0  0  0  0  0  0  0  0  0  0  0
   -3.4189   -0.8690    0.3182 C   0  0  0  0  0  0  0  0  0  0  0  0
   -4.7196   -1.2546    0.0982 F   0  0  0  0  0  0  0  0  0  0  0  0
   -2.4181   -1.8022    0.2340 C   0  0  0  0  0  0  0  0  0  0  0  0
   -1.1093   -1.4150    0.4552 C   0  0  0  0  0  0  0  0  0  0  0  0
  1  2  3  0
  2  3  1  0
  3  4  2  0
  4  5  1  0
  4  6  1  0
  6  7  1  0
  7  8  2  0
  8  9  1  0
  9 10  1  0
 10 11  1  0
 11 12  1  0
  8 13  1  0
 13 14  1  6
 14 15  2  0
 15 16  1  0
 16 17  2  0
 17 18  1  0
 17 19  1  0
 19 20  2  0
 13  3  1  0
 20 14  1  0
 12  7  1  0
M  END
>  <zinc_id>  (1) 
ZINC000000236108

>  <smiles>  (1) 
N#CC1=C(N)OC2=C(CCCC2)[C@@H]1c1ccc(F)cc1

$$$$
