
     RDKit          3D

 20 22  0  0  0  0  0  0  0  0999 V2000
    5.3894    1.2451   -0.4503 C   0  0  0  0  0  0  0  0  0  0  0  0
    4.7721   -0.0238   -0.1293 N   0  0  0  0  0  0  0  0  0  0  0  0
    5.6129   -1.1385    0.2553 C   0  0  0  0  0  0  0  0  0  0  0  0
    3.3423   -0.1270   -0.2055 C   0  0  0  0  0  0  0  0  0  0  0  0
    2.7163   -0.5052   -1.3752 C   0  0  0  0  0  0  0  0  0  0  0  0
    1.3443   -0.6082   -1.4621 C   0  0  0  0  0  0  0  0  0  0  0  0
    0.5349   -0.3337   -0.3693 C   0  0  0  0  0  0  0  0  0  0  0  0
   -0.9141   -0.4405   -0.4543 C   0  0  0  0  0  0  0  0  0  0  0  0
   -1.5380   -1.4927   -1.0448 N   0  0  0  0  0  0  0  0  0  0  0  0
   -2.8823   -1.5827   -1.1186 C   0  0  0  0  0  0  0  0  0  0  0  0
   -3.4585   -2.7131   -1.7513 N   0  0  0  0  0  0  0  0  0  0  0  0
   -3.6872   -0.6220   -0.6044 N   0  0  0  0  0  0  0  0  0  0  0  0
   -3.0801    0.4233   -0.0181 C   0  0  0  0  0  0  0  0  0  0  0  0
   -1.7113    0.5386    0.0702 C   0  0  0  0  0  0  0  0  0  0  0  0
   -1.0940    1.7152    0.7302 C   0  0  0  0  0  0  0  0  0  0  0  0
   -1.8523    1.9197    2.0243 C   0  0  0  0  0  0  0  0  0  0  0  0
   -3.3245    2.0327    1.8491 C   0  0  0  0  0  0  0  0  0  0  0  0
   -3.8835    1.5222    0.5710 C   0  0  0  0  0  0  0  0  0  0  0  0
    1.1707    0.0434    0.7945 C   0  0  0  0  0  0  0  0  0  0  0  0
    2.5428    0.1474    0.8848 C   0  0  0  0  0  0  0  0  0  0  0  0
  1  2  1  0
  2  3  1  0
  2  4  1  0
  4  5  2  0
  5  6  1  0
  6  7  2  0
  7  8  1  0
  8  9  2  0
  9 10  1  0
 10 11  1  0
 10 12  2  0
 12 13  1  0
 13 14  2  0
 14 15  1  0
 15 16  1  0
 16 17  1  0
 17 18  1  0
  7 19  1  0
 19 20  2  0
 20  4  1  0
 14  8  1  0
 18 13  1  0
M  END
>  <zinc_id>  (1) 
ZINC000001629654

>  <smiles>  (1) 
CN(C)c1ccc(-c2nc(N)nc3c2CCCC3)cc1

$$$$
