
     RDKit          3D

 20 22  0  0  0  0  0  0  0  0999 V2000
    1.7614    2.9806    1.1236 C   0  0  0  0  0  0  0  0  0  0  0  0
    1.2844    2.2506   -0.1261 C   0  0  0  0  0  0  0  0  0  0  0  0
    1.6013    3.0460   -1.3708 C   0  0  0  0  0  0  0  0  0  0  0  0
   -0.1756    1.9996    0.0352 C   0  0  0  0  0  0  0  0  0  0  0  0
   -0.1856    0.7227    0.8567 C   0  0  1  0  0  0  0  0  0  0  0  0
   -0.0696    1.0316    2.3405 C   0  0  0  0  0  0  0  0  0  0  0  0
   -1.4007   -0.0337    0.5291 C   0  0  0  0  0  0  0  0  0  0  0  0
   -1.6586   -1.2955    1.0352 C   0  0  0  0  0  0  0  0  0  0  0  0
   -2.8162   -1.9333    0.6810 C   0  0  0  0  0  0  0  0  0  0  0  0
   -3.7349   -1.3682   -0.1599 C   0  0  0  0  0  0  0  0  0  0  0  0
   -4.8951   -2.0069   -0.5152 O   0  0  0  0  0  0  0  0  0  0  0  0
   -3.4840   -0.0981   -0.6746 C   0  0  0  0  0  0  0  0  0  0  0  0
   -2.3324    0.5161   -0.3114 C   0  0  0  0  0  0  0  0  0  0  0  0
    1.0333    0.0136    0.3536 C   0  0  0  0  0  0  0  0  0  0  0  0
    1.3332   -1.3378    0.4164 C   0  0  0  0  0  0  0  0  0  0  0  0
    2.5157   -1.7796   -0.1202 C   0  0  0  0  0  0  0  0  0  0  0  0
    2.8320   -3.1374   -0.0649 O   0  0  0  0  0  0  0  0  0  0  0  0
    3.4184   -0.9071   -0.7241 C   0  0  0  0  0  0  0  0  0  0  0  0
    3.0859    0.4248   -0.7668 C   0  0  0  0  0  0  0  0  0  0  0  0
    1.8870    0.9121   -0.2289 C   0  0  0  0  0  0  0  0  0  0  0  0
  1  2  1  0
  2  3  1  0
  2  4  1  0
  4  5  1  0
  5  6  1  1
  5  7  1  0
  7  8  2  0
  8  9  1  0
  9 10  2  0
 10 11  1  0
 10 12  1  0
 12 13  2  0
  5 14  1  0
 14 15  2  0
 15 16  1  0
 16 17  1  0
 16 18  2  0
 18 19  1  0
 19 20  2  0
 20  2  1  0
 13  7  1  0
 20 14  1  0
M  END
>  <zinc_id>  (1) 
ZINC000002573673

>  <smiles>  (1) 
CC1(C)C[C@@](C)(c2ccc(O)cc2)c2cc(O)ccc21

$$$$
