
     RDKit          3D

 18 19  0  0  0  0  0  0  0  0999 V2000
   -0.2778    0.9598   -0.3200 C   0  0  0  0  0  0  0  0  0  0  0  0
   -1.0642    0.4353    1.0574 C   0  0  2  0  0  0  0  0  0  0  0  0
   -0.8007   -1.0859    0.7420 N   0  0  0  0  0  0  0  0  0  0  0  0
    0.5794   -1.3710    0.6667 C   0  0  0  0  0  0  0  0  0  0  0  0
    1.0265   -2.9185    0.3436 S   0  0  0  0  0  0  0  0  0  0  0  0
    1.5100   -0.3481    0.8653 N   0  0  0  0  0  0  0  0  0  0  0  0
    2.9336   -0.4642    0.8241 C   0  0  0  0  0  0  0  0  0  0  0  0
    3.3134   -0.9548   -0.5583 C   0  0  0  0  0  0  0  0  0  0  0  0
    4.5557   -0.2954   -1.0876 C   0  0  0  0  0  0  0  0  0  0  0  0
    4.3949    1.2068   -1.2265 C   0  0  0  0  0  0  0  0  0  0  0  0
    3.2819    1.6853   -0.2935 C   0  0  0  0  0  0  0  0  0  0  0  0
    3.5038    0.9279    1.0205 C   0  0  0  0  0  0  0  0  0  0  0  0
   -2.5593    0.4394    0.4522 C   0  0  0  0  0  0  0  0  0  0  0  0
   -3.3804   -0.5910    0.8474 C   0  0  0  0  0  0  0  0  0  0  0  0
   -4.6766   -0.6373    0.3632 C   0  0  0  0  0  0  0  0  0  0  0  0
   -5.0856    0.3249   -0.4747 N   0  0  0  0  0  0  0  0  0  0  0  0
   -4.2717    1.3169   -0.8461 C   0  0  0  0  0  0  0  0  0  0  0  0
   -2.9831    1.3695   -0.3692 C   0  0  0  0  0  0  0  0  0  0  0  0
  2  1  1  6
  2  3  1  0
  3  4  1  0
  4  5  2  0
  4  6  1  0
  6  7  1  0
  7  8  1  0
  8  9  1  0
  9 10  1  0
 10 11  1  0
 11 12  1  0
  2 13  1  0
 13 14  2  0
 14 15  1  0
 15 16  2  0
 16 17  1  0
 17 18  2  0
 12  7  1  0
 18 13  1  0
M  END
>  <zinc_id>  (1) 
ZINC000000610972

>  <smiles>  (1) 
C[C@H](NC(=S)NC1CCCCC1)c1ccncc1

$$$$
