
     RDKit          3D

 18 19  0  0  0  0  0  0  0  0999 V2000
    4.3425   -1.2200    1.1640 C   0  0  0  0  0  0  0  0  0  0  0  0
    3.2162   -1.2138   -0.0095 C   0  0  2  0  0  0  0  0  0  0  0  0
    4.1013   -0.3896   -1.0867 C   0  0  0  0  0  0  0  0  0  0  0  0
    4.8930    0.6491   -0.4309 C   0  0  0  0  0  0  0  0  0  0  0  0
    4.0299    1.8181   -0.0014 C   0  0  0  0  0  0  0  0  0  0  0  0
    2.7992    1.2189    0.5437 C   0  0  0  0  0  0  0  0  0  0  0  0
    2.4222    0.0207    0.5688 C   0  0  0  0  0  0  0  0  0  0  0  0
    1.1973   -0.3918    1.1371 N   0  0  0  0  0  0  0  0  0  0  0  0
    0.0095    0.0936    0.6025 N   0  0  0  0  0  0  0  0  0  0  0  0
   -1.1857   -0.6457    0.5430 C   0  0  0  0  0  0  0  0  0  0  0  0
   -1.2085   -1.7995    0.9859 O   0  0  0  0  0  0  0  0  0  0  0  0
   -2.3552    0.0114   -0.0532 C   0  0  0  0  0  0  0  0  0  0  0  0
   -2.3015    1.2924   -0.5370 C   0  0  0  0  0  0  0  0  0  0  0  0
   -3.4000    1.9090   -1.0969 C   0  0  0  0  0  0  0  0  0  0  0  0
   -4.6238    1.2541   -1.1976 C   0  0  0  0  0  0  0  0  0  0  0  0
   -4.6575   -0.0290   -0.7071 C   0  0  0  0  0  0  0  0  0  0  0  0
   -3.5718   -0.6442   -0.1515 C   0  0  0  0  0  0  0  0  0  0  0  0
   -3.7069   -1.9336    0.3119 O   0  0  0  0  0  0  0  0  0  0  0  0
  2  1  1  1
  2  3  1  0
  3  4  1  0
  4  5  1  0
  5  6  1  0
  6  7  2  0
  7  8  1  0
  8  9  1  0
  9 10  1  0
 10 11  2  0
 10 12  1  0
 12 13  2  0
 13 14  1  0
 14 15  2  0
 15 16  1  0
 16 17  2  0
 17 18  1  0
  7  2  1  0
 17 12  1  0
M  END
>  <zinc_id>  (1) 
ZINC000002790609

>  <smiles>  (1) 
C[C@@H]1CCCC=C1NNC(=O)c1ccccc1O

$$$$
