
     RDKit          3D

 21 22  0  0  0  0  0  0  0  0999 V2000
    3.3200   -1.2225    1.8513 C   0  0  0  0  0  0  0  0  0  0  0  0
    3.6814   -0.3795    0.6983 C   0  0  0  0  0  0  0  0  0  0  0  0
    5.0806   -0.2144    0.4132 C   0  0  0  0  0  0  0  0  0  0  0  0
    5.2781    0.5698   -0.7214 C   0  0  0  0  0  0  0  0  0  0  0  0
    6.6749    0.7853   -1.0888 O   0  0  0  0  0  0  0  0  0  0  0  0
    4.3699    1.1089   -1.4657 C   0  0  0  0  0  0  0  0  0  0  0  0
    3.0080    0.9285   -1.1628 C   0  0  0  0  0  0  0  0  0  0  0  0
    2.6930    0.1764   -0.0635 C   0  0  0  0  0  0  0  0  0  0  0  0
    1.2966   -0.0016    0.3176 N   0  0  0  0  0  0  0  0  0  0  0  0
    0.3385    0.1457   -0.7595 C   0  0  0  0  0  0  0  0  0  0  0  0
    0.7534    0.3825   -1.8705 O   0  0  0  0  0  0  0  0  0  0  0  0
   -1.0924   -0.0047   -0.4457 C   0  0  0  0  0  0  0  0  0  0  0  0
   -1.4833    0.6526    0.7732 C   0  0  0  0  0  0  0  0  0  0  0  0
   -2.7840    0.4485    1.1378 C   0  0  0  0  0  0  0  0  0  0  0  0
   -3.7386   -0.2378    0.5675 C   0  0  0  0  0  0  0  0  0  0  0  0
   -5.1370   -0.3803    1.0894 C   0  0  0  0  0  0  0  0  0  0  0  0
   -5.6818    0.9833    1.5147 C   0  0  0  0  0  0  0  0  0  0  0  0
   -5.1335   -1.2214    2.3221 C   0  0  0  0  0  0  0  0  0  0  0  0
   -6.0236   -0.9030   -0.0322 C   0  0  0  0  0  0  0  0  0  0  0  0
   -3.3855   -0.9048   -0.6722 C   0  0  0  0  0  0  0  0  0  0  0  0
   -2.0346   -0.7114   -1.0685 C   0  0  0  0  0  0  0  0  0  0  0  0
  1  2  1  0
  2  3  2  0
  3  4  1  0
  4  5  1  0
  4  6  2  0
  6  7  1  0
  7  8  2  0
  8  9  1  0
  9 10  1  0
 10 11  2  0
 10 12  1  0
 12 13  2  0
 13 14  1  0
 14 15  2  0
 15 16  1  0
 16 17  1  0
 16 18  1  0
 16 19  1  0
 15 20  1  0
 20 21  2  0
  8  2  1  0
 21 12  1  0
M  END
>  <zinc_id>  (1) 
ZINC000000383792

>  <smiles>  (1) 
Cc1cc(O)ccc1NC(=O)c1ccc(C(C)(C)C)cc1

$$$$
