
     RDKit          3D

 21 22  0  0  0  0  0  0  0  0999 V2000
    0.4900   -1.6502    0.1462 O   0  0  0  0  0  0  0  0  0  0  0  0
    0.0217   -0.4571    0.2480 C   0  0  0  0  0  0  0  0  0  0  0  0
    0.8648    0.4425    0.9574 N   0  0  0  0  0  0  0  0  0  0  0  0
    2.1178    0.0531    1.5101 C   0  0  0  0  0  0  0  0  0  0  0  0
    2.7074   -1.2178    1.0897 C   0  0  0  0  0  0  0  0  0  0  0  0
    3.3254   -1.2214   -0.2852 C   0  0  0  0  0  0  0  0  0  0  0  0
    3.8823    0.1144   -0.7133 C   0  0  0  0  0  0  0  0  0  0  0  0
    5.2944    0.1900   -0.1421 C   0  0  0  0  0  0  0  0  0  0  0  0
    5.1719    0.6744    1.2989 C   0  0  0  0  0  0  0  0  0  0  0  0
    4.0286    1.6676    1.3053 C   0  0  0  0  0  0  0  0  0  0  0  0
    2.9178    1.0886    2.1334 C   0  0  0  0  0  0  0  0  0  0  0  0
   -1.2678   -0.1481   -0.3413 C   0  0  0  0  0  0  0  0  0  0  0  0
   -2.4497   -0.3004    0.3650 C   0  0  0  0  0  0  0  0  0  0  0  0
   -3.6815   -0.0497   -0.1668 C   0  0  0  0  0  0  0  0  0  0  0  0
   -4.9011   -0.2308    0.5480 N   0  0  0  0  0  4  0  0  0  0  0  0
   -6.0009   -0.1063   -0.0670 O   0  0  0  0  0  0  0  0  0  0  0  0
   -4.9499   -0.5518    1.8765 O   0  0  0  0  0  1  0  0  0  0  0  0
   -3.7403    0.3801   -1.4888 C   0  0  0  0  0  0  0  0  0  0  0  0
   -2.5911    0.5524   -2.2543 C   0  0  0  0  0  0  0  0  0  0  0  0
   -1.3784    0.2881   -1.6734 C   0  0  0  0  0  0  0  0  0  0  0  0
    0.1386    0.4825   -2.5399 Cl  0  0  0  0  0  0  0  0  0  0  0  0
  1  2  2  0
  2  3  1  0
  3  4  1  0
  4  5  1  0
  5  6  1  0
  6  7  1  0
  7  8  1  0
  8  9  1  0
  9 10  1  0
 10 11  1  0
  2 12  1  0
 12 13  2  0
 13 14  1  0
 14 15  1  0
 15 16  2  0
 15 17  1  0
 14 18  2  0
 18 19  1  0
 19 20  2  0
 20 21  1  0
 11  4  1  0
 20 12  1  0
M  CHG  2  15   1  17  -1
M  END
>  <zinc_id>  (1) 
ZINC000000451771

>  <smiles>  (1) 
O=C(NC1CCCCCCC1)c1cc([N+](=O)[O-])ccc1Cl

$$$$
