
     RDKit          3D

 19 20  0  0  0  0  0  0  0  0999 V2000
    5.4855   -1.6507   -0.0501 C   0  0  0  0  0  0  0  0  0  0  0  0
    4.0722   -1.6392    0.0144 O   0  0  0  0  0  0  0  0  0  0  0  0
    3.3067   -0.5170   -0.2475 C   0  0  0  0  0  0  0  0  0  0  0  0
    3.8792    0.5496   -0.5588 O   0  0  0  0  0  0  0  0  0  0  0  0
    1.8886   -0.5139   -0.1803 N   0  0  0  0  0  0  0  0  0  0  0  0
    1.0973    0.5806   -0.4334 N   0  0  0  0  0  0  0  0  0  0  0  0
   -0.3203    0.4173   -0.3456 C   0  0  0  0  0  0  0  0  0  0  0  0
   -1.0878    1.4583   -0.5397 C   0  0  0  0  0  0  0  0  0  0  0  0
   -0.5144    2.7740   -0.8419 C   0  0  0  0  0  0  0  0  0  0  0  0
   -0.9468    3.7488    0.2307 C   0  0  0  0  0  0  0  0  0  0  0  0
   -2.4201    3.6146    0.4905 C   0  0  0  0  0  0  0  0  0  0  0  0
   -3.1185    2.7364   -0.5004 C   0  0  0  0  0  0  0  0  0  0  0  0
   -2.5490    1.3119   -0.4543 C   0  0  0  0  0  0  0  0  0  0  0  0
   -0.8942   -0.9059   -0.0407 C   0  0  0  0  0  0  0  0  0  0  0  0
   -2.0268   -1.0218    0.7541 C   0  0  0  0  0  0  0  0  0  0  0  0
   -2.6024   -2.2333    1.0679 C   0  0  0  0  0  0  0  0  0  0  0  0
   -2.0224   -3.3729    0.5671 C   0  0  0  0  0  0  0  0  0  0  0  0
   -0.8960   -3.2771   -0.2247 C   0  0  0  0  0  0  0  0  0  0  0  0
   -0.3308   -2.0598   -0.5309 C   0  0  0  0  0  0  0  0  0  0  0  0
  1  2  1  0
  2  3  1  0
  3  4  2  0
  3  5  1  0
  5  6  1  0
  6  7  1  0
  7  8  2  3
  8  9  1  0
  9 10  1  0
 10 11  1  0
 11 12  1  0
 12 13  1  0
  7 14  1  0
 14 15  2  0
 15 16  1  0
 16 17  2  0
 17 18  1  0
 18 19  2  0
 13  8  1  0
 19 14  1  0
M  END
>  <zinc_id>  (1) 
ZINC000003262357

>  <smiles>  (1) 
COC(=O)NNC(=C1CCCCC1)c1ccccc1

$$$$
