
     RDKit          3D

 20 23  0  0  0  0  0  0  0  0999 V2000
   -3.5480    2.0151    1.4428 C   0  0  0  0  0  0  0  0  0  0  0  0
   -2.1780    2.1076    1.5137 C   0  0  0  0  0  0  0  0  0  0  0  0
   -1.3529    1.2377    0.8619 C   0  0  0  0  0  0  0  0  0  0  0  0
   -1.9137    0.2296    0.1050 C   0  0  0  0  0  0  0  0  0  0  0  0
   -3.3008    0.1144    0.0171 C   0  0  0  0  0  0  0  0  0  0  0  0
   -4.0999    1.0157    0.6924 C   0  0  0  0  0  0  0  0  0  0  0  0
   -3.5501   -0.9398   -0.7742 N   0  0  0  0  0  0  0  0  0  0  0  0
   -2.3502   -1.4472   -1.1536 C   0  0  0  0  0  0  0  0  0  0  0  0
   -1.8297   -2.4457   -1.9022 N   0  0  0  0  0  0  0  0  0  0  0  0
   -0.5220   -2.3607   -1.8370 N   0  0  0  0  0  0  0  0  0  0  0  0
   -0.1795   -1.3181   -1.0544 C   0  0  0  0  0  0  0  0  0  0  0  0
    1.4758   -0.7752   -0.6454 S   0  0  0  0  0  0  0  0  0  0  0  0
    1.3843    0.6664    0.4362 C   0  0  0  0  0  0  0  0  0  0  0  0
    2.7957    1.1000    0.7628 C   0  0  0  0  0  0  0  0  0  0  0  0
    3.5888    0.0348    1.4591 C   0  0  0  0  0  0  0  0  0  0  0  0
    4.8400   -0.3491    0.6939 C   0  0  0  0  0  0  0  0  0  0  0  0
    4.5855   -0.5298   -0.7715 C   0  0  0  0  0  0  0  0  0  0  0  0
    3.9787    0.6967   -1.4016 C   0  0  0  0  0  0  0  0  0  0  0  0
    3.5068    1.7103   -0.4119 C   0  0  0  0  0  0  0  0  0  0  0  0
   -1.3306   -0.7627   -0.6390 N   0  0  0  0  0  0  0  0  0  0  0  0
  1  2  2  0
  2  3  1  0
  3  4  2  0
  4  5  1  0
  5  6  2  0
  5  7  1  0
  7  8  1  0
  8  9  2  0
  9 10  1  0
 10 11  2  0
 11 12  1  0
 12 13  1  0
 13 14  1  0
 14 15  1  0
 15 16  1  0
 16 17  1  0
 17 18  1  0
 18 19  1  0
 11 20  1  0
  6  1  1  0
 20  8  1  0
 20  4  1  0
 19 14  1  0
M  END
>  <zinc_id>  (1) 
ZINC000004268527

>  <smiles>  (1) 
c1ccc2c(c1)[nH]c1nnc(SCC3CCCCC3)n12

$$$$
