
     RDKit          3D

 20 23  0  0  0  0  0  0  0  0999 V2000
    6.2166   -0.5828    0.9220 O   0  0  0  0  0  0  0  0  0  0  0  0
    5.1397    0.0212    0.3308 N   0  0  0  0  0  0  0  0  0  0  0  0
    3.9227   -0.2781    0.5683 C   0  0  0  0  0  0  0  0  0  0  0  0
    3.4626   -1.3177    1.5125 C   0  0  0  0  0  0  0  0  0  0  0  0
    2.0514   -1.6481    1.1566 C   0  0  0  0  0  0  0  0  0  0  0  0
    1.6233   -0.4901    0.3356 C   0  0  0  0  0  0  0  0  0  0  0  0
    2.7080    0.3030   -0.0059 C   0  0  0  0  0  0  0  0  0  0  0  0
    2.1985    1.3102   -0.7431 N   0  0  0  0  0  0  0  0  0  0  0  0
    0.8764    1.2192   -0.8965 C   0  0  0  0  0  0  0  0  0  0  0  0
   -0.0562    2.0205   -1.5677 C   0  0  0  0  0  0  0  0  0  0  0  0
   -1.3806    1.6364   -1.5307 C   0  0  0  0  0  0  0  0  0  0  0  0
   -1.8161    0.5079   -0.8666 C   0  0  0  0  0  0  0  0  0  0  0  0
   -3.2437    0.1923   -0.8908 C   0  0  0  0  0  0  0  0  0  0  0  0
   -3.5844   -1.2322   -0.6548 C   0  0  0  0  0  0  0  0  0  0  0  0
   -4.6308   -1.4697    0.3839 C   0  0  0  0  0  0  0  0  0  0  0  0
   -4.3651   -0.5492    1.5456 C   0  0  0  0  0  0  0  0  0  0  0  0
   -4.6178    0.8566    1.1057 C   0  0  0  0  0  0  0  0  0  0  0  0
   -4.1324    1.1874   -0.2558 C   0  0  0  0  0  0  0  0  0  0  0  0
   -0.8496   -0.2384   -0.2257 C   0  0  0  0  0  0  0  0  0  0  0  0
    0.4774    0.0861   -0.2234 C   0  0  0  0  0  0  0  0  0  0  0  0
  1  2  1  0
  2  3  2  0
  3  4  1  0
  4  5  1  0
  5  6  1  0
  6  7  2  0
  7  8  1  0
  8  9  1  0
  9 10  2  0
 10 11  1  0
 11 12  2  0
 12 13  1  0
 13 14  1  0
 14 15  1  0
 15 16  1  0
 16 17  1  0
 17 18  1  0
 12 19  1  0
 19 20  2  0
  7  3  1  0
 20  9  1  0
 20  6  1  0
 18 13  1  0
M  END
>  <zinc_id>  (1) 
ZINC000000226846

>  <smiles>  (1) 
O/N=C1\CCc2c1[nH]c1ccc(C3CCCCC3)cc21

$$$$
