
     RDKit          3D

 18 19  0  0  0  0  0  0  0  0999 V2000
   -0.5529    0.8668    1.1247 O   0  0  0  0  0  0  0  0  0  0  0  0
   -1.1510    0.1626    0.2785 C   0  0  0  0  0  0  0  0  0  0  0  0
   -0.3619   -0.5052   -0.7333 N   0  0  0  0  0  0  0  0  0  0  0  0
    0.9820   -0.3385   -0.7339 N   0  0  0  0  0  0  0  0  0  0  0  0
    2.0292   -1.1874   -0.3638 C   0  0  0  0  0  0  0  0  0  0  0  0
    3.2590   -0.8428   -0.6375 C   0  0  0  0  0  0  0  0  0  0  0  0
    3.5239    0.4354   -1.3299 C   0  0  0  0  0  0  0  0  0  0  0  0
    4.0761    1.3736   -0.2623 C   0  0  0  0  0  0  0  0  0  0  0  0
    4.5753    0.5192    0.8899 C   0  0  0  0  0  0  0  0  0  0  0  0
    5.4015   -0.6684    0.3951 C   0  0  0  0  0  0  0  0  0  0  0  0
    4.4160   -1.6668   -0.2606 C   0  0  0  0  0  0  0  0  0  0  0  0
   -2.5909    0.0258    0.3220 C   0  0  0  0  0  0  0  0  0  0  0  0
   -3.1563   -1.1307   -0.1324 C   0  0  0  0  0  0  0  0  0  0  0  0
   -4.5493   -1.3176   -0.1319 C   0  0  0  0  0  0  0  0  0  0  0  0
   -5.3137   -0.2797    0.3498 C   0  0  0  0  0  0  0  0  0  0  0  0
   -4.7352    0.8794    0.8049 C   0  0  0  0  0  0  0  0  0  0  0  0
   -3.3664    1.0593    0.8026 C   0  0  0  0  0  0  0  0  0  0  0  0
   -2.4854    2.6152    1.4294 Br  0  0  0  0  0  0  0  0  0  0  0  0
  1  2  2  0
  2  3  1  0
  3  4  1  0
  4  5  1  0
  5  6  2  3
  6  7  1  0
  7  8  1  0
  8  9  1  0
  9 10  1  0
 10 11  1  0
  2 12  1  0
 12 13  2  0
 13 14  1  0
 14 15  2  0
 15 16  1  0
 16 17  2  0
 17 18  1  0
 11  6  1  0
 17 12  1  0
M  END
>  <zinc_id>  (1) 
ZINC000003572281

>  <smiles>  (1) 
O=C(NNC=C1CCCCC1)c1ccccc1Br

$$$$
