
     RDKit          3D

 21 22  0  0  0  0  0  0  0  0999 V2000
    5.3045    1.5966    0.7033 C   0  0  0  0  0  0  0  0  0  0  0  0
    3.8705    1.1913    0.6312 C   0  0  0  0  0  0  0  0  0  0  0  0
    2.9451    2.3492    0.3842 C   0  0  0  0  0  0  0  0  0  0  0  0
    3.6451    0.1085   -0.2406 O   0  0  0  0  0  0  0  0  0  0  0  0
    2.4380   -0.4632   -0.4960 C   0  0  0  0  0  0  0  0  0  0  0  0
    2.4057   -1.5288   -1.3898 C   0  0  0  0  0  0  0  0  0  0  0  0
    1.2235   -2.1674   -1.7063 C   0  0  0  0  0  0  0  0  0  0  0  0
    0.0243   -1.7685   -1.1434 C   0  0  0  0  0  0  0  0  0  0  0  0
   -1.1531   -2.4118   -1.4649 C   0  0  0  0  0  0  0  0  0  0  0  0
   -2.3510   -1.9865   -0.8800 C   0  0  0  0  0  0  0  0  0  0  0  0
   -2.3497   -0.9361    0.0068 C   0  0  0  0  0  0  0  0  0  0  0  0
   -3.5945   -0.4652    0.6390 C   0  0  0  0  0  0  0  0  0  0  0  0
   -4.8307   -1.0758    0.3564 N   0  0  0  0  0  0  0  0  0  0  0  0
   -3.5459    0.4935    1.4394 O   0  0  0  0  0  0  0  0  0  0  0  0
   -1.1550   -0.3317    0.2921 C   0  0  0  0  0  0  0  0  0  0  0  0
   -1.1567    0.7299    1.1890 O   0  0  0  0  0  0  0  0  0  0  0  0
   -1.3373    2.0241    0.6475 C   0  0  0  0  0  0  0  0  0  0  0  0
   -1.3260    3.1029    1.6790 C   0  0  0  0  0  0  0  0  0  0  0  0
   -0.3521    2.3281   -0.4455 C   0  0  0  0  0  0  0  0  0  0  0  0
    0.0558   -0.7125   -0.2576 C   0  0  0  0  0  0  0  0  0  0  0  0
    1.2396   -0.0768    0.0561 C   0  0  0  0  0  0  0  0  0  0  0  0
  1  2  1  0
  2  3  1  0
  2  4  1  0
  4  5  1  0
  5  6  2  0
  6  7  1  0
  7  8  2  0
  8  9  1  0
  9 10  2  0
 10 11  1  0
 11 12  1  0
 12 13  1  0
 12 14  2  0
 11 15  2  0
 15 16  1  0
 16 17  1  0
 17 18  1  0
 17 19  1  0
 15 20  1  0
 20 21  2  0
 21  5  1  0
 20  8  1  0
M  END
>  <zinc_id>  (1) 
ZINC000001542777

>  <smiles>  (1) 
CC(C)Oc1ccc2ccc(C(N)=O)c(OC(C)C)c2c1

$$$$
