
     RDKit          3D

 22 25  0  0  0  0  0  0  0  0999 V2000
   -3.7068   -1.8753    2.8334 N   0  0  0  0  0  0  0  0  0  0  0  0
   -2.7981   -1.2731    1.9159 C   0  0  0  0  0  0  0  0  0  0  0  0
   -1.6726   -1.8268    1.7997 O   0  0  0  0  0  0  0  0  0  0  0  0
   -3.1518   -0.0810    1.1533 C   0  0  0  0  0  0  0  0  0  0  0  0
   -4.3975    0.4713    1.3294 C   0  0  0  0  0  0  0  0  0  0  0  0
   -4.7291    1.5929    0.6111 C   0  0  0  0  0  0  0  0  0  0  0  0
   -3.8297    2.1412   -0.2596 C   0  0  0  0  0  0  0  0  0  0  0  0
   -2.5669    1.5639   -0.4244 C   0  0  0  0  0  0  0  0  0  0  0  0
   -2.2171    0.4392    0.2873 C   0  0  0  0  0  0  0  0  0  0  0  0
   -0.9510   -0.1941    0.1648 N   0  0  0  0  0  0  0  0  0  0  0  0
    0.0207    0.3295   -0.7220 C   0  0  0  0  0  0  0  0  0  0  0  0
   -0.2720    1.3515   -1.3811 O   0  0  0  0  0  0  0  0  0  0  0  0
    1.3021   -0.2982   -0.8564 C   0  0  0  0  0  0  0  0  0  0  0  0
    2.2629    0.3114   -1.8056 C   0  0  0  0  0  0  0  0  0  0  0  0
    3.1673   -0.8262   -2.3047 C   0  0  0  0  0  0  0  0  0  0  0  0
    3.8623   -1.3952   -1.1021 C   0  0  0  0  0  0  0  0  0  0  0  0
    4.7955   -0.3546   -0.4933 C   0  0  0  0  0  0  0  0  0  0  0  0
    3.9282    0.7990   -0.0320 C   0  0  0  0  0  0  0  0  0  0  0  0
    3.1394    1.3803   -1.2032 C   0  0  0  0  0  0  0  0  0  0  0  0
    2.9009    0.3396    0.9740 C   0  0  0  0  0  0  0  0  0  0  0  0
    1.9811   -0.7313    0.3928 C   0  0  0  0  0  0  0  0  0  0  0  0
    2.9321   -1.8641   -0.0283 C   0  0  0  0  0  0  0  0  0  0  0  0
  1  2  1  0
  2  3  2  0
  2  4  1  0
  4  5  2  0
  5  6  1  0
  6  7  2  0
  7  8  1  0
  8  9  2  0
  9 10  1  0
 10 11  1  0
 11 12  2  0
 11 13  1  0
 13 14  1  0
 14 15  1  0
 15 16  1  0
 16 17  1  0
 17 18  1  0
 18 19  1  0
 18 20  1  0
 20 21  1  0
 21 22  1  0
  9  4  1  0
 21 13  1  0
 19 14  1  0
 22 16  1  0
M  END
>  <zinc_id>  (1) 
ZINC000001325325

>  <smiles>  (1) 
NC(=O)c1ccccc1NC(=O)C1C2CC3CC(C2)CC1C3

$$$$
