
     RDKit          3D

 19 20  0  0  0  0  0  0  0  0999 V2000
   -5.9527    0.2075    0.1842 C   0  0  0  0  0  0  0  0  0  0  0  0
   -4.4468    0.3569    0.1866 C   0  0  0  0  0  0  0  0  0  0  0  0
   -4.1090    1.3038    1.3343 C   0  0  0  0  0  0  0  0  0  0  0  0
   -4.0375    0.9735   -1.1347 C   0  0  0  0  0  0  0  0  0  0  0  0
   -3.8176   -0.9352    0.3816 N   0  0  0  0  0  0  0  0  0  0  0  0
   -2.4281   -1.1241    0.4309 C   0  0  0  0  0  0  0  0  0  0  0  0
   -1.4861   -0.1253    0.3029 C   0  0  0  0  0  0  0  0  0  0  0  0
   -0.1290   -0.3642    0.3588 C   0  0  0  0  0  0  0  0  0  0  0  0
    0.3168   -1.6680    0.5526 C   0  0  0  0  0  0  0  0  0  0  0  0
    2.0859   -1.9260    0.6179 S   0  0  0  0  0  0  0  0  0  0  0  0
    2.9679   -0.3959    0.4131 C   0  0  0  0  0  0  0  0  0  0  0  0
    4.3361   -0.2769    0.4180 C   0  0  0  0  0  0  0  0  0  0  0  0
    4.9931    0.9122    0.2584 C   0  0  0  0  0  0  0  0  0  0  0  0
    4.2600    2.0500    0.0840 C   0  0  0  0  0  0  0  0  0  0  0  0
    4.8493    3.3373   -0.0908 N   0  0  0  0  0  0  0  0  0  0  0  0
    2.9011    1.9851    0.0715 C   0  0  0  0  0  0  0  0  0  0  0  0
    2.2395    0.7603    0.2361 C   0  0  0  0  0  0  0  0  0  0  0  0
   -0.5920   -2.6662    0.6810 C   0  0  0  0  0  0  0  0  0  0  0  0
   -1.9508   -2.4047    0.6218 C   0  0  0  0  0  0  0  0  0  0  0  0
  1  2  1  0
  2  3  1  0
  2  4  1  0
  2  5  1  0
  5  6  1  0
  6  7  2  0
  7  8  1  0
  8  9  2  0
  9 10  1  0
 10 11  1  0
 11 12  2  0
 12 13  1  0
 13 14  2  0
 14 15  1  0
 14 16  1  0
 16 17  2  0
  9 18  1  0
 18 19  2  0
 19  6  1  0
 17 11  1  0
M  END
>  <zinc_id>  (1) 
ZINC000000018758

>  <smiles>  (1) 
CC(C)(C)Nc1ccc(Sc2ccc(N)cc2)cc1

$$$$
