
     RDKit          3D

 20 22  0  0  0  0  0  0  0  0999 V2000
   -0.8525    1.2131   -2.3885 O   0  0  0  0  0  0  0  0  0  0  0  0
   -0.9566    0.7086   -1.2412 C   0  0  0  0  0  0  0  0  0  0  0  0
   -2.2371    0.2191   -0.7705 C   0  0  0  0  0  0  0  0  0  0  0  0
   -2.6620   -1.0755   -0.9632 C   0  0  0  0  0  0  0  0  0  0  0  0
   -3.8811   -1.4553   -0.4885 C   0  0  0  0  0  0  0  0  0  0  0  0
   -4.7245   -0.5817    0.1901 C   0  0  0  0  0  0  0  0  0  0  0  0
   -4.3078    0.7286    0.3916 C   0  0  0  0  0  0  0  0  0  0  0  0
   -3.0733    1.0943   -0.0950 C   0  0  0  0  0  0  0  0  0  0  0  0
   -2.5501    2.7518    0.1618 Cl  0  0  0  0  0  0  0  0  0  0  0  0
    0.1418    0.6057   -0.3970 N   0  0  0  0  0  0  0  0  0  0  0  0
   -0.0304    0.0150    0.9191 C   0  0  0  0  0  0  0  0  0  0  0  0
    0.7586   -1.2923    0.7554 C   0  0  0  0  0  0  0  0  0  0  0  0
    2.1931   -0.9355    0.5194 C   0  0  2  0  0  0  0  0  0  0  0  0
    2.8745   -2.1510    0.4206 O   0  0  0  0  0  0  0  0  0  0  0  0
    2.7942   -0.0493    1.5108 C   0  0  0  0  0  0  0  0  0  0  0  0
    4.2975   -0.3637    1.5088 C   0  0  0  0  0  0  0  0  0  0  0  0
    4.6342   -0.5264    0.0304 C   0  0  0  0  0  0  0  0  0  0  0  0
    3.7626    0.4019   -0.7539 C   0  0  0  0  0  0  0  0  0  0  0  0
    2.3362   -0.3402   -0.9737 C   0  0  2  0  0  0  0  0  0  0  0  0
    1.4829    1.0327   -0.6853 C   0  0  0  0  0  0  0  0  0  0  0  0
  1  2  2  0
  2  3  1  0
  3  4  2  0
  4  5  1  0
  5  6  2  0
  6  7  1  0
  7  8  2  0
  8  9  1  0
  2 10  1  0
 10 11  1  0
 11 12  1  0
 12 13  1  0
 13 14  1  6
 13 15  1  0
 15 16  1  0
 16 17  1  0
 17 18  1  0
 19 18  1  1
 19 20  1  0
  8  3  1  0
 20 10  1  0
 19 13  1  0
M  END
>  <zinc_id>  (1) 
ZINC000002452888

>  <smiles>  (1) 
O=C(c1ccccc1Cl)N1CC[C@]2(O)CCCC[C@@H]2C1

$$$$
