
     RDKit          3D

 20 21  0  0  0  0  0  0  0  0999 V2000
    3.9230    2.8207   -1.2150 C   0  0  0  0  0  0  0  0  0  0  0  0
    4.5534    1.4653   -0.9091 C   0  0  0  0  0  0  0  0  0  0  0  0
    3.5552    0.4640   -0.8573 O   0  0  0  0  0  0  0  0  0  0  0  0
    2.5345    0.5716    0.0680 C   0  0  0  0  0  0  0  0  0  0  0  0
    2.5440    1.5659    0.8268 O   0  0  0  0  0  0  0  0  0  0  0  0
    1.4747   -0.4456    0.1582 C   0  0  0  0  0  0  0  0  0  0  0  0
    0.5627   -0.2865    1.0336 C   0  0  0  0  0  0  0  0  0  0  0  0
    0.5757    0.9018    1.9390 C   0  0  0  0  0  0  0  0  0  0  0  0
   -0.6327   -1.2268    1.2950 C   0  0  1  0  0  0  0  0  0  0  0  0
   -1.7718   -0.3829    0.5790 C   0  0  0  0  0  0  0  0  0  0  0  0
   -2.8387   -1.0311    0.0453 C   0  0  0  0  0  0  0  0  0  0  0  0
   -3.8279   -0.2493   -0.5714 C   0  0  0  0  0  0  0  0  0  0  0  0
   -3.7150    1.1137   -0.6290 C   0  0  0  0  0  0  0  0  0  0  0  0
   -4.6549    1.9009   -1.2189 F   0  0  0  0  0  0  0  0  0  0  0  0
   -2.6304    1.7684   -0.0862 C   0  0  0  0  0  0  0  0  0  0  0  0
   -1.6720    0.9669    0.5152 C   0  0  0  0  0  0  0  0  0  0  0  0
   -0.5010   -2.3405    0.3277 N   0  0  0  0  0  0  0  0  0  0  0  0
    0.4794   -2.5004   -0.6047 C   0  0  0  0  0  0  0  0  0  0  0  0
    0.5096   -3.5206   -1.4163 O   0  0  0  0  0  0  0  0  0  0  0  0
    1.5321   -1.5555   -0.7450 N   0  0  0  0  0  0  0  0  0  0  0  0
  1  2  1  0
  2  3  1  0
  3  4  1  0
  4  5  2  0
  4  6  1  0
  6  7  2  0
  7  8  1  0
  7  9  1  0
  9 10  1  6
 10 11  2  0
 11 12  1  0
 12 13  2  0
 13 14  1  0
 13 15  1  0
 15 16  2  0
  9 17  1  0
 17 18  1  0
 18 19  2  0
 18 20  1  0
 20  6  1  0
 16 10  1  0
M  END
>  <zinc_id>  (1) 
ZINC000000339980

>  <smiles>  (1) 
CCOC(=O)C1=C(C)[C@@H](c2ccc(F)cc2)NC(=O)N1

$$$$
