
     RDKit          3D

 24 26  0  0  0  0  0  0  0  0999 V2000
   -3.0461    3.2542   -1.6938 C   0  0  0  0  0  0  0  0  0  0  0  0
   -3.0871    1.8486   -2.2935 C   0  0  0  0  0  0  0  0  0  0  0  0
   -2.8490    0.8626   -1.3109 O   0  0  0  0  0  0  0  0  0  0  0  0
   -1.6837    0.7889   -0.5618 C   0  0  0  0  0  0  0  0  0  0  0  0
   -0.8106    1.6752   -0.8051 O   0  0  0  0  0  0  0  0  0  0  0  0
   -1.5264   -0.2509    0.4192 C   0  0  0  0  0  0  0  0  0  0  0  0
   -2.4326   -1.1264    0.6337 C   0  0  0  0  0  0  0  0  0  0  0  0
   -3.6836   -1.0305   -0.1675 C   0  0  0  0  0  0  0  0  0  0  0  0
   -2.2984   -2.2391    1.5047 N   0  0  0  0  0  0  0  0  0  0  0  0
   -1.0536   -2.3704    2.1566 C   0  0  0  0  0  0  0  0  0  0  0  0
   -0.9475   -3.3878    2.9589 O   0  0  0  0  0  0  0  0  0  0  0  0
   -0.0597   -1.4727    1.9332 N   0  0  0  0  0  0  0  0  0  0  0  0
   -0.2261   -0.1587    1.2791 C   0  0  1  0  0  0  0  0  0  0  0  0
    0.8632   -0.2933    0.0998 C   0  0  0  0  0  0  0  0  0  0  0  0
    0.7253   -1.2051   -0.8530 C   0  0  0  0  0  0  0  0  0  0  0  0
   -0.3422   -2.0739   -0.8880 O   0  0  0  0  0  0  0  0  0  0  0  0
    1.7320   -1.2401   -1.8335 C   0  0  0  0  0  0  0  0  0  0  0  0
    2.8024   -0.3712   -1.8015 C   0  0  0  0  0  0  0  0  0  0  0  0
    2.8836    0.5531   -0.7810 C   0  0  0  0  0  0  0  0  0  0  0  0
    3.9635    1.3996   -0.7844 C   0  0  0  0  0  0  0  0  0  0  0  0
    4.0699    2.3296    0.2193 C   0  0  0  0  0  0  0  0  0  0  0  0
    3.0924    2.3784    1.1890 C   0  0  0  0  0  0  0  0  0  0  0  0
    2.0051    1.5270    1.1934 C   0  0  0  0  0  0  0  0  0  0  0  0
    1.9091    0.6030    0.1871 C   0  0  0  0  0  0  0  0  0  0  0  0
  1  2  1  0
  2  3  1  0
  3  4  1  0
  4  5  2  0
  4  6  1  0
  6  7  2  0
  7  8  1  0
  7  9  1  0
  9 10  1  0
 10 11  2  0
 10 12  1  0
 12 13  1  0
 13 14  1  6
 14 15  2  0
 15 16  1  0
 15 17  1  0
 17 18  2  0
 18 19  1  0
 19 20  2  0
 20 21  1  0
 21 22  2  0
 22 23  1  0
 23 24  2  0
 13  6  1  0
 24 14  1  0
 24 19  1  0
M  END
>  <zinc_id>  (1) 
ZINC000000230012

>  <smiles>  (1) 
CCOC(=O)C1=C(C)NC(=O)N[C@H]1c1c(O)ccc2ccccc12

$$$$
