
     RDKit          3D

 20 21  0  0  0  0  0  0  0  0999 V2000
   -5.8577    0.1910   -0.9026 C   0  0  0  0  0  0  0  0  0  0  0  0
   -4.5114   -0.0550   -0.2657 C   0  0  0  0  0  0  0  0  0  0  0  0
   -4.5009   -0.5441    0.9170 O   0  0  0  0  0  0  0  0  0  0  0  0
   -3.3586    0.1871   -0.8124 N   0  0  0  0  0  0  0  0  0  0  0  0
   -2.0157    0.2716   -0.9742 C   0  0  0  0  0  0  0  0  0  0  0  0
   -1.3332    0.8866   -2.4985 S   0  0  0  0  0  0  0  0  0  0  0  0
    0.2854    0.7545   -2.1377 C   0  0  0  0  0  0  0  0  0  0  0  0
    0.3107    0.2516   -0.8783 C   0  0  0  0  0  0  0  0  0  0  0  0
    1.6362   -0.0467   -0.2340 C   0  0  0  0  0  0  0  0  0  0  0  0
    2.2568   -1.2676   -0.3370 C   0  0  0  0  0  0  0  0  0  0  0  0
    3.4951   -1.4757    0.2578 C   0  0  0  0  0  0  0  0  0  0  0  0
    4.1376   -0.4816    0.9600 C   0  0  0  0  0  0  0  0  0  0  0  0
    5.4768   -0.6964    1.6051 C   0  0  0  0  0  0  0  0  0  0  0  0
    3.5059    0.7520    1.0621 C   0  0  0  0  0  0  0  0  0  0  0  0
    2.2807    0.9444    0.4700 C   0  0  0  0  0  0  0  0  0  0  0  0
    1.6268    2.2953    0.6175 C   0  0  0  0  0  0  0  0  0  0  0  0
   -0.8849   -0.0018   -0.2676 C   0  0  0  0  0  0  0  0  0  0  0  0
   -0.8662   -0.5057    1.1577 C   0  0  0  0  0  0  0  0  0  0  0  0
    0.2798   -0.8166    1.8456 N   0  0  0  0  0  0  0  0  0  0  0  0
   -1.9632   -0.6427    1.7404 O   0  0  0  0  0  0  0  0  0  0  0  0
  1  2  1  0
  2  3  2  0
  2  4  1  0
  4  5  1  0
  5  6  1  0
  6  7  1  0
  7  8  2  0
  8  9  1  0
  9 10  2  0
 10 11  1  0
 11 12  2  0
 12 13  1  0
 12 14  1  0
 14 15  2  0
 15 16  1  0
  8 17  1  0
 17 18  1  0
 18 19  1  0
 18 20  2  0
 17  5  2  0
 15  9  1  0
M  END
>  <zinc_id>  (1) 
ZINC000002789187

>  <smiles>  (1) 
CC(=O)Nc1scc(-c2ccc(C)cc2C)c1C(N)=O

$$$$
