
     RDKit          3D

 20 21  0  0  0  0  0  0  0  0999 V2000
    6.5101   -0.5683   -1.5030 C   0  0  0  0  0  0  0  0  0  0  0  0
    5.9409    0.6751   -0.8420 C   0  0  0  0  0  0  0  0  0  0  0  0
    6.8926    1.0021    0.3150 C   0  0  0  0  0  0  0  0  0  0  0  0
    4.6500    0.2768   -0.1902 C   0  0  0  0  0  0  0  0  0  0  0  0
    3.3708    0.4043   -0.6870 C   0  0  0  0  0  0  0  0  0  0  0  0
    2.4767   -0.0870    0.2357 C   0  0  0  0  0  0  0  0  0  0  0  0
    1.0280   -0.1187    0.0582 C   0  0  0  0  0  0  0  0  0  0  0  0
    0.4929    0.3196   -0.9918 O   0  0  0  0  0  0  0  0  0  0  0  0
    0.1570   -0.6415    1.0538 N   0  0  0  0  0  0  0  0  0  0  0  0
   -1.2253   -0.6845    0.9124 N   0  0  0  0  0  0  0  0  0  0  0  0
   -1.9198    0.1010    0.1963 C   0  0  0  0  0  0  0  0  0  0  0  0
   -3.3729    0.0260    0.0715 C   0  0  0  0  0  0  0  0  0  0  0  0
   -4.0374    0.9285   -0.7345 C   0  0  0  0  0  0  0  0  0  0  0  0
   -5.4084    0.9091   -0.8933 C   0  0  0  0  0  0  0  0  0  0  0  0
   -6.1319   -0.0541   -0.2153 C   0  0  0  0  0  0  0  0  0  0  0  0
   -7.4790   -0.0272   -0.4080 F   0  0  0  0  0  0  0  0  0  0  0  0
   -5.5177   -0.9746    0.5987 C   0  0  0  0  0  0  0  0  0  0  0  0
   -4.1452   -0.9124    0.7235 C   0  0  0  0  0  0  0  0  0  0  0  0
    3.2112   -0.5055    1.2764 N   0  0  0  0  0  0  0  0  0  0  0  0
    4.5074   -0.2891    1.0236 N   0  0  0  0  0  0  0  0  0  0  0  0
  1  2  1  0
  2  3  1  0
  2  4  1  0
  4  5  2  0
  5  6  1  0
  6  7  1  0
  7  8  2  0
  7  9  1  0
  9 10  1  0
 10 11  2  0
 11 12  1  0
 12 13  2  0
 13 14  1  0
 14 15  2  0
 15 16  1  0
 15 17  1  0
 17 18  2  0
  6 19  2  0
 19 20  1  0
 20  4  1  0
 18 12  1  0
M  END
>  <zinc_id>  (1) 
ZINC000000232969

>  <smiles>  (1) 
CC(C)c1cc(C(=O)N/N=C/c2ccc(F)cc2)n[nH]1

$$$$
