
     RDKit          3D

 19 21  0  0  0  0  0  0  0  0999 V2000
    0.6969    0.8841   -1.6414 O   0  0  0  0  0  0  0  0  0  0  0  0
    0.1939    0.6580   -0.5121 C   0  0  0  0  0  0  0  0  0  0  0  0
    1.0264    0.0042    0.4606 N   0  0  0  0  0  0  0  0  0  0  0  0
    2.3578   -0.3605    0.1211 C   0  0  0  0  0  0  0  0  0  0  0  0
    2.7762   -0.2959   -1.1964 C   0  0  0  0  0  0  0  0  0  0  0  0
    4.0649   -0.6883   -1.5604 C   0  0  0  0  0  0  0  0  0  0  0  0
    4.9270   -1.1434   -0.6127 C   0  0  0  0  0  0  0  0  0  0  0  0
    4.5552   -1.2246    0.7010 C   0  0  0  0  0  0  0  0  0  0  0  0
    3.2498   -0.8190    1.0383 C   0  0  0  0  0  0  0  0  0  0  0  0
    2.8223   -0.8691    2.3803 O   0  0  0  0  0  0  0  0  0  0  0  0
   -1.2058    1.0618   -0.2296 C   0  0  0  0  0  0  0  0  0  0  0  0
   -1.4427    2.4390   -0.3894 C   0  0  0  0  0  0  0  0  0  0  0  0
   -3.0898    2.5868    0.0782 S   0  0  0  0  0  0  0  0  0  0  0  0
   -3.4124    0.9686    0.4463 C   0  0  0  0  0  0  0  0  0  0  0  0
   -2.2218    0.3316    0.1965 C   0  0  0  0  0  0  0  0  0  0  0  0
   -2.3116   -1.1784    0.4375 C   0  0  0  0  0  0  0  0  0  0  0  0
   -3.5711   -1.5722   -0.3247 C   0  0  0  0  0  0  0  0  0  0  0  0
   -4.7562   -1.1155    0.4893 C   0  0  0  0  0  0  0  0  0  0  0  0
   -4.6589    0.3328    0.9064 C   0  0  0  0  0  0  0  0  0  0  0  0
  1  2  2  0
  2  3  1  0
  3  4  1  0
  4  5  2  0
  5  6  1  0
  6  7  2  0
  7  8  1  0
  8  9  2  0
  9 10  1  0
  2 11  1  0
 11 12  2  0
 12 13  1  0
 13 14  1  0
 14 15  2  0
 15 16  1  0
 16 17  1  0
 17 18  1  0
 18 19  1  0
  9  4  1  0
 15 11  1  0
 19 14  1  0
M  END
>  <zinc_id>  (1) 
ZINC000000338073

>  <smiles>  (1) 
O=C(Nc1ccccc1O)c1csc2c1CCCC2

$$$$
