
     RDKit          3D

 21 23  0  0  0  0  0  0  0  0999 V2000
   -4.9186    1.1771   -1.6441 C   0  0  0  0  0  0  0  0  0  0  0  0
   -3.8428    0.5309   -0.8210 C   0  0  0  0  0  0  0  0  0  0  0  0
   -2.6103    1.1192   -0.6555 C   0  0  0  0  0  0  0  0  0  0  0  0
   -1.6335    0.4967    0.1134 C   0  0  0  0  0  0  0  0  0  0  0  0
   -0.4450    1.1038    0.2506 N   0  0  0  0  0  0  0  0  0  0  0  0
    0.4949    0.4850    1.0033 C   0  0  0  0  0  0  0  0  0  0  0  0
    1.7976    1.1812    1.1394 C   0  0  0  0  0  0  0  0  0  0  0  0
    2.8500    0.5493    0.2942 C   0  0  0  0  0  0  0  0  0  0  0  0
    3.8137   -0.2560    0.8990 C   0  0  0  0  0  0  0  0  0  0  0  0
    4.7908   -0.8423    0.1234 C   0  0  0  0  0  0  0  0  0  0  0  0
    4.8640   -0.6674   -1.2515 C   0  0  0  0  0  0  0  0  0  0  0  0
    3.9052    0.1309   -1.8343 C   0  0  0  0  0  0  0  0  0  0  0  0
    2.9206    0.7251   -1.0751 C   0  0  0  0  0  0  0  0  0  0  0  0
    1.9732    1.5144   -1.6486 F   0  0  0  0  0  0  0  0  0  0  0  0
    0.2689   -0.7313    1.6225 C   0  0  0  0  0  0  0  0  0  0  0  0
    1.2296   -1.2016    2.2967 O   0  0  0  0  0  0  0  0  0  0  0  0
   -0.9103   -1.3199    1.4782 N   0  0  0  0  0  0  0  0  0  0  0  0
   -1.8743   -0.7273    0.7309 C   0  0  0  0  0  0  0  0  0  0  0  0
   -3.1221   -1.2844    0.5407 C   0  0  0  0  0  0  0  0  0  0  0  0
   -4.1005   -0.6822   -0.2172 C   0  0  0  0  0  0  0  0  0  0  0  0
   -5.4510   -1.3012   -0.4143 C   0  0  0  0  0  0  0  0  0  0  0  0
  1  2  1  0
  2  3  2  0
  3  4  1  0
  4  5  1  0
  5  6  2  0
  6  7  1  0
  7  8  1  0
  8  9  2  0
  9 10  1  0
 10 11  2  0
 11 12  1  0
 12 13  2  0
 13 14  1  0
  6 15  1  0
 15 16  2  0
 15 17  1  0
 17 18  1  0
 18 19  1  0
 19 20  2  0
 20 21  1  0
 20  2  1  0
 18  4  2  0
 13  8  1  0
M  END
>  <zinc_id>  (1) 
ZINC000000104760

>  <smiles>  (1) 
Cc1cc2nc(Cc3ccccc3F)c(=O)[nH]c2cc1C

$$$$
