
     RDKit          3D

 21 23  0  0  0  0  0  0  0  0999 V2000
   -5.0633    0.9594   -0.6145 C   0  0  0  0  0  0  0  0  0  0  0  0
   -4.1589   -0.0925   -0.3221 O   0  0  0  0  0  0  0  0  0  0  0  0
   -2.8133    0.1241   -0.1459 C   0  0  0  0  0  0  0  0  0  0  0  0
   -2.2525    1.3716   -0.2405 C   0  0  0  0  0  0  0  0  0  0  0  0
   -0.8705    1.5706   -0.0561 C   0  0  0  0  0  0  0  0  0  0  0  0
   -0.1162    0.4870    0.2204 C   0  0  0  0  0  0  0  0  0  0  0  0
   -0.6264   -0.7454    0.3193 C   0  0  0  0  0  0  0  0  0  0  0  0
   -1.9786   -0.9348    0.1367 C   0  0  0  0  0  0  0  0  0  0  0  0
   -2.4897   -2.2405    0.2459 O   0  0  0  0  0  0  0  0  0  0  0  0
   -1.6390   -3.3168    0.5335 C   0  0  0  0  0  0  0  0  0  0  0  0
    1.4265    0.7395    0.5171 C   0  0  1  0  0  0  0  0  0  0  0  0
    2.0516   -0.5457   -0.1138 C   0  0  0  0  0  0  0  0  0  0  0  0
    1.9755   -1.2249   -1.6406 S   0  0  0  0  0  0  0  0  0  0  0  0
    2.9742   -2.6171   -1.3793 C   0  0  0  0  0  0  0  0  0  0  0  0
    3.3153   -2.4652   -0.0865 C   0  0  0  0  0  0  0  0  0  0  0  0
    2.8398   -1.3846    0.5908 C   0  0  0  0  0  0  0  0  0  0  0  0
    3.2237   -1.2122    2.0491 C   0  0  0  0  0  0  0  0  0  0  0  0
    1.7156    1.7535   -0.7306 C   0  0  0  0  0  0  0  0  0  0  0  0
    1.0727    2.9910   -0.1349 C   0  0  0  0  0  0  0  0  0  0  0  0
    1.7624    3.8588    0.3519 O   0  0  0  0  0  0  0  0  0  0  0  0
   -0.3489    2.9244   -0.2555 N   0  0  0  0  0  0  0  0  0  0  0  0
  1  2  1  0
  2  3  1  0
  3  4  2  0
  4  5  1  0
  5  6  2  0
  6  7  1  0
  7  8  2  0
  8  9  1  0
  9 10  1  0
  6 11  1  0
 11 12  1  6
 12 13  1  0
 13 14  1  0
 14 15  2  0
 15 16  1  0
 16 17  1  0
 11 18  1  0
 18 19  1  0
 19 20  2  0
 19 21  1  0
  8  3  1  0
 16 12  2  0
 21  5  1  0
M  END
>  <zinc_id>  (1) 
ZINC000001069200

>  <smiles>  (1) 
COc1cc2c(cc1OC)[C@@H](c1sccc1C)CC(=O)N2

$$$$
