
     RDKit          3D

 21 23  0  0  0  0  0  0  0  0999 V2000
   -0.1485   -1.0586   -0.8337 C   0  0  0  0  0  0  0  0  0  0  0  0
   -0.3745    0.2336   -0.0612 C   0  0  0  0  0  0  0  0  0  0  0  0
   -1.6914    0.6128    0.0510 C   0  0  0  0  0  0  0  0  0  0  0  0
   -2.9130   -0.0165   -0.4471 C   0  0  0  0  0  0  0  0  0  0  0  0
   -4.1538    0.5482   -0.2140 C   0  0  0  0  0  0  0  0  0  0  0  0
   -5.3209   -0.0172   -0.6679 C   0  0  0  0  0  0  0  0  0  0  0  0
   -5.2910   -1.1936   -1.3873 C   0  0  0  0  0  0  0  0  0  0  0  0
   -4.0585   -1.7644   -1.6247 C   0  0  0  0  0  0  0  0  0  0  0  0
   -2.8918   -1.1926   -1.1670 C   0  0  0  0  0  0  0  0  0  0  0  0
   -1.6198    2.0463    0.9374 S   0  0  0  0  0  0  0  0  0  0  0  0
    0.0625    2.1537    1.1574 C   0  0  0  0  0  0  0  0  0  0  0  0
    0.7916    3.1807    1.8545 N   0  0  0  0  0  0  0  0  0  0  0  0
    0.5542    1.0131    0.5023 C   0  0  0  0  0  0  0  0  0  0  0  0
    2.0067    0.8083    0.5095 C   0  0  0  0  0  0  0  0  0  0  0  0
    2.7493    1.6961    1.1224 O   0  0  0  0  0  0  0  0  0  0  0  0
    2.7700   -0.2181   -0.0506 N   0  0  0  0  0  0  0  0  0  0  0  0
    2.3740   -1.3664   -0.7916 C   0  0  0  0  0  0  0  0  0  0  0  0
    3.3113   -2.5398   -0.6164 C   0  0  0  0  0  0  0  0  0  0  0  0
    4.7310   -2.1713   -1.0599 C   0  0  0  0  0  0  0  0  0  0  0  0
    4.8545   -0.6547   -1.1178 C   0  0  0  0  0  0  0  0  0  0  0  0
    4.2580   -0.0995    0.1584 C   0  0  0  0  0  0  0  0  0  0  0  0
  1  2  1  0
  2  3  2  0
  3  4  1  0
  4  5  2  0
  5  6  1  0
  6  7  2  0
  7  8  1  0
  8  9  2  0
  3 10  1  0
 10 11  1  0
 11 12  1  0
 11 13  2  0
 13 14  1  0
 14 15  2  0
 14 16  1  0
 16 17  1  0
 17 18  1  0
 18 19  1  0
 19 20  1  0
 20 21  1  0
 13  2  1  0
 21 16  1  0
  9  4  1  0
M  END
>  <zinc_id>  (1) 
ZINC000002627803

>  <smiles>  (1) 
Cc1c(-c2ccccc2)sc(N)c1C(=O)N1CCCCC1

$$$$
