
     RDKit          3D

 20 21  0  0  0  0  0  0  0  0999 V2000
   -0.6133   -2.3920   -0.7553 O   0  0  0  0  0  0  0  0  0  0  0  0
   -0.8161   -1.1861   -0.3459 C   0  0  0  0  0  0  0  0  0  0  0  0
    0.3360   -0.4680   -0.0612 N   0  0  0  0  0  0  0  0  0  0  0  0
    1.6552   -1.0027   -0.2079 C   0  0  0  0  0  0  0  0  0  0  0  0
    1.8745   -2.5441   -0.7459 S   0  0  0  0  0  0  0  0  0  0  0  0
    2.7783   -0.2313    0.1163 N   0  0  0  0  0  0  0  0  0  0  0  0
    4.1161   -0.8113   -0.0556 C   0  0  0  0  0  0  0  0  0  0  0  0
    5.1059    0.2571    0.3455 C   0  0  0  0  0  0  0  0  0  0  0  0
    4.8547    1.5551   -0.3773 C   0  0  0  0  0  0  0  0  0  0  0  0
    3.4471    2.0477   -0.2544 C   0  0  0  0  0  0  0  0  0  0  0  0
    2.6438    1.1107    0.6223 C   0  0  0  0  0  0  0  0  0  0  0  0
   -2.1763   -0.7135   -0.2207 C   0  0  0  0  0  0  0  0  0  0  0  0
   -3.1512   -1.7302   -0.1940 C   0  0  0  0  0  0  0  0  0  0  0  0
   -4.4578   -1.4391   -0.0720 C   0  0  0  0  0  0  0  0  0  0  0  0
   -4.8548   -0.1353    0.0253 C   0  0  0  0  0  0  0  0  0  0  0  0
   -3.9354    0.8585    0.0015 C   0  0  0  0  0  0  0  0  0  0  0  0
   -2.5518    0.5954   -0.1243 C   0  0  0  0  0  0  0  0  0  0  0  0
   -1.6777    1.6908   -0.1752 N   0  0  0  0  0  4  0  0  0  0  0  0
   -2.1557    2.7508   -0.7029 O   0  0  0  0  0  0  0  0  0  0  0  0
   -0.4215    1.7874    0.2387 O   0  0  0  0  0  1  0  0  0  0  0  0
  1  2  2  0
  2  3  1  0
  3  4  1  0
  4  5  2  0
  4  6  1  0
  6  7  1  0
  7  8  1  0
  8  9  1  0
  9 10  1  0
 10 11  1  0
  2 12  1  0
 12 13  2  0
 13 14  1  0
 14 15  2  0
 15 16  1  0
 16 17  2  0
 17 18  1  0
 18 19  2  0
 18 20  1  0
 11  6  1  0
 17 12  1  0
M  CHG  2  18   1  20  -1
M  END
>  <zinc_id>  (1) 
ZINC000000513294

>  <smiles>  (1) 
O=C(NC(=S)N1CCCCC1)c1ccccc1[N+](=O)[O-]

$$$$
