
     RDKit          3D

 18 18  0  0  0  0  0  0  0  0999 V2000
    2.9558   -2.1650    0.1108 C   0  0  0  0  0  0  0  0  0  0  0  0
    2.8318   -0.8537    0.0910 C   0  0  0  0  0  0  0  0  0  0  0  0
    3.5514    0.0186    1.0389 C   0  0  0  0  0  0  0  0  0  0  0  0
    4.4662    0.9958    0.3238 C   0  0  0  0  0  0  0  0  0  0  0  0
    3.6104    1.8720   -0.6037 C   0  0  0  0  0  0  0  0  0  0  0  0
    5.4657    0.2186   -0.5431 C   0  0  0  0  0  0  0  0  0  0  0  0
    1.9775   -0.2681   -0.8760 N   0  0  0  0  0  0  0  0  0  0  0  0
    0.6854    0.0754   -0.4775 N   0  0  0  0  0  0  0  0  0  0  0  0
   -0.4179   -0.7833   -0.6245 C   0  0  0  0  0  0  0  0  0  0  0  0
   -0.2514   -1.9138   -1.1350 O   0  0  0  0  0  0  0  0  0  0  0  0
   -1.7403   -0.3638   -0.1883 C   0  0  0  0  0  0  0  0  0  0  0  0
   -2.8445   -1.1922   -0.3229 C   0  0  0  0  0  0  0  0  0  0  0  0
   -4.1068   -0.8134    0.0848 C   0  0  0  0  0  0  0  0  0  0  0  0
   -4.2779    0.4360    0.6470 C   0  0  0  0  0  0  0  0  0  0  0  0
   -5.8998    0.8688    1.1471 Cl  0  0  0  0  0  0  0  0  0  0  0  0
   -3.2071    1.3014    0.8037 C   0  0  0  0  0  0  0  0  0  0  0  0
   -1.9674    0.8716    0.3788 C   0  0  0  0  0  0  0  0  0  0  0  0
   -0.8312    1.6952    0.5052 O   0  0  0  0  0  0  0  0  0  0  0  0
  1  2  2  0
  2  3  1  0
  3  4  1  0
  4  5  1  0
  4  6  1  0
  2  7  1  0
  7  8  1  0
  8  9  1  0
  9 10  2  0
  9 11  1  0
 11 12  2  0
 12 13  1  0
 13 14  2  0
 14 15  1  0
 14 16  1  0
 16 17  2  0
 17 18  1  0
 17 11  1  0
M  END
>  <zinc_id>  (1) 
ZINC000002891271

>  <smiles>  (1) 
C=C(CC(C)C)NNC(=O)c1ccc(Cl)cc1O

$$$$
