
     RDKit          3D

 21 23  0  0  0  0  0  0  0  0999 V2000
   -4.5961   -0.2683    1.9210 C   0  0  0  0  0  0  0  0  0  0  0  0
   -3.4984   -0.3283    0.9400 C   0  0  0  0  0  0  0  0  0  0  0  0
   -2.8073    0.8335    0.6046 C   0  0  0  0  0  0  0  0  0  0  0  0
   -3.2161    2.0987    1.2627 C   0  0  0  0  0  0  0  0  0  0  0  0
   -1.7823    0.8217   -0.3009 C   0  0  0  0  0  0  0  0  0  0  0  0
   -1.1106    2.0090   -0.6135 O   0  0  0  0  0  0  0  0  0  0  0  0
   -1.3942   -0.3520   -0.9186 C   0  0  0  0  0  0  0  0  0  0  0  0
   -0.2759   -0.3044   -1.8900 C   0  0  0  0  0  0  0  0  0  0  0  0
    1.0441   -0.1935   -1.2079 C   0  0  0  0  0  0  0  0  0  0  0  0
    1.6529    0.9294   -0.8867 N   0  0  0  0  0  0  0  0  0  0  0  0
    2.8108    0.9004   -0.2883 C   0  0  0  0  0  0  0  0  0  0  0  0
    3.5701    2.0237    0.1110 C   0  0  0  0  0  0  0  0  0  0  0  0
    4.7668    1.8412    0.7287 C   0  0  0  0  0  0  0  0  0  0  0  0
    5.3354    0.6138    1.0156 C   0  0  0  0  0  0  0  0  0  0  0  0
    4.5907   -0.4812    0.6239 C   0  0  0  0  0  0  0  0  0  0  0  0
    3.3526   -0.3256   -0.0152 C   0  0  0  0  0  0  0  0  0  0  0  0
    2.1448   -1.3694   -0.6459 S   0  0  0  0  0  0  0  0  0  0  0  0
   -2.0679   -1.5113   -0.5979 C   0  0  0  0  0  0  0  0  0  0  0  0
   -1.6539   -2.7584   -1.2556 C   0  0  0  0  0  0  0  0  0  0  0  0
   -3.1102   -1.4989    0.3229 C   0  0  0  0  0  0  0  0  0  0  0  0
   -3.7555   -2.6800    0.6136 O   0  0  0  0  0  0  0  0  0  0  0  0
  1  2  1  0
  2  3  2  0
  3  4  1  0
  3  5  1  0
  5  6  1  0
  5  7  2  0
  7  8  1  0
  8  9  1  0
  9 10  2  0
 10 11  1  0
 11 12  2  0
 12 13  1  0
 13 14  2  0
 14 15  1  0
 15 16  2  0
 16 17  1  0
  7 18  1  0
 18 19  1  0
 18 20  2  0
 20 21  1  0
 20  2  1  0
 17  9  1  0
 16 11  1  0
M  END
>  <zinc_id>  (1) 
ZINC000002641117

>  <smiles>  (1) 
Cc1c(C)c(O)c(Cc2nc3ccccc3s2)c(C)c1O

$$$$
