
     RDKit          3D

 20 21  0  0  0  0  0  0  0  0999 V2000
   -3.1406    1.0274   -1.7471 C   0  0  0  0  0  0  0  0  0  0  0  0
   -2.4822    0.8726   -0.3909 C   0  0  0  0  0  0  0  0  0  0  0  0
   -2.0025   -0.2717   -0.1441 C   0  0  0  0  0  0  0  0  0  0  0  0
   -2.0673   -1.4053   -1.1033 C   0  0  0  0  0  0  0  0  0  0  0  0
   -2.7049   -1.1607   -2.3486 N   0  0  0  0  0  0  0  0  0  0  0  0
   -1.6000   -2.5354   -0.8740 O   0  0  0  0  0  0  0  0  0  0  0  0
   -1.2654   -0.6964    1.1938 C   0  0  1  0  0  0  0  0  0  0  0  0
    0.2245   -0.5237    0.5907 C   0  0  0  0  0  0  0  0  0  0  0  0
    1.0131   -1.6304    0.5685 C   0  0  0  0  0  0  0  0  0  0  0  0
    2.2900   -1.4365    0.0403 C   0  0  0  0  0  0  0  0  0  0  0  0
    2.7239   -0.2148   -0.4257 C   0  0  0  0  0  0  0  0  0  0  0  0
    4.1174   -0.0599   -0.9880 C   0  0  0  0  0  0  0  0  0  0  0  0
    4.9925    0.6186    0.0727 C   0  0  0  0  0  0  0  0  0  0  0  0
    4.6830   -1.4009   -1.3770 C   0  0  0  0  0  0  0  0  0  0  0  0
    1.8616    0.8529   -0.3661 C   0  0  0  0  0  0  0  0  0  0  0  0
    0.5991    0.6841    0.1505 C   0  0  0  0  0  0  0  0  0  0  0  0
   -1.2808    0.5491    2.0545 N   0  0  0  0  0  0  0  0  0  0  0  0
   -1.8155    1.7685    1.7391 C   0  0  0  0  0  0  0  0  0  0  0  0
   -1.7077    2.9900    2.8572 S   0  0  0  0  0  0  0  0  0  0  0  0
   -2.4382    1.9723    0.4976 N   0  0  0  0  0  0  0  0  0  0  0  0
  1  2  1  0
  2  3  2  0
  3  4  1  0
  4  5  1  0
  4  6  2  0
  3  7  1  0
  7  8  1  6
  8  9  2  0
  9 10  1  0
 10 11  2  0
 11 12  1  0
 12 13  1  0
 12 14  1  0
 11 15  1  0
 15 16  2  0
  7 17  1  0
 17 18  1  0
 18 19  2  0
 18 20  1  0
 20  2  1  0
 16  8  1  0
M  END
>  <zinc_id>  (1) 
ZINC000000071757

>  <smiles>  (1) 
CC1=C(C(N)=O)[C@@H](c2ccc(C(C)C)cc2)NC(=S)N1

$$$$
