
     RDKit          3D

 19 21  0  0  0  0  0  0  0  0999 V2000
   -5.3495    2.1425    0.6875 C   0  0  0  0  0  0  0  0  0  0  0  0
   -5.0835    0.7165    1.0250 C   0  0  0  0  0  0  0  0  0  0  0  0
   -3.9017    0.1942    0.2928 C   0  0  0  0  0  0  0  0  0  0  0  0
   -4.0083   -0.4002   -0.9470 C   0  0  0  0  0  0  0  0  0  0  0  0
   -2.9115   -0.8798   -1.6239 C   0  0  0  0  0  0  0  0  0  0  0  0
   -1.6562   -0.7614   -1.0392 C   0  0  0  0  0  0  0  0  0  0  0  0
   -0.4265   -1.1262   -1.4475 N   0  0  0  0  0  0  0  0  0  0  0  0
    0.4986   -0.7955   -0.5196 C   0  0  0  0  0  0  0  0  0  0  0  0
    1.8507   -0.9384   -0.4441 N   0  0  0  0  0  0  0  0  0  0  0  0
    2.5152   -0.4949    0.6375 C   0  0  0  0  0  0  0  0  0  0  0  0
    4.2935   -0.6504    0.8003 S   0  0  0  0  0  0  0  0  0  0  0  0
    5.0346    0.8272    0.0841 C   0  0  0  0  0  0  0  0  0  0  0  0
    4.8298    0.9194   -1.4101 C   0  0  0  0  0  0  0  0  0  0  0  0
    6.4935    0.9750    0.4555 C   0  0  0  0  0  0  0  0  0  0  0  0
    1.7862    0.0860    1.6224 N   0  0  0  0  0  0  0  0  0  0  0  0
    0.4773    0.2354    1.5745 N   0  0  0  0  0  0  0  0  0  0  0  0
   -0.2160   -0.1979    0.5036 C   0  0  0  0  0  0  0  0  0  0  0  0
   -1.5631   -0.1687    0.1942 C   0  0  0  0  0  0  0  0  0  0  0  0
   -2.6631    0.3171    0.8836 C   0  0  0  0  0  0  0  0  0  0  0  0
  1  2  1  0
  2  3  1  0
  3  4  2  0
  4  5  1  0
  5  6  2  0
  6  7  1  0
  7  8  1  0
  8  9  2  0
  9 10  1  0
 10 11  1  0
 11 12  1  0
 12 13  1  0
 12 14  1  0
 10 15  2  0
 15 16  1  0
 16 17  2  0
 17 18  1  0
 18 19  2  0
 19  3  1  0
 18  6  1  0
 17  8  1  0
M  END
>  <zinc_id>  (1) 
ZINC000000086178

>  <smiles>  (1) 
CCc1ccc2[nH]c3nc(SC(C)C)nnc3c2c1

$$$$
