
     RDKit          3D

 20 23  0  0  0  0  0  0  0  0999 V2000
   -5.0005   -1.5238    1.0440 N   0  0  0  0  0  0  0  0  0  0  0  0
   -4.2100   -0.4398    0.6406 C   0  0  0  0  0  0  0  0  0  0  0  0
   -4.7758    0.7359    0.2580 N   0  0  0  0  0  0  0  0  0  0  0  0
   -3.9087    1.6891   -0.1035 C   0  0  0  0  0  0  0  0  0  0  0  0
   -2.6036    1.5459   -0.1046 N   0  0  0  0  0  0  0  0  0  0  0  0
   -1.9659    0.3886    0.2690 C   0  0  0  0  0  0  0  0  0  0  0  0
   -2.8217   -0.6053    0.6439 C   0  0  0  0  0  0  0  0  0  0  0  0
   -1.7748   -1.8920    1.0462 S   0  0  0  0  0  0  0  0  0  0  0  0
   -0.2783   -1.1399    0.7297 C   0  0  0  0  0  0  0  0  0  0  0  0
    1.0030   -1.5712    0.8286 N   0  0  0  0  0  0  0  0  0  0  0  0
    2.0564   -0.7659    0.5109 C   0  0  0  0  0  0  0  0  0  0  0  0
    1.7229    0.4856    0.0932 C   0  0  0  0  0  0  0  0  0  0  0  0
    0.4395    0.9473   -0.0161 C   0  0  0  0  0  0  0  0  0  0  0  0
   -0.6426    0.1048    0.3155 C   0  0  0  0  0  0  0  0  0  0  0  0
    2.6108    1.6276   -0.3340 C   0  0  0  0  0  0  0  0  0  0  0  0
    3.4130    2.0688    0.8928 C   0  0  0  0  0  0  0  0  0  0  0  0
    4.1986    0.8605    1.3701 C   0  0  0  0  0  0  0  0  0  0  0  0
    4.9008    0.2211    0.2078 C   0  0  0  0  0  0  0  0  0  0  0  0
    4.3778   -1.1357   -0.1446 C   0  0  0  0  0  0  0  0  0  0  0  0
    3.2592   -1.6017    0.7520 C   0  0  0  0  0  0  0  0  0  0  0  0
  1  2  1  0
  2  3  2  0
  3  4  1  0
  4  5  2  0
  5  6  1  0
  6  7  2  0
  7  8  1  0
  8  9  1  0
  9 10  2  0
 10 11  1  0
 11 12  2  0
 12 13  1  0
 13 14  2  0
 12 15  1  0
 15 16  1  0
 16 17  1  0
 17 18  1  0
 18 19  1  0
 19 20  1  0
  7  2  1  0
 14  9  1  0
 14  6  1  0
 20 11  1  0
M  END
>  <zinc_id>  (1) 
ZINC000000495239

>  <smiles>  (1) 
Nc1ncnc2c1sc1nc3c(cc12)CCCCCC3

$$$$
