
     RDKit          3D

 21 22  0  0  0  0  0  0  0  0999 V2000
    7.0727    0.4950    1.4274 C   0  0  0  0  0  0  0  0  0  0  0  0
    6.4667   -0.7803    0.9161 C   0  0  0  0  0  0  0  0  0  0  0  0
    5.0654   -0.5581    0.4409 C   0  0  0  0  0  0  0  0  0  0  0  0
    4.7935   -0.2115   -0.8665 C   0  0  0  0  0  0  0  0  0  0  0  0
    3.4842   -0.0065   -1.3003 C   0  0  0  0  0  0  0  0  0  0  0  0
    2.4135   -0.1413   -0.4438 C   0  0  0  0  0  0  0  0  0  0  0  0
    1.0860    0.0722   -0.9092 N   0  0  0  0  0  0  0  0  0  0  0  0
   -0.0508   -0.0592   -0.0702 C   0  0  0  0  0  0  0  0  0  0  0  0
    0.1608   -0.3773    1.1243 O   0  0  0  0  0  0  0  0  0  0  0  0
   -1.4119    0.1557   -0.5333 C   0  0  0  0  0  0  0  0  0  0  0  0
   -1.6952    0.5199   -1.8437 C   0  0  0  0  0  0  0  0  0  0  0  0
   -3.0049    0.7108   -2.2352 C   0  0  0  0  0  0  0  0  0  0  0  0
   -4.0255    0.5407   -1.3304 C   0  0  0  0  0  0  0  0  0  0  0  0
   -5.4478    0.7386   -1.7210 C   0  0  0  0  0  0  0  0  0  0  0  0
   -3.7442    0.1770   -0.0212 C   0  0  0  0  0  0  0  0  0  0  0  0
   -4.8208    0.0114    0.8775 N   0  0  0  0  0  4  0  0  0  0  0  0
   -5.9106   -0.3885    0.4509 O   0  0  0  0  0  0  0  0  0  0  0  0
   -4.6635    0.2890    2.2041 O   0  0  0  0  0  1  0  0  0  0  0  0
   -2.4457   -0.0077    0.3499 C   0  0  0  0  0  0  0  0  0  0  0  0
    2.6894   -0.4877    0.8617 C   0  0  0  0  0  0  0  0  0  0  0  0
    3.9888   -0.6920    1.2955 C   0  0  0  0  0  0  0  0  0  0  0  0
  1  2  1  0
  2  3  1  0
  3  4  2  0
  4  5  1  0
  5  6  2  0
  6  7  1  0
  7  8  1  0
  8  9  2  0
  8 10  1  0
 10 11  2  0
 11 12  1  0
 12 13  2  0
 13 14  1  0
 13 15  1  0
 15 16  1  0
 16 17  2  0
 16 18  1  0
 15 19  2  0
  6 20  1  0
 20 21  2  0
 21  3  1  0
 19 10  1  0
M  CHG  2  16   1  18  -1
M  END
>  <zinc_id>  (1) 
ZINC000000272213

>  <smiles>  (1) 
CCc1ccc(NC(=O)c2ccc(C)c([N+](=O)[O-])c2)cc1

$$$$
