
     RDKit          3D

 23 26  0  0  0  0  0  0  0  0999 V2000
    0.6703    2.2984   -2.0319 C   0  0  0  0  0  0  0  0  0  0  0  0
    0.1895    2.0316   -0.7077 N   0  0  0  0  0  0  0  0  0  0  0  0
    0.2959    3.0217    0.3244 C   0  0  0  0  0  0  0  0  0  0  0  0
    1.7006    3.3099    0.7530 C   0  0  0  0  0  0  0  0  0  0  0  0
    1.7142    4.2867    1.7623 O   0  0  0  0  0  0  0  0  0  0  0  0
   -0.4105    0.7861   -0.4095 C   0  0  0  0  0  0  0  0  0  0  0  0
   -1.8147    0.7100   -0.3839 C   0  0  0  0  0  0  0  0  0  0  0  0
   -2.4815   -0.4582   -0.1014 C   0  0  0  0  0  0  0  0  0  0  0  0
   -1.7219   -1.5823    0.1635 C   0  0  0  0  0  0  0  0  0  0  0  0
   -2.4260   -2.7957    0.4627 C   0  0  0  0  0  0  0  0  0  0  0  0
   -2.9991   -3.7757    0.6867 N   0  0  0  0  0  0  0  0  0  0  0  0
   -0.3484   -1.4892    0.1342 C   0  0  0  0  0  0  0  0  0  0  0  0
    0.6099   -2.4213    0.3448 N   0  0  0  0  0  0  0  0  0  0  0  0
    1.8331   -1.8921    0.2058 C   0  0  0  0  0  0  0  0  0  0  0  0
    3.1162   -2.3723    0.3028 C   0  0  0  0  0  0  0  0  0  0  0  0
    4.2410   -1.5962    0.1042 C   0  0  0  0  0  0  0  0  0  0  0  0
    4.0059   -0.2741   -0.2047 C   0  0  0  0  0  0  0  0  0  0  0  0
    2.7376    0.2526   -0.3128 C   0  0  0  0  0  0  0  0  0  0  0  0
    1.6360   -0.5617   -0.1066 C   0  0  0  0  0  0  0  0  0  0  0  0
    0.2917   -0.3384   -0.1447 N   0  0  0  0  0  4  0  0  0  0  0  0
   -3.9570   -0.2288   -0.1451 C   0  0  0  0  0  0  0  0  0  0  0  0
   -4.0831    1.2819   -0.0534 C   0  0  0  0  0  0  0  0  0  0  0  0
   -2.7996    1.8070   -0.6428 C   0  0  0  0  0  0  0  0  0  0  0  0
  1  2  1  0
  2  3  1  0
  3  4  1  0
  4  5  1  0
  2  6  1  0
  6  7  2  0
  7  8  1  0
  8  9  2  0
  9 10  1  0
 10 11  3  0
  9 12  1  0
 12 13  1  0
 13 14  1  0
 14 15  2  0
 15 16  1  0
 16 17  2  0
 17 18  1  0
 18 19  2  0
 19 20  1  0
  8 21  1  0
 21 22  1  0
 22 23  1  0
 20  6  1  0
 23  7  1  0
 20 12  2  0
 19 14  1  0
M  CHG  1  20   1
M  END
>  <zinc_id>  (1) 
ZINC000003043069

>  <smiles>  (1) 
CN(CCO)c1c2c(c(C#N)c3[nH]c4ccccc4[n+]13)CCC2

$$$$
