
     RDKit          3D

 18 18  0  0  0  0  0  0  0  0999 V2000
    0.3237   -0.5627    1.7519 C   0  0  0  0  0  0  0  0  0  0  0  0
    0.8273   -0.6738    0.5090 C   0  0  0  0  0  0  0  0  0  0  0  0
    0.0701   -1.3241   -0.5208 N   0  0  0  0  0  0  0  0  0  0  0  0
   -1.2692   -1.6743   -0.2091 N   0  0  0  0  0  0  0  0  0  0  0  0
   -2.3105   -0.7268   -0.2761 C   0  0  0  0  0  0  0  0  0  0  0  0
   -1.9949    0.4360   -0.6288 O   0  0  0  0  0  0  0  0  0  0  0  0
   -3.6477   -1.0422    0.0318 O   0  0  0  0  0  0  0  0  0  0  0  0
   -4.5646    0.0614   -0.0984 C   0  0  0  0  0  0  0  0  0  0  0  0
   -5.9575   -0.2917    0.2912 C   0  0  0  0  0  0  0  0  0  0  0  0
   -4.5720    0.4456   -1.5892 C   0  0  0  0  0  0  0  0  0  0  0  0
   -4.0530    1.2661    0.6637 C   0  0  0  0  0  0  0  0  0  0  0  0
    2.1572   -0.1198    0.2612 C   0  0  0  0  0  0  0  0  0  0  0  0
    2.6945    0.0258   -0.9924 C   0  0  0  0  0  0  0  0  0  0  0  0
    3.9683    0.5458   -1.1828 C   0  0  0  0  0  0  0  0  0  0  0  0
    4.7651    0.9475   -0.1160 C   0  0  0  0  0  0  0  0  0  0  0  0
    6.3707    1.5966   -0.3744 Cl  0  0  0  0  0  0  0  0  0  0  0  0
    4.2276    0.8036    1.1465 C   0  0  0  0  0  0  0  0  0  0  0  0
    2.9650    0.2868    1.3327 C   0  0  0  0  0  0  0  0  0  0  0  0
  1  2  2  0
  2  3  1  0
  3  4  1  0
  4  5  1  0
  5  6  2  0
  5  7  1  0
  7  8  1  0
  8  9  1  0
  8 10  1  0
  8 11  1  0
  2 12  1  0
 12 13  2  0
 13 14  1  0
 14 15  2  0
 15 16  1  0
 15 17  1  0
 17 18  2  0
 18 12  1  0
M  END
>  <zinc_id>  (1) 
ZINC000003574681

>  <smiles>  (1) 
C=C(NNC(=O)OC(C)(C)C)c1ccc(Cl)cc1

$$$$
