
     RDKit          3D

 18 18  0  0  0  0  0  0  0  0999 V2000
   -0.3367   -2.3098    1.0030 C   0  0  0  0  0  0  0  0  0  0  0  0
   -0.2204   -1.6488   -0.3782 C   0  0  0  0  0  0  0  0  0  0  0  0
   -0.6567   -0.2692   -0.4148 C   0  0  0  0  0  0  0  0  0  0  0  0
    0.2620    0.6386   -0.6017 N   0  0  0  0  0  0  0  0  0  0  0  0
    1.5839    0.2249   -0.7517 N   0  0  0  0  0  0  0  0  0  0  0  0
    2.5498    0.4307    0.2690 C   0  0  0  0  0  0  0  0  0  0  0  0
    2.2014    1.0004    1.3334 O   0  0  0  0  0  0  0  0  0  0  0  0
    3.9766   -0.0078    0.1249 C   0  0  0  0  0  0  0  0  0  0  0  0
    4.3623   -0.9312    1.2442 C   0  0  0  0  0  0  0  0  0  0  0  0
    4.8396    1.2541    0.2129 C   0  0  0  0  0  0  0  0  0  0  0  0
    4.0935   -0.6031   -1.1316 O   0  0  0  0  0  0  0  0  0  0  0  0
   -2.0127    0.2222   -0.2086 C   0  0  0  0  0  0  0  0  0  0  0  0
   -2.2449    1.5923   -0.1230 C   0  0  0  0  0  0  0  0  0  0  0  0
   -3.4713    2.1111    0.0980 C   0  0  0  0  0  0  0  0  0  0  0  0
   -4.5583    1.2850    0.2496 C   0  0  0  0  0  0  0  0  0  0  0  0
   -4.3703   -0.0669    0.1714 C   0  0  0  0  0  0  0  0  0  0  0  0
   -3.0913   -0.5856   -0.0589 C   0  0  0  0  0  0  0  0  0  0  0  0
   -2.9065   -2.3370   -0.1951 Cl  0  0  0  0  0  0  0  0  0  0  0  0
  1  2  1  0
  2  3  1  0
  3  4  2  0
  4  5  1  0
  5  6  1  0
  6  7  2  0
  6  8  1  0
  8  9  1  0
  8 10  1  0
  8 11  1  0
  3 12  1  0
 12 13  2  0
 13 14  1  0
 14 15  2  0
 15 16  1  0
 16 17  2  0
 17 18  1  0
 17 12  1  0
M  END
>  <zinc_id>  (1) 
ZINC000003922122

>  <smiles>  (1) 
CC/C(=N\NC(=O)C(C)(C)O)c1ccccc1Cl

$$$$
