
     RDKit          3D

 22 24  0  0  0  0  0  0  0  0999 V2000
   -1.5975   -1.8260    2.7324 C   0  0  0  0  0  0  0  0  0  0  0  0
   -2.1464   -0.6457    1.9757 C   0  0  0  0  0  0  0  0  0  0  0  0
   -1.6928   -0.6099    0.5374 C   0  0  0  0  0  0  0  0  0  0  0  0
   -2.2069   -1.9213   -0.0938 C   0  0  0  0  0  0  0  0  0  0  0  0
   -1.6252   -3.1174    0.6264 C   0  0  0  0  0  0  0  0  0  0  0  0
   -0.3488   -0.6589    0.3564 O   0  0  0  0  0  0  0  0  0  0  0  0
    0.1401    0.8034    0.5183 C   0  0  1  0  0  0  0  0  0  0  0  0
    1.6185    0.5213    0.1322 C   0  0  0  0  0  0  0  0  0  0  0  0
    2.2730    1.4308   -0.6057 C   0  0  0  0  0  0  0  0  0  0  0  0
    3.5673    0.8958   -0.7831 C   0  0  0  0  0  0  0  0  0  0  0  0
    3.5479   -0.3060   -0.1165 C   0  0  0  0  0  0  0  0  0  0  0  0
    4.6914   -1.1919   -0.0467 N   0  0  0  0  0  4  0  0  0  0  0  0
    4.6560   -2.2675    0.5565 O   0  0  0  0  0  0  0  0  0  0  0  0
    5.8778   -0.8642   -0.6585 O   0  0  0  0  0  1  0  0  0  0  0  0
    2.3717   -0.4654    0.3993 O   0  0  0  0  0  0  0  0  0  0  0  0
   -0.3675    1.1832   -0.9354 N   0  0  0  0  0  0  0  0  0  0  0  0
   -1.7721    1.3853   -0.8720 C   0  0  0  0  0  0  0  0  0  0  0  0
   -2.4430    2.4114   -1.5094 C   0  0  0  0  0  0  0  0  0  0  0  0
   -3.8129    2.5658   -1.4248 C   0  0  0  0  0  0  0  0  0  0  0  0
   -4.4661    1.6222   -0.6578 C   0  0  0  0  0  0  0  0  0  0  0  0
   -3.8220    0.5936   -0.0147 C   0  0  0  0  0  0  0  0  0  0  0  0
   -2.4426    0.4613   -0.1166 C   0  0  0  0  0  0  0  0  0  0  0  0
  1  2  1  0
  2  3  1  0
  3  4  1  0
  4  5  1  0
  3  6  1  0
  6  7  1  0
  7  8  1  6
  8  9  2  0
  9 10  1  0
 10 11  2  0
 11 12  1  0
 12 13  2  0
 12 14  1  0
 11 15  1  0
  7 16  1  0
 16 17  1  0
 17 18  2  0
 18 19  1  0
 19 20  2  0
 20 21  1  0
 21 22  2  0
 22  3  1  0
 15  8  1  0
 22 17  1  0
M  CHG  2  12   1  14  -1
M  END
>  <zinc_id>  (1) 
ZINC000004498807

>  <smiles>  (1) 
CCC1(CC)O[C@@H](c2ccc([N+](=O)[O-])o2)Nc2ccccc21

$$$$
