
     RDKit          3D

 23 26  0  0  0  0  0  0  0  0999 V2000
   -5.3357   -1.0177    0.7059 C   0  0  0  0  0  0  0  0  0  0  0  0
   -4.1627   -0.2611    0.3628 N   0  0  0  0  0  0  0  0  0  0  0  0
   -2.8902   -0.8397    0.1804 C   0  0  0  0  0  0  0  0  0  0  0  0
   -2.6458   -2.1969    0.3138 C   0  0  0  0  0  0  0  0  0  0  0  0
   -1.3847   -2.7088    0.1242 C   0  0  0  0  0  0  0  0  0  0  0  0
   -0.2959   -1.8774   -0.2117 C   0  0  0  0  0  0  0  0  0  0  0  0
   -0.5591   -0.5704   -0.3346 C   0  0  0  0  0  0  0  0  0  0  0  0
   -1.8152   -0.0634   -0.1453 C   0  0  0  0  0  0  0  0  0  0  0  0
   -1.9619    1.4894   -0.3413 C   0  0  1  0  0  0  0  0  0  0  0  0
   -3.3032    1.6677    0.5734 C   0  0  0  0  0  0  0  0  0  0  0  0
   -0.9455    1.8990    0.8612 C   0  0  0  0  0  0  0  0  0  0  0  0
    0.3805    1.3380    0.6780 C   0  0  2  0  0  0  0  0  0  0  0  0
    0.6800    0.3630    1.7955 C   0  0  0  0  0  0  0  0  0  0  0  0
    1.4799    2.3577    0.5512 C   0  0  0  0  0  0  0  0  0  0  0  0
    1.1820    3.5241    0.3653 O   0  0  0  0  0  0  0  0  0  0  0  0
    2.7657    1.7661    0.6753 N   0  0  0  0  0  0  0  0  0  0  0  0
    2.9066    0.4154    0.1803 C   0  0  0  0  0  0  0  0  0  0  0  0
    4.1157   -0.2466    0.3605 C   0  0  0  0  0  0  0  0  0  0  0  0
    4.2682   -1.5598   -0.0194 C   0  0  0  0  0  0  0  0  0  0  0  0
    3.1675   -2.1729   -0.5816 C   0  0  0  0  0  0  0  0  0  0  0  0
    1.9673   -1.5583   -0.7760 C   0  0  0  0  0  0  0  0  0  0  0  0
    1.8769   -0.2523   -0.3798 C   0  0  0  0  0  0  0  0  0  0  0  0
    0.5094    0.5051   -0.7025 C   0  0  1  0  0  0  0  0  0  0  0  0
  1  2  1  0
  2  3  1  0
  3  4  2  0
  4  5  1  0
  5  6  2  0
  6  7  1  0
  7  8  2  0
  8  9  1  0
  9 10  1  1
  9 11  1  0
 11 12  1  0
 12 13  1  1
 12 14  1  0
 14 15  2  0
 14 16  1  0
 16 17  1  0
 17 18  2  0
 18 19  1  0
 19 20  2  0
 20 21  1  0
 21 22  2  0
 23 22  1  1
  8  3  1  0
 23 12  1  0
 23  7  1  0
 22 17  1  0
M  END
>  <zinc_id>  (1) 
ZINC000001639322

>  <smiles>  (1) 
CNc1cccc2c1[C@@H](C)C[C@]1(C)C(=O)Nc3ccccc3[C@@H]21

$$$$
