
     RDKit          3D

 19 20  0  0  0  0  0  0  0  0999 V2000
   -4.6212   -1.0980   -0.0771 C   0  0  0  0  0  0  0  0  0  0  0  0
   -4.4289    0.1312    0.8047 C   0  0  0  0  0  0  0  0  0  0  0  0
   -5.4642    0.0038    1.9257 C   0  0  0  0  0  0  0  0  0  0  0  0
   -4.7040    1.4011    0.0550 C   0  0  0  0  0  0  0  0  0  0  0  0
   -3.0890    0.1084    1.3853 N   0  0  0  0  0  0  0  0  0  0  0  0
   -1.9459    0.0873    0.5224 C   0  0  0  0  0  0  0  0  0  0  0  0
   -1.8576    0.0899   -0.7721 N   0  0  0  0  0  0  0  0  0  0  0  0
   -0.7159    0.0545   -1.3770 C   0  0  0  0  0  0  0  0  0  0  0  0
   -0.6264    0.0573   -2.8246 N   0  0  0  0  0  0  0  0  0  0  0  0
    0.3932    0.0140   -0.6009 C   0  0  0  0  0  0  0  0  0  0  0  0
    1.7958   -0.0380   -1.0423 C   0  0  0  0  0  0  0  0  0  0  0  0
    2.0576   -0.0492   -2.2696 O   0  0  0  0  0  0  0  0  0  0  0  0
    2.8902   -0.0790   -0.0974 C   0  0  0  0  0  0  0  0  0  0  0  0
    2.6248   -0.3556    1.2196 C   0  0  0  0  0  0  0  0  0  0  0  0
    3.6146   -0.4126    2.1740 C   0  0  0  0  0  0  0  0  0  0  0  0
    4.9128   -0.1848    1.7906 C   0  0  0  0  0  0  0  0  0  0  0  0
    5.2293    0.0957    0.4875 C   0  0  0  0  0  0  0  0  0  0  0  0
    4.2033    0.1442   -0.4392 C   0  0  0  0  0  0  0  0  0  0  0  0
   -0.2686    0.0296    0.9821 S   0  0  0  0  0  0  0  0  0  0  0  0
  1  2  1  0
  2  3  1  0
  2  4  1  0
  2  5  1  0
  5  6  1  0
  6  7  2  0
  7  8  1  0
  8  9  1  0
  8 10  2  0
 10 11  1  0
 11 12  2  0
 11 13  1  0
 13 14  2  0
 14 15  1  0
 15 16  2  0
 16 17  1  0
 17 18  2  0
 10 19  1  0
 19  6  1  0
 18 13  1  0
M  END
>  <zinc_id>  (1) 
ZINC000001398629

>  <smiles>  (1) 
CC(C)(C)Nc1nc(N)c(C(=O)c2ccccc2)s1

$$$$
