
     RDKit          3D

 22 24  0  0  0  0  0  0  0  0999 V2000
    3.5578    2.3312    0.0001 C   0  0  0  0  0  0  0  0  0  0  0  0
    2.7279    1.1562    0.0326 N   0  0  0  0  0  0  0  0  0  0  0  0
    1.2990    1.2325    0.0844 C   0  0  0  0  0  0  0  0  0  0  0  0
    0.7640    2.2882    0.5059 O   0  0  0  0  0  0  0  0  0  0  0  0
    0.5024    0.1216   -0.3380 N   0  0  0  0  0  0  0  0  0  0  0  0
   -0.8194    0.3592   -0.7678 C   0  0  0  0  0  0  0  0  0  0  0  0
   -1.0860    1.0884   -1.9304 C   0  0  0  0  0  0  0  0  0  0  0  0
   -2.3473    1.3338   -2.3709 C   0  0  0  0  0  0  0  0  0  0  0  0
   -3.3978    0.8464   -1.6451 C   0  0  0  0  0  0  0  0  0  0  0  0
   -3.1830    0.1091   -0.4716 C   0  0  0  0  0  0  0  0  0  0  0  0
   -4.2323   -0.3770    0.2522 C   0  0  0  0  0  0  0  0  0  0  0  0
   -4.0201   -1.0987    1.4006 C   0  0  0  0  0  0  0  0  0  0  0  0
   -2.7333   -1.3289    1.8171 C   0  0  0  0  0  0  0  0  0  0  0  0
   -1.6627   -0.8476    1.1020 C   0  0  0  0  0  0  0  0  0  0  0  0
   -1.8847   -0.1159   -0.0622 C   0  0  0  0  0  0  0  0  0  0  0  0
    1.1054   -1.2073   -0.3030 C   0  0  1  0  0  0  0  0  0  0  0  0
    1.1379   -1.7364    1.1263 C   0  0  0  0  0  0  0  0  0  0  0  0
    0.4083   -2.0738   -1.1402 O   0  0  0  0  0  0  0  0  0  0  0  0
    2.5235   -1.1019   -0.8533 C   0  0  0  0  0  0  0  0  0  0  0  0
    3.3085   -0.1737    0.0140 C   0  0  0  0  0  0  0  0  0  0  0  0
    3.2717   -0.6894    1.4456 C   0  0  0  0  0  0  0  0  0  0  0  0
    4.7604   -0.1161   -0.4053 C   0  0  0  0  0  0  0  0  0  0  0  0
  1  2  1  0
  2  3  1  0
  3  4  2  0
  3  5  1  0
  5  6  1  0
  6  7  2  0
  7  8  1  0
  8  9  2  0
  9 10  1  0
 10 11  2  0
 11 12  1  0
 12 13  2  0
 13 14  1  0
 14 15  2  0
  5 16  1  0
 16 17  1  1
 16 18  1  0
 16 19  1  0
 19 20  1  0
 20 21  1  0
 20 22  1  0
 20  2  1  0
 15  6  1  0
 15 10  1  0
M  END
>  <zinc_id>  (1) 
ZINC000000262587

>  <smiles>  (1) 
CN1C(=O)N(c2cccc3ccccc23)[C@@](C)(O)CC1(C)C

$$$$
