
     RDKit          3D

 20 21  0  0  0  0  0  0  0  0999 V2000
    4.9885    0.4833   -2.0899 C   0  0  0  0  0  0  0  0  0  0  0  0
    3.9666    0.0223   -1.1064 C   0  0  0  0  0  0  0  0  0  0  0  0
    2.7293   -0.2730   -1.4366 C   0  0  0  0  0  0  0  0  0  0  0  0
    1.6417   -0.7124   -0.6861 C   0  0  0  0  0  0  0  0  0  0  0  0
    1.8570   -0.9239    0.8926 C   0  0  2  0  0  0  0  0  0  0  0  0
    1.2061    0.4735    1.3626 C   0  0  0  0  0  0  0  0  0  0  0  0
    1.8480    1.2820    1.9948 O   0  0  0  0  0  0  0  0  0  0  0  0
   -0.1864    0.6623    0.9651 C   0  0  0  0  0  0  0  0  0  0  0  0
   -0.8908   -0.1876    0.2900 C   0  0  0  0  0  0  0  0  0  0  0  0
   -2.2257   -0.0546   -0.1151 N   0  0  0  0  0  4  0  0  0  0  0  0
   -2.9887    1.0402    0.1643 C   0  0  0  0  0  0  0  0  0  0  0  0
   -4.3014    1.1352   -0.2520 C   0  0  0  0  0  0  0  0  0  0  0  0
   -5.2173    2.5828    0.1502 Cl  0  0  0  0  0  0  0  0  0  0  0  0
   -4.8702    0.0958   -0.9743 C   0  0  0  0  0  0  0  0  0  0  0  0
   -4.1107   -1.0091   -1.2599 C   0  0  0  0  0  0  0  0  0  0  0  0
   -2.7899   -1.0528   -0.8151 C   0  0  0  0  0  0  0  0  0  0  0  0
   -2.0008   -2.2032   -1.1131 N   0  0  0  0  0  0  0  0  0  0  0  0
    3.3778   -0.5304    1.1217 C   0  0  0  0  0  0  0  0  0  0  0  0
    3.7525   -0.6829    2.6214 C   0  0  0  0  0  0  0  0  0  0  0  0
    4.2144   -0.1476    0.2855 C   0  0  0  0  0  0  0  0  0  0  0  0
  1  2  1  0
  2  3  2  0
  3  4  1  0
  4  5  1  0
  5  6  1  1
  6  7  2  0
  6  8  1  0
  8  9  2  0
  9 10  1  0
 10 11  2  0
 11 12  1  0
 12 13  1  0
 12 14  2  0
 14 15  1  0
 15 16  2  0
 16 17  1  0
  5 18  1  0
 18 19  1  0
 18 20  2  0
 20  2  1  0
 16 10  1  0
M  CHG  1  10   1
M  END
>  <zinc_id>  (1) 
ZINC000002535329

>  <smiles>  (1) 
CC1=CC[C@H](C(=O)/C=C/[n+]2cc(Cl)ccc2N)C(C)=C1

$$$$
