
     RDKit          3D

 20 21  0  0  0  0  0  0  0  0999 V2000
   -2.0935   -2.7760    0.5578 C   0  0  0  0  0  0  0  0  0  0  0  0
   -1.7264   -1.6631   -0.0791 C   0  0  0  0  0  0  0  0  0  0  0  0
   -0.4973   -1.7029   -0.7981 N   0  0  0  0  0  0  0  0  0  0  0  0
    0.7368   -1.3479   -0.2606 N   0  0  0  0  0  0  0  0  0  0  0  0
    1.3057   -0.1435   -0.7438 C   0  0  0  0  0  0  0  0  0  0  0  0
    0.7149    0.5339   -1.5989 O   0  0  0  0  0  0  0  0  0  0  0  0
    2.6063    0.3310   -0.2471 C   0  0  0  0  0  0  0  0  0  0  0  0
    3.1520    1.5118   -0.6996 C   0  0  0  0  0  0  0  0  0  0  0  0
    4.3549    2.0031   -0.2498 C   0  0  0  0  0  0  0  0  0  0  0  0
    5.0687    1.3059    0.6996 C   0  0  0  0  0  0  0  0  0  0  0  0
    4.5425    0.1237    1.1684 C   0  0  0  0  0  0  0  0  0  0  0  0
    3.3255   -0.3610    0.7005 C   0  0  0  0  0  0  0  0  0  0  0  0
    2.8017   -1.5644    1.1836 O   0  0  0  0  0  0  0  0  0  0  0  0
   -2.5622   -0.4708   -0.0194 C   0  0  0  0  0  0  0  0  0  0  0  0
   -2.3605    0.7450   -0.6215 C   0  0  0  0  0  0  0  0  0  0  0  0
   -3.4170    1.5354   -0.2536 C   0  0  0  0  0  0  0  0  0  0  0  0
   -3.6842    2.9682   -0.6376 C   0  0  0  0  0  0  0  0  0  0  0  0
   -4.1872    0.8262    0.5157 O   0  0  0  0  0  0  0  0  0  0  0  0
   -3.7331   -0.3722    0.6936 C   0  0  0  0  0  0  0  0  0  0  0  0
   -4.3478   -1.4822    1.5212 C   0  0  0  0  0  0  0  0  0  0  0  0
  1  2  2  0
  2  3  1  0
  3  4  1  0
  4  5  1  0
  5  6  2  0
  5  7  1  0
  7  8  2  0
  8  9  1  0
  9 10  2  0
 10 11  1  0
 11 12  2  0
 12 13  1  0
  2 14  1  0
 14 15  1  0
 15 16  2  0
 16 17  1  0
 16 18  1  0
 18 19  1  0
 19 20  1  0
 12  7  1  0
 19 14  2  0
M  END
>  <zinc_id>  (1) 
ZINC000002783103

>  <smiles>  (1) 
C=C(NNC(=O)c1ccccc1O)c1cc(C)oc1C

$$$$
