
     RDKit          3D

 31 34  0  0  0  0  0  0  0  0999 V2000
   -6.7143   -3.2471   -2.2608 C   0  0  0  0  0  0  0  0  0  0  0  0
   -5.5072   -2.8107   -1.6661 O   0  0  0  0  0  0  0  0  0  0  0  0
   -5.5264   -1.6525   -0.9033 C   0  0  0  0  0  0  0  0  0  0  0  0
   -6.6907   -0.9364   -0.7233 C   0  0  0  0  0  0  0  0  0  0  0  0
   -6.7394    0.2183    0.0298 C   0  0  0  0  0  0  0  0  0  0  0  0
   -5.6057    0.7090    0.6418 C   0  0  0  0  0  0  0  0  0  0  0  0
   -5.6339    1.8784    1.4098 O   0  0  0  0  0  0  0  0  0  0  0  0
   -6.8208    2.6058    1.5917 C   0  0  0  0  0  0  0  0  0  0  0  0
   -4.4356    0.0012    0.4688 C   0  0  0  0  0  0  0  0  0  0  0  0
   -3.2661    0.5080    1.1005 N   0  0  0  0  0  0  0  0  0  0  0  0
   -2.0185   -0.1594    0.9737 C   0  0  0  0  0  0  0  0  0  0  0  0
   -1.9225   -1.2147    0.2985 O   0  0  0  0  0  0  0  0  0  0  0  0
   -0.8433    0.4027    1.6437 C   0  0  0  0  0  0  0  0  0  0  0  0
    0.3565   -0.3769    1.4304 N   0  0  0  0  0  0  0  0  0  0  0  0
    1.4372    0.2824    2.1409 C   0  0  0  0  0  0  0  0  0  0  0  0
    1.3282    1.7639    1.8451 C   0  0  0  0  0  0  0  0  0  0  0  0
    1.4570    2.0038    0.3433 C   0  0  0  0  0  0  0  0  0  0  0  0
    2.8252    1.6853   -0.0941 C   0  0  0  0  0  0  0  0  0  0  0  0
    3.5198    0.5894    0.2298 N   0  0  0  0  0  0  0  0  0  0  0  0
    4.7136    0.7140   -0.3872 C   0  0  0  0  0  0  0  0  0  0  0  0
    5.8032   -0.2616   -0.3136 C   0  0  0  0  0  0  0  0  0  0  0  0
    6.9814   -0.0190   -0.9924 C   0  0  0  0  0  0  0  0  0  0  0  0
    8.0192   -0.9121   -0.9434 C   0  0  0  0  0  0  0  0  0  0  0  0
    7.8657   -2.0590   -0.2031 C   0  0  0  0  0  0  0  0  0  0  0  0
    6.7051   -2.2770    0.4532 N   0  0  0  0  0  0  0  0  0  0  0  0
    5.6798   -1.4071    0.4121 C   0  0  0  0  0  0  0  0  0  0  0  0
    4.7315    1.8715   -1.0719 N   0  0  0  0  0  0  0  0  0  0  0  0
    3.5704    2.4256   -0.8665 O   0  0  0  0  0  0  0  0  0  0  0  0
    0.4570    1.1436   -0.4103 C   0  0  0  0  0  0  0  0  0  0  0  0
    0.6676   -0.3157    0.0134 C   0  0  0  0  0  0  0  0  0  0  0  0
   -4.3941   -1.1533   -0.2859 C   0  0  0  0  0  0  0  0  0  0  0  0
  1  2  1  0
  2  3  1  0
  3  4  2  0
  4  5  1  0
  5  6  2  0
  6  7  1  0
  7  8  1  0
  6  9  1  0
  9 10  1  0
 10 11  1  0
 11 12  2  0
 11 13  1  0
 13 14  1  0
 14 15  1  0
 15 16  1  0
 16 17  1  0
 17 18  1  0
 18 19  2  0
 19 20  1  0
 20 21  1  0
 21 22  2  0
 22 23  1  0
 23 24  2  0
 24 25  1  0
 25 26  2  0
 20 27  2  0
 27 28  1  0
 17 29  1  0
 29 30  1  0
  9 31  2  0
 31  3  1  0
 30 14  1  0
 28 18  1  0
 26 21  1  0
M  END
>  <zinc_id>  (1) 
ZINC000000026786

>  <smiles>  (1) 
COc1ccc(OC)c(NC(=O)CN2CCC(c3nc(-c4cccnc4)no3)CC2)c1

$$$$
