
     RDKit          3D

 20 22  0  0  0  0  0  0  0  0999 V2000
   -1.8779   -1.0698    3.4390 N   0  0  0  0  0  0  0  0  0  0  0  0
   -2.3518   -0.5843    2.5206 C   0  0  0  0  0  0  0  0  0  0  0  0
   -2.9509    0.0302    1.3679 C   0  0  0  0  0  0  0  0  0  0  0  0
   -4.3284    0.2440    1.2804 C   0  0  0  0  0  0  0  0  0  0  0  0
   -4.9207    0.8242    0.1992 C   0  0  0  0  0  0  0  0  0  0  0  0
   -4.1303    1.2192   -0.8570 C   0  0  0  0  0  0  0  0  0  0  0  0
   -2.7786    1.0175   -0.7884 C   0  0  0  0  0  0  0  0  0  0  0  0
   -2.1801    0.4320    0.3025 C   0  0  0  0  0  0  0  0  0  0  0  0
   -0.7538    0.2501    0.3087 N   0  0  0  0  0  0  0  0  0  0  0  0
    0.0618    0.6507   -0.7661 C   0  0  0  0  0  0  0  0  0  0  0  0
   -0.4494    1.1851   -1.7711 O   0  0  0  0  0  0  0  0  0  0  0  0
    1.5338    0.4523   -0.7371 C   0  0  0  0  0  0  0  0  0  0  0  0
    2.6902    0.8606   -1.9200 S   0  0  0  0  0  0  0  0  0  0  0  0
    4.0921    0.3117   -1.1234 C   0  0  0  0  0  0  0  0  0  0  0  0
    3.6108   -0.1826    0.0623 C   0  0  0  0  0  0  0  0  0  0  0  0
    2.2811   -0.1030    0.2490 C   0  0  0  0  0  0  0  0  0  0  0  0
    1.7698   -0.6543    1.5647 C   0  0  0  0  0  0  0  0  0  0  0  0
    2.3575   -2.0384    1.6850 C   0  0  0  0  0  0  0  0  0  0  0  0
    3.8504   -2.0445    1.6912 C   0  0  0  0  0  0  0  0  0  0  0  0
    4.4745   -0.8007    1.1512 C   0  0  0  0  0  0  0  0  0  0  0  0
  1  2  3  0
  2  3  1  0
  3  4  2  0
  4  5  1  0
  5  6  2  0
  6  7  1  0
  7  8  2  0
  8  9  1  0
  9 10  1  0
 10 11  2  0
 10 12  1  0
 12 13  1  0
 13 14  1  0
 14 15  2  0
 15 16  1  0
 16 17  1  0
 17 18  1  0
 18 19  1  0
 19 20  1  0
  8  3  1  0
 16 12  2  0
 20 15  1  0
M  END
>  <zinc_id>  (1) 
ZINC000000054367

>  <smiles>  (1) 
N#Cc1ccccc1NC(=O)c1scc2c1CCCC2

$$$$
