
     RDKit          3D

 20 22  0  0  0  0  0  0  0  0999 V2000
   -2.0188    0.7136   -2.3578 C   0  0  0  0  0  0  0  0  0  0  0  0
   -2.5462   -0.0279   -1.1941 C   0  0  0  0  0  0  0  0  0  0  0  0
   -3.8885   -0.1667   -0.9202 C   0  0  0  0  0  0  0  0  0  0  0  0
   -4.0355   -0.9231    0.2491 C   0  0  0  0  0  0  0  0  0  0  0  0
   -2.7256   -1.2077    0.6276 C   0  0  0  0  0  0  0  0  0  0  0  0
   -2.3632   -2.0004    1.8299 C   0  0  0  0  0  0  0  0  0  0  0  0
   -1.8703   -0.6614   -0.2507 N   0  0  0  0  0  0  0  0  0  0  0  0
   -0.4315   -0.7358   -0.2012 C   0  0  0  0  0  0  0  0  0  0  0  0
    0.5400   -2.0708   -0.6072 S   0  0  0  0  0  0  0  0  0  0  0  0
    2.0738   -1.3898   -0.2944 C   0  0  0  0  0  0  0  0  0  0  0  0
    1.7722   -0.1216    0.1237 C   0  0  0  0  0  0  0  0  0  0  0  0
    0.4791    0.2225    0.1740 C   0  0  0  0  0  0  0  0  0  0  0  0
   -0.0153    1.5532    0.6034 C   0  0  0  0  0  0  0  0  0  0  0  0
   -1.2223    1.8388    0.6382 O   0  0  0  0  0  0  0  0  0  0  0  0
    0.8999    2.5626    0.9964 N   0  0  0  0  0  0  0  0  0  0  0  0
    0.4341    3.8161    1.4010 N   0  0  0  0  0  0  0  0  0  0  0  0
    3.0120    0.6825    0.4632 C   0  0  0  0  0  0  0  0  0  0  0  0
    3.9973    0.5943   -0.6709 C   0  0  0  0  0  0  0  0  0  0  0  0
    4.3981   -0.8246   -0.9845 C   0  0  0  0  0  0  0  0  0  0  0  0
    3.5109   -1.8536   -0.3782 C   0  0  0  0  0  0  0  0  0  0  0  0
  1  2  1  0
  2  3  2  0
  3  4  1  0
  4  5  2  0
  5  6  1  0
  5  7  1  0
  7  8  1  0
  8  9  1  0
  9 10  1  0
 10 11  2  0
 11 12  1  0
 12 13  1  0
 13 14  2  0
 13 15  1  0
 15 16  1  0
 11 17  1  0
 17 18  1  0
 18 19  1  0
 19 20  1  0
  7  2  1  0
 12  8  2  0
 20 10  1  0
M  END
>  <zinc_id>  (1) 
ZINC000000116393

>  <smiles>  (1) 
Cc1ccc(C)n1-c1sc2c(c1C(=O)NN)CCCC2

$$$$
