
     RDKit          3D

 22 24  0  0  0  0  0  0  0  0999 V2000
   -6.6457   -1.3224    0.3084 C   0  0  0  0  0  0  0  0  0  0  0  0
   -5.5762   -1.6066    1.1895 O   0  0  0  0  0  0  0  0  0  0  0  0
   -4.2875   -1.2006    0.9016 C   0  0  0  0  0  0  0  0  0  0  0  0
   -3.2577   -1.4809    1.7621 C   0  0  0  0  0  0  0  0  0  0  0  0
   -1.9590   -1.0966    1.5168 C   0  0  0  0  0  0  0  0  0  0  0  0
   -1.6683   -0.3978    0.3571 C   0  0  0  0  0  0  0  0  0  0  0  0
   -0.3007    0.0269    0.0625 C   0  0  0  0  0  0  0  0  0  0  0  0
    0.6713   -0.2508    0.8983 O   0  0  0  0  0  0  0  0  0  0  0  0
    1.9097    0.1224    0.6522 C   0  0  0  0  0  0  0  0  0  0  0  0
    2.9053   -0.1820    1.5442 C   0  0  0  0  0  0  0  0  0  0  0  0
    2.5596   -0.9394    2.7907 C   0  0  0  0  0  0  0  0  0  0  0  0
    4.2192    0.1790    1.3460 C   0  0  0  0  0  0  0  0  0  0  0  0
    4.5870    0.8816    0.2061 C   0  0  0  0  0  0  0  0  0  0  0  0
    5.9956    1.2905   -0.0458 C   0  0  0  0  0  0  0  0  0  0  0  0
    3.5827    1.1862   -0.6893 C   0  0  0  0  0  0  0  0  0  0  0  0
    2.2687    0.8208   -0.4834 C   0  0  0  0  0  0  0  0  0  0  0  0
    1.2569    1.1207   -1.3728 C   0  0  0  0  0  0  0  0  0  0  0  0
    1.5099    1.7482   -2.4170 O   0  0  0  0  0  0  0  0  0  0  0  0
   -0.0334    0.7123   -1.0811 C   0  0  0  0  0  0  0  0  0  0  0  0
   -1.0527    1.0082   -1.9659 O   0  0  0  0  0  0  0  0  0  0  0  0
   -2.6854   -0.1147   -0.5041 C   0  0  0  0  0  0  0  0  0  0  0  0
   -3.9993   -0.5051   -0.2530 C   0  0  0  0  0  0  0  0  0  0  0  0
  1  2  1  0
  2  3  1  0
  3  4  2  0
  4  5  1  0
  5  6  2  0
  6  7  1  0
  7  8  1  0
  8  9  1  0
  9 10  2  0
 10 11  1  0
 10 12  1  0
 12 13  2  0
 13 14  1  0
 13 15  1  0
 15 16  2  0
 16 17  1  0
 17 18  2  0
 17 19  1  0
 19 20  1  0
  6 21  1  0
 21 22  2  0
 22  3  1  0
 19  7  2  0
 16  9  1  0
M  END
>  <zinc_id>  (1) 
ZINC000001961566

>  <smiles>  (1) 
COc1ccc(-c2oc3c(C)cc(C)cc3c(=O)c2O)cc1

$$$$
