
     RDKit          3D

 20 21  0  0  0  0  0  0  0  0999 V2000
    4.0778    2.3248   -0.7745 C   0  0  0  0  0  0  0  0  0  0  0  0
    3.7307    1.2675   -0.0675 C   0  0  0  0  0  0  0  0  0  0  0  0
    4.1619   -0.0982   -0.8229 C   0  0  1  0  0  0  0  0  0  0  0  0
    4.5698   -0.9354    0.5323 C   0  0  0  0  0  0  0  0  0  0  0  0
    3.7001   -0.5758    1.6356 C   0  0  0  0  0  0  0  0  0  0  0  0
    2.2901   -1.4198    1.3305 C   0  0  1  0  0  0  0  0  0  0  0  0
    1.5658   -0.6959    2.4824 O   0  0  0  0  0  0  0  0  0  0  0  0
    1.7874   -0.1993    0.2017 C   0  0  2  0  0  0  0  0  0  0  0  0
    0.4900   -0.9135   -0.2552 N   0  0  0  0  0  0  0  0  0  0  0  0
    0.4977   -2.2033   -0.8191 C   0  0  0  0  0  0  0  0  0  0  0  0
   -0.6904   -0.1976   -0.0728 C   0  0  0  0  0  0  0  0  0  0  0  0
   -0.6454    1.2851    0.5814 S   0  0  0  0  0  0  0  0  0  0  0  0
   -1.9503   -0.7320   -0.4468 N   0  0  0  0  0  0  0  0  0  0  0  0
   -3.1561   -0.0183   -0.2683 C   0  0  0  0  0  0  0  0  0  0  0  0
   -4.3505   -0.5880   -0.6505 C   0  0  0  0  0  0  0  0  0  0  0  0
   -5.5582    0.0509   -0.5049 C   0  0  0  0  0  0  0  0  0  0  0  0
   -5.5768    1.3041    0.0418 C   0  0  0  0  0  0  0  0  0  0  0  0
   -4.4120    1.8977    0.4312 C   0  0  0  0  0  0  0  0  0  0  0  0
   -3.2269    1.2439    0.2766 C   0  0  0  0  0  0  0  0  0  0  0  0
    2.6953   -0.7969   -0.9988 C   0  0  0  0  0  0  0  0  0  0  0  0
  1  2  2  0
  3  2  1  1
  3  4  1  0
  4  5  1  0
  5  6  1  0
  6  7  1  1
  6  8  1  0
  8  9  1  6
  9 10  1  0
  9 11  1  0
 11 12  2  0
 11 13  1  0
 13 14  1  0
 14 15  2  0
 15 16  1  0
 16 17  2  0
 17 18  1  0
 18 19  2  0
  8 20  1  0
 20  3  1  0
 19 14  1  0
M  END
>  <zinc_id>  (1) 
ZINC000000180650

>  <smiles>  (1) 
C=C[C@H]1CC[C@@H](O)[C@H](N(C)C(=S)Nc2ccccc2)C1

$$$$
