
     RDKit          3D

 20 22  0  0  0  0  0  0  0  0999 V2000
    2.3190    0.9497   -3.1131 N   0  0  0  0  0  0  0  0  0  0  0  0
    2.2747    0.4992   -2.0492 C   0  0  0  0  0  0  0  0  0  0  0  0
    2.2310   -0.0470   -0.7068 C   0  0  0  0  0  0  0  0  0  0  0  0
    3.2268   -0.7405   -0.2201 C   0  0  0  0  0  0  0  0  0  0  0  0
    4.4713   -1.0294   -0.9654 C   0  0  0  0  0  0  0  0  0  0  0  0
    5.1307   -2.1931   -0.3124 C   0  0  0  0  0  0  0  0  0  0  0  0
    4.6720   -2.0837    1.1339 C   0  0  0  0  0  0  0  0  0  0  0  0
    3.3415   -1.3980    1.1235 C   0  0  0  0  0  0  0  0  0  0  0  0
    0.9985    0.2601    0.0508 C   0  0  0  0  0  0  0  0  0  0  0  0
   -0.2428    0.1843   -0.3407 N   0  0  0  0  0  0  0  0  0  0  0  0
   -1.2087    0.5113    0.4469 C   0  0  0  0  0  0  0  0  0  0  0  0
   -2.6182    0.4206    0.0311 C   0  0  0  0  0  0  0  0  0  0  0  0
   -2.9950   -0.0635   -1.2057 C   0  0  0  0  0  0  0  0  0  0  0  0
   -4.2965   -0.1595   -1.6273 C   0  0  0  0  0  0  0  0  0  0  0  0
   -5.3082    0.2433   -0.7926 C   0  0  0  0  0  0  0  0  0  0  0  0
   -4.9747    0.7359    0.4610 C   0  0  0  0  0  0  0  0  0  0  0  0
   -3.6627    0.8188    0.8553 C   0  0  0  0  0  0  0  0  0  0  0  0
   -3.3349    1.3152    2.1228 O   0  0  0  0  0  0  0  0  0  0  0  0
   -0.8766    0.9420    1.7085 C   0  0  0  0  0  0  0  0  0  0  0  0
    0.8529    0.8343    1.6513 S   0  0  0  0  0  0  0  0  0  0  0  0
  1  2  3  0
  2  3  1  0
  3  4  2  3
  4  5  1  0
  5  6  1  0
  6  7  1  0
  7  8  1  0
  3  9  1  0
  9 10  2  0
 10 11  1  0
 11 12  1  0
 12 13  2  0
 13 14  1  0
 14 15  2  0
 15 16  1  0
 16 17  2  0
 17 18  1  0
 11 19  2  0
 19 20  1  0
  8  4  1  0
 20  9  1  0
 17 12  1  0
M  END
>  <zinc_id>  (1) 
ZINC000000181868

>  <smiles>  (1) 
N#CC(=C1CCCC1)c1nc(-c2ccccc2O)cs1

$$$$
