
     RDKit          3D

 21 23  0  0  0  0  0  0  0  0999 V2000
   -0.2636    0.1815   -2.0503 O   0  0  0  0  0  0  0  0  0  0  0  0
   -0.9792    0.0514   -1.0236 C   0  0  0  0  0  0  0  0  0  0  0  0
   -0.4262   -0.4259    0.1842 N   0  0  0  0  0  0  0  0  0  0  0  0
    0.9537   -0.7547    0.2123 N   0  0  0  0  0  0  0  0  0  0  0  0
    1.8347    0.1344    0.4216 C   0  0  0  0  0  0  0  0  0  0  0  0
    3.2661   -0.0844    0.4720 C   0  0  0  0  0  0  0  0  0  0  0  0
    3.8822   -1.3047    0.2976 C   0  0  0  0  0  0  0  0  0  0  0  0
    5.2565   -1.4430    0.3585 C   0  0  0  0  0  0  0  0  0  0  0  0
    6.0525   -0.3247    0.6024 C   0  0  0  0  0  0  0  0  0  0  0  0
    7.4011   -0.4280    0.6678 F   0  0  0  0  0  0  0  0  0  0  0  0
    5.4407    0.8787    0.7741 C   0  0  0  0  0  0  0  0  0  0  0  0
    4.0782    1.0039    0.7117 C   0  0  0  0  0  0  0  0  0  0  0  0
   -2.3833    0.4075   -1.1268 C   0  0  0  0  0  0  0  0  0  0  0  0
   -3.0539    0.8708   -2.1912 N   0  0  0  0  0  0  0  0  0  0  0  0
   -4.3345    1.0727   -1.8598 N   0  0  0  0  0  0  0  0  0  0  0  0
   -4.5299    0.7447   -0.5673 C   0  0  0  0  0  0  0  0  0  0  0  0
   -3.2968    0.3261   -0.1102 C   0  0  0  0  0  0  0  0  0  0  0  0
   -3.2021   -0.1111    1.3271 C   0  0  0  0  0  0  0  0  0  0  0  0
   -4.3533   -1.0709    1.5452 C   0  0  0  0  0  0  0  0  0  0  0  0
   -5.6882   -0.4577    1.2795 C   0  0  0  0  0  0  0  0  0  0  0  0
   -5.6547    0.7334    0.3769 C   0  0  0  0  0  0  0  0  0  0  0  0
  1  2  2  0
  2  3  1  0
  3  4  1  0
  4  5  2  0
  5  6  1  0
  6  7  2  0
  7  8  1  0
  8  9  2  0
  9 10  1  0
  9 11  1  0
 11 12  2  0
  2 13  1  0
 13 14  2  0
 14 15  1  0
 15 16  1  0
 16 17  2  0
 17 18  1  0
 18 19  1  0
 19 20  1  0
 20 21  1  0
 12  6  1  0
 17 13  1  0
 21 16  1  0
M  END
>  <zinc_id>  (1) 
ZINC000000179289

>  <smiles>  (1) 
O=C(N/N=C/c1ccc(F)cc1)c1n[nH]c2c1CCCC2

$$$$
