
     RDKit          3D

 22 25  0  0  0  0  0  0  0  0999 V2000
    4.4298   -2.6385    0.8589 C   0  0  0  0  0  0  0  0  0  0  0  0
    3.4270   -1.5650    0.5464 C   0  0  0  0  0  0  0  0  0  0  0  0
    3.8499   -0.2985    0.2190 C   0  0  0  0  0  0  0  0  0  0  0  0
    2.9498    0.7312   -0.0782 C   0  0  0  0  0  0  0  0  0  0  0  0
    1.6008    0.4920   -0.0482 C   0  0  0  0  0  0  0  0  0  0  0  0
    1.1855   -0.7935    0.2848 C   0  0  0  0  0  0  0  0  0  0  0  0
    2.0728   -1.8090    0.5779 C   0  0  0  0  0  0  0  0  0  0  0  0
   -0.1815   -1.0236    0.3121 C   0  0  0  0  0  0  0  0  0  0  0  0
   -0.5938   -2.1777    0.6105 O   0  0  0  0  0  0  0  0  0  0  0  0
   -1.0816   -0.0490    0.0289 C   0  0  0  0  0  0  0  0  0  0  0  0
   -2.5168   -0.2990    0.0568 C   0  0  0  0  0  0  0  0  0  0  0  0
   -3.1376   -0.8598   -1.0332 C   0  0  0  0  0  0  0  0  0  0  0  0
   -4.4933   -1.1278   -1.0812 C   0  0  0  0  0  0  0  0  0  0  0  0
   -5.2780   -0.8256    0.0069 C   0  0  0  0  0  0  0  0  0  0  0  0
   -4.6788   -0.2636    1.1105 C   0  0  0  0  0  0  0  0  0  0  0  0
   -3.3009    0.0040    1.1458 C   0  0  0  0  0  0  0  0  0  0  0  0
   -0.5836    1.1997   -0.2923 C   0  0  0  0  0  0  0  0  0  0  0  0
   -1.5230    2.1999   -0.5831 O   0  0  0  0  0  0  0  0  0  0  0  0
    0.7230    1.4627   -0.3303 N   0  0  0  0  0  0  0  0  0  0  0  0
    1.1545    2.8138   -0.6963 C   0  0  0  0  0  0  0  0  0  0  0  0
    2.5166    2.7488   -1.3739 C   0  0  0  0  0  0  0  0  0  0  0  0
    3.4591    2.0785   -0.4112 C   0  0  0  0  0  0  0  0  0  0  0  0
  1  2  1  0
  2  3  2  0
  3  4  1  0
  4  5  2  0
  5  6  1  0
  6  7  2  0
  6  8  1  0
  8  9  2  0
  8 10  1  0
 10 11  1  0
 11 12  2  0
 12 13  1  0
 13 14  2  0
 14 15  1  0
 15 16  2  0
 10 17  2  0
 17 18  1  0
 17 19  1  0
 19 20  1  0
 20 21  1  0
 21 22  1  0
  7  2  1  0
 16 11  1  0
 22  4  1  0
 19  5  1  0
M  END
>  <zinc_id>  (1) 
ZINC000000519579

>  <smiles>  (1) 
Cc1cc2c3c(c1)c(=O)c(-c1ccccc1)c(O)n3CCC2

$$$$
