
     RDKit          3D

 19 20  0  0  0  0  0  0  0  0999 V2000
   -2.2329   -1.0288    1.8603 C   0  0  0  0  0  0  0  0  0  0  0  0
   -2.1446   -0.2192    0.6053 C   0  0  0  0  0  0  0  0  0  0  0  0
   -0.8818    0.0532    0.0673 C   0  0  0  0  0  0  0  0  0  0  0  0
   -0.7517    0.7939   -1.0857 C   0  0  0  0  0  0  0  0  0  0  0  0
    0.4881    1.1105   -1.6895 N   0  0  0  0  0  0  0  0  0  0  0  0
    1.7319    0.6635   -1.1171 C   0  0  0  0  0  0  0  0  0  0  0  0
    2.9684    0.8718   -1.5539 N   0  0  0  0  0  0  0  0  0  0  0  0
    3.9589    0.3852   -0.8967 C   0  0  0  0  0  0  0  0  0  0  0  0
    3.7131   -0.3356    0.2371 C   0  0  0  0  0  0  0  0  0  0  0  0
    4.6519   -0.9652    1.1195 N   0  0  0  0  0  4  0  0  0  0  0  0
    5.8640   -0.9119    0.9238 O   0  0  0  0  0  0  0  0  0  0  0  0
    4.1545   -1.6394    2.2050 O   0  0  0  0  0  1  0  0  0  0  0  0
    2.0093   -0.2697    0.2950 S   0  0  0  0  0  0  0  0  0  0  0  0
   -1.9048    1.2491   -1.6786 C   0  0  0  0  0  0  0  0  0  0  0  0
   -3.1592    0.9824   -1.1501 C   0  0  0  0  0  0  0  0  0  0  0  0
   -3.2879    0.2477   -0.0065 C   0  0  0  0  0  0  0  0  0  0  0  0
   -4.6290   -0.0442    0.5689 C   0  0  0  0  0  0  0  0  0  0  0  0
   -5.6784    0.5941   -0.3129 C   0  0  0  0  0  0  0  0  0  0  0  0
   -4.8699   -1.5375    0.6335 C   0  0  0  0  0  0  0  0  0  0  0  0
  1  2  1  0
  2  3  2  0
  3  4  1  0
  4  5  1  0
  5  6  1  0
  6  7  2  0
  7  8  1  0
  8  9  2  0
  9 10  1  0
 10 11  2  0
 10 12  1  0
  9 13  1  0
  4 14  2  0
 14 15  1  0
 15 16  2  0
 16 17  1  0
 17 18  1  0
 17 19  1  0
 16  2  1  0
 13  6  1  0
M  CHG  2  10   1  12  -1
M  END
>  <zinc_id>  (1) 
ZINC000004054541

>  <smiles>  (1) 
Cc1cc(Nc2ncc([N+](=O)[O-])s2)ccc1C(C)C

$$$$
