
     RDKit          3D

 21 23  0  0  0  0  0  0  0  0999 V2000
   -2.0374    2.5290   -0.2695 C   0  0  0  0  0  0  0  0  0  0  0  0
   -2.0826    1.6268    1.0722 C   0  0  2  0  0  0  0  0  0  0  0  0
   -0.6159    1.2471    0.9999 N   0  0  0  0  0  0  0  0  0  0  0  0
   -0.1606    0.6211   -0.1265 C   0  0  0  0  0  0  0  0  0  0  0  0
   -0.9853    0.3870   -1.0518 O   0  0  0  0  0  0  0  0  0  0  0  0
    1.2590    0.2100   -0.2965 C   0  0  0  0  0  0  0  0  0  0  0  0
    2.2380    0.7313    0.5260 C   0  0  0  0  0  0  0  0  0  0  0  0
    3.5413    0.3347    0.3651 C   0  0  0  0  0  0  0  0  0  0  0  0
    3.9664   -0.5675   -0.5759 C   0  0  0  0  0  0  0  0  0  0  0  0
    5.3281   -0.9611   -0.7130 N   0  0  0  0  0  4  0  0  0  0  0  0
    5.5767   -1.8074   -1.6052 O   0  0  0  0  0  0  0  0  0  0  0  0
    6.2536   -0.4124    0.1135 O   0  0  0  0  0  1  0  0  0  0  0  0
    2.9605   -1.0887   -1.4041 C   0  0  0  0  0  0  0  0  0  0  0  0
    1.6493   -0.6934   -1.2470 C   0  0  0  0  0  0  0  0  0  0  0  0
   -2.6473    0.2294    0.3597 C   0  0  1  0  0  0  0  0  0  0  0  0
   -2.6730   -0.6283    1.6792 C   0  0  0  0  0  0  0  0  0  0  0  0
   -3.9633   -1.5561    1.3761 C   0  0  2  0  0  0  0  0  0  0  0  0
   -3.8676   -1.6172   -0.2353 C   0  0  0  0  0  0  0  0  0  0  0  0
   -4.6386   -0.5248   -0.7572 C   0  0  0  0  0  0  0  0  0  0  0  0
   -4.2575    0.6645    0.2992 C   0  0  1  0  0  0  0  0  0  0  0  0
   -4.8439   -0.1995    1.4913 C   0  0  0  0  0  0  0  0  0  0  0  0
  2  1  1  6
  2  3  1  0
  3  4  1  0
  4  5  2  0
  4  6  1  0
  6  7  2  0
  7  8  1  0
  8  9  2  0
  9 10  1  0
 10 11  2  0
 10 12  1  0
  9 13  1  0
 13 14  2  0
  2 15  1  0
 15 16  1  1
 17 16  1  1
 17 18  1  0
 18 19  1  0
 20 19  1  6
 20 21  1  0
 14  6  1  0
 20 15  1  0
 21 17  1  0
M  CHG  2  10   1  12  -1
M  END
>  <zinc_id>  (1) 
ZINC000001464919

>  <smiles>  (1) 
C[C@H](NC(=O)c1ccc([N+](=O)[O-])cc1)[C@H]1C[C@@H]2CC[C@H]1C2

$$$$
