
     RDKit          3D

 21 23  0  0  0  0  0  0  0  0999 V2000
    6.1967   -2.3303   -1.8938 C   0  0  0  0  0  0  0  0  0  0  0  0
    5.7116   -1.1621   -1.3000 O   0  0  0  0  0  0  0  0  0  0  0  0
    4.3569   -0.9802   -0.9998 C   0  0  0  0  0  0  0  0  0  0  0  0
    3.9879    0.2216   -0.4100 C   0  0  0  0  0  0  0  0  0  0  0  0
    2.6536    0.4852   -0.0771 C   0  0  0  0  0  0  0  0  0  0  0  0
    1.6875   -0.4578   -0.3360 C   0  0  0  0  0  0  0  0  0  0  0  0
    0.3056   -0.3065   -0.0449 N   0  0  0  0  0  0  0  0  0  0  0  0
   -0.1950    0.8737    0.5569 C   0  0  0  0  0  0  0  0  0  0  0  0
    0.6439    1.7692    0.8156 O   0  0  0  0  0  0  0  0  0  0  0  0
   -1.6493    1.0465    0.8692 C   0  0  0  0  0  0  0  0  0  0  0  0
   -2.1065    2.1957    1.4503 C   0  0  0  0  0  0  0  0  0  0  0  0
   -1.3231    3.3556    1.8346 N   0  0  0  0  0  0  0  0  0  0  0  0
   -3.7812    1.9251    1.6028 S   0  0  0  0  0  0  0  0  0  0  0  0
   -3.8670    0.3681    0.9301 C   0  0  0  0  0  0  0  0  0  0  0  0
   -2.5765    0.0869    0.5965 C   0  0  0  0  0  0  0  0  0  0  0  0
   -2.4185   -1.2964   -0.0391 C   0  0  0  0  0  0  0  0  0  0  0  0
   -3.3726   -1.2829   -1.2241 C   0  0  0  0  0  0  0  0  0  0  0  0
   -4.8021   -1.1076   -0.8005 C   0  0  0  0  0  0  0  0  0  0  0  0
   -4.9270   -0.6720    0.6435 C   0  0  0  0  0  0  0  0  0  0  0  0
    2.0818   -1.6412   -0.9218 C   0  0  0  0  0  0  0  0  0  0  0  0
    3.3932   -1.9076   -1.2522 C   0  0  0  0  0  0  0  0  0  0  0  0
  1  2  1  0
  2  3  1  0
  3  4  2  0
  4  5  1  0
  5  6  2  0
  6  7  1  0
  7  8  1  0
  8  9  2  0
  8 10  1  0
 10 11  2  0
 11 12  1  0
 11 13  1  0
 13 14  1  0
 14 15  2  0
 15 16  1  0
 16 17  1  0
 17 18  1  0
 18 19  1  0
  6 20  1  0
 20 21  2  0
 21  3  1  0
 15 10  1  0
 19 14  1  0
M  END
>  <zinc_id>  (1) 
ZINC000000127328

>  <smiles>  (1) 
COc1ccc(NC(=O)c2c(N)sc3c2CCCC3)cc1

$$$$
