
     RDKit          3D

 20 21  0  0  0  0  0  0  0  0999 V2000
    4.9985    1.4506   -0.0560 C   0  0  0  0  0  0  0  0  0  0  0  0
    4.6173    0.1139   -0.6305 C   0  0  0  0  0  0  0  0  0  0  0  0
    3.2335   -0.2911   -0.3299 C   0  0  0  0  0  0  0  0  0  0  0  0
    2.8155   -1.6028   -0.3427 C   0  0  0  0  0  0  0  0  0  0  0  0
    3.6390   -2.7923   -0.6707 C   0  0  0  0  0  0  0  0  0  0  0  0
    3.1111   -3.9434   -0.6639 O   0  0  0  0  0  0  0  0  0  0  0  0
    1.5084   -1.5759   -0.0147 N   0  0  0  0  0  0  0  0  0  0  0  0
    1.0868   -0.3274    0.1979 C   0  0  0  0  0  0  0  0  0  0  0  0
   -0.2585    0.0396    0.6119 C   0  0  0  0  0  0  0  0  0  0  0  0
   -1.1365   -0.8277    0.8541 O   0  0  0  0  0  0  0  0  0  0  0  0
   -0.6627    1.3633    0.7654 O   0  0  0  0  0  0  0  0  0  0  0  0
   -1.9399    1.6551    1.1777 C   0  0  0  0  0  0  0  0  0  0  0  0
   -3.0603    1.1558    0.3919 C   0  0  0  0  0  0  0  0  0  0  0  0
   -4.3308    1.3808    0.9312 C   0  0  0  0  0  0  0  0  0  0  0  0
   -5.4694    0.9465    0.3092 C   0  0  0  0  0  0  0  0  0  0  0  0
   -5.3738    0.2637   -0.9016 C   0  0  0  0  0  0  0  0  0  0  0  0
   -4.1204    0.0459   -1.4244 C   0  0  0  0  0  0  0  0  0  0  0  0
   -2.9905    0.4810   -0.7920 C   0  0  0  0  0  0  0  0  0  0  0  0
    2.1609    0.5006    0.0060 C   0  0  0  0  0  0  0  0  0  0  0  0
    2.1717    1.9639    0.1316 C   0  0  0  0  0  0  0  0  0  0  0  0
  1  2  1  0
  2  3  1  0
  3  4  2  0
  4  5  1  0
  5  6  2  0
  4  7  1  0
  7  8  1  0
  8  9  1  0
  9 10  2  0
  9 11  1  0
 11 12  1  0
 12 13  1  0
 13 14  2  0
 14 15  1  0
 15 16  2  0
 16 17  1  0
 17 18  2  0
  8 19  2  0
 19 20  1  0
 19  3  1  0
 18 13  1  0
M  END
>  <zinc_id>  (1) 
ZINC000000076530

>  <smiles>  (1) 
CCc1c(C=O)[nH]c(C(=O)OCc2ccccc2)c1C

$$$$
