
     RDKit          3D

 20 21  0  0  0  0  0  0  0  0999 V2000
   -1.3273    3.0522    1.1693 C   0  0  0  0  0  0  0  0  0  0  0  0
   -1.2236    1.6604    0.8131 O   0  0  0  0  0  0  0  0  0  0  0  0
   -2.3926    0.8756    0.9470 C   0  0  0  0  0  0  0  0  0  0  0  0
   -3.4245    1.4359    1.3690 O   0  0  0  0  0  0  0  0  0  0  0  0
   -2.3678   -0.5559    0.5758 C   0  0  0  0  0  0  0  0  0  0  0  0
   -3.4586   -1.2597    0.6406 N   0  0  0  0  0  0  0  0  0  0  0  0
   -3.5123   -2.4869    0.1862 C   0  0  0  0  0  0  0  0  0  0  0  0
   -4.6544   -3.3227    0.2343 N   0  0  0  0  0  0  0  0  0  0  0  0
   -1.9253   -2.7114   -0.3867 S   0  0  0  0  0  0  0  0  0  0  0  0
   -1.2582   -1.1531    0.0164 C   0  0  0  0  0  0  0  0  0  0  0  0
    0.0863   -0.6721   -0.2252 C   0  0  0  0  0  0  0  0  0  0  0  0
    0.7462    0.0502    0.7816 C   0  0  0  0  0  0  0  0  0  0  0  0
    1.9715    0.6030    0.5778 C   0  0  0  0  0  0  0  0  0  0  0  0
    2.6563    0.4894   -0.6548 C   0  0  0  0  0  0  0  0  0  0  0  0
    3.9848    1.1100   -0.8292 C   0  0  0  0  0  0  0  0  0  0  0  0
    5.0152    0.3632    0.0203 C   0  0  0  0  0  0  0  0  0  0  0  0
    4.3733    0.9481   -2.3120 C   0  0  0  0  0  0  0  0  0  0  0  0
    3.9540    2.5824   -0.5035 C   0  0  0  0  0  0  0  0  0  0  0  0
    2.0108   -0.2198   -1.6480 C   0  0  0  0  0  0  0  0  0  0  0  0
    0.7463   -0.7889   -1.4229 C   0  0  0  0  0  0  0  0  0  0  0  0
  1  2  1  0
  2  3  1  0
  3  4  2  0
  3  5  1  0
  5  6  1  0
  6  7  2  0
  7  8  1  0
  7  9  1  0
  9 10  1  0
 10 11  1  0
 11 12  2  0
 12 13  1  0
 13 14  2  0
 14 15  1  0
 15 16  1  0
 15 17  1  0
 15 18  1  0
 14 19  1  0
 19 20  2  0
 10  5  2  0
 20 11  1  0
M  END
>  <zinc_id>  (1) 
ZINC000003883435

>  <smiles>  (1) 
COC(=O)c1nc(N)sc1-c1ccc(C(C)(C)C)cc1

$$$$
