
     RDKit          3D

 22 24  0  0  0  0  0  0  0  0999 V2000
   -4.1955    1.8303   -0.3959 C   0  0  0  0  0  0  0  0  0  0  0  0
   -4.2649    0.4624    0.2981 C   0  0  0  0  0  0  0  0  0  0  0  0
   -5.4138   -0.3422   -0.2286 C   0  0  0  0  0  0  0  0  0  0  0  0
   -4.2958    0.6885    1.6539 F   0  0  0  0  0  0  0  0  0  0  0  0
   -2.9381   -0.1660   -0.0545 C   0  0  0  0  0  0  0  0  0  0  0  0
   -1.7569    0.3494    0.4567 C   0  0  0  0  0  0  0  0  0  0  0  0
   -0.5210   -0.1678    0.1680 C   0  0  0  0  0  0  0  0  0  0  0  0
    0.7528    0.3498    0.6316 C   0  0  0  0  0  0  0  0  0  0  0  0
    0.8844    1.2155    1.6968 C   0  0  0  0  0  0  0  0  0  0  0  0
    2.1469    1.7107    2.0580 C   0  0  0  0  0  0  0  0  0  0  0  0
    3.2758    1.3759    1.3924 C   0  0  0  0  0  0  0  0  0  0  0  0
    4.5103    1.8504    1.7350 F   0  0  0  0  0  0  0  0  0  0  0  0
    3.1557    0.4917    0.2985 C   0  0  0  0  0  0  0  0  0  0  0  0
    4.3138    0.1716   -0.4015 C   0  0  0  0  0  0  0  0  0  0  0  0
    4.1893   -0.6820   -1.5044 C   0  0  0  0  0  0  0  0  0  0  0  0
    2.9256   -1.1643   -1.8441 C   0  0  0  0  0  0  0  0  0  0  0  0
    1.8153   -0.8296   -1.1330 C   0  0  0  0  0  0  0  0  0  0  0  0
    1.9157    0.0102   -0.0459 C   0  0  0  0  0  0  0  0  0  0  0  0
   -0.4930   -1.2480   -0.6723 N   0  0  0  0  0  0  0  0  0  0  0  0
   -1.6306   -1.7758   -1.1904 C   0  0  0  0  0  0  0  0  0  0  0  0
   -1.5587   -2.9016   -2.0469 N   0  0  0  0  0  0  0  0  0  0  0  0
   -2.8174   -1.2291   -0.8717 N   0  0  0  0  0  0  0  0  0  0  0  0
  1  2  1  0
  2  3  1  0
  2  4  1  0
  2  5  1  0
  5  6  2  0
  6  7  1  0
  7  8  1  0
  8  9  2  0
  9 10  1  0
 10 11  2  0
 11 12  1  0
 11 13  1  0
 13 14  2  0
 14 15  1  0
 15 16  2  0
 16 17  1  0
 17 18  2  0
  7 19  2  0
 19 20  1  0
 20 21  1  0
 20 22  2  0
 22  5  1  0
 18  8  1  0
 18 13  1  0
M  END
>  <zinc_id>  (1) 
ZINC000000023042

>  <smiles>  (1) 
CC(C)(F)c1cc(-c2ccc(F)c3ccccc23)nc(N)n1

$$$$
