
     RDKit          3D

 20 22  0  0  0  0  0  0  0  0999 V2000
   -1.9767    2.6873    0.9124 C   0  0  0  0  0  0  0  0  0  0  0  0
   -0.9091    2.4187   -0.0961 C   0  0  0  0  0  0  0  0  0  0  0  0
   -1.5715    1.5354   -1.2685 C   0  0  1  0  0  0  0  0  0  0  0  0
   -0.3130    1.3384   -2.2526 C   0  0  0  0  0  0  0  0  0  0  0  0
   -1.6526    0.1652   -0.4976 C   0  0  0  0  0  0  0  0  0  0  0  0
   -2.9475   -0.4016   -0.5041 C   0  0  0  0  0  0  0  0  0  0  0  0
   -3.1417   -1.5935    0.1346 C   0  0  0  0  0  0  0  0  0  0  0  0
   -4.3927   -2.2693    0.2023 N   0  0  0  0  0  0  0  0  0  0  0  0
   -2.0927   -2.1671    0.7366 N   0  0  0  0  0  0  0  0  0  0  0  0
   -0.8643   -1.6377    0.7476 C   0  0  0  0  0  0  0  0  0  0  0  0
    0.3067   -1.9857    1.2508 N   0  0  0  0  0  0  0  0  0  0  0  0
    1.2376   -1.0699    0.9617 C   0  0  0  0  0  0  0  0  0  0  0  0
    2.5965   -1.0009    1.2723 C   0  0  0  0  0  0  0  0  0  0  0  0
    3.3164    0.0751    0.8363 C   0  0  0  0  0  0  0  0  0  0  0  0
    4.7582    0.1533    1.1630 C   0  0  0  0  0  0  0  0  0  0  0  0
    2.7294    1.0930    0.0966 C   0  0  0  0  0  0  0  0  0  0  0  0
    3.5933    2.2204   -0.3320 C   0  0  0  0  0  0  0  0  0  0  0  0
    1.4078    0.9598   -0.1673 C   0  0  0  0  0  0  0  0  0  0  0  0
    0.6086   -0.0790    0.2268 C   0  0  0  0  0  0  0  0  0  0  0  0
   -0.6927   -0.4420    0.1009 N   0  0  0  0  0  0  0  0  0  0  0  0
  1  2  1  0
  2  3  1  0
  3  4  1  6
  3  5  1  0
  5  6  2  0
  6  7  1  0
  7  8  1  0
  7  9  2  0
  9 10  1  0
 10 11  2  0
 11 12  1  0
 12 13  2  0
 13 14  1  0
 14 15  1  0
 14 16  2  0
 16 17  1  0
 16 18  1  0
 18 19  2  0
 19 20  1  0
 20  5  1  0
 20 10  1  0
 19 12  1  0
M  END
>  <zinc_id>  (1) 
ZINC000001041069

>  <smiles>  (1) 
CC[C@@H](C)c1cc(N)nc2nc3cc(C)c(C)cc3n12

$$$$
