
     RDKit          3D

 21 22  0  0  0  0  0  0  0  0999 V2000
   -2.9426   -3.6679   -0.8584 C   0  0  0  0  0  0  0  0  0  0  0  0
   -2.4444   -2.3747   -1.1060 O   0  0  0  0  0  0  0  0  0  0  0  0
   -1.7390   -1.7236   -0.0844 C   0  0  0  0  0  0  0  0  0  0  0  0
   -1.5983   -2.3417    0.9892 O   0  0  0  0  0  0  0  0  0  0  0  0
   -1.2105   -0.3590   -0.3315 C   0  0  0  0  0  0  0  0  0  0  0  0
   -1.3737    0.2333   -1.4177 C   0  0  0  0  0  0  0  0  0  0  0  0
   -2.0857   -0.4684   -2.4641 N   0  0  0  0  0  0  0  0  0  0  0  0
   -0.9088    1.5054   -1.5769 O   0  0  0  0  0  0  0  0  0  0  0  0
   -0.2717    2.1852   -0.5878 C   0  0  0  0  0  0  0  0  0  0  0  0
    0.2314    3.6055   -0.7835 C   0  0  0  0  0  0  0  0  0  0  0  0
   -0.0641    1.6735    0.5447 C   0  0  0  0  0  0  0  0  0  0  0  0
    0.5942    2.3807    1.6210 C   0  0  0  0  0  0  0  0  0  0  0  0
    0.8105    1.8117    2.9667 C   0  0  0  0  0  0  0  0  0  0  0  0
    1.0289    3.5681    1.4569 O   0  0  0  0  0  0  0  0  0  0  0  0
   -0.3475    0.1358    0.8974 C   0  0  2  0  0  0  0  0  0  0  0  0
    1.0587   -0.4293    0.5134 C   0  0  0  0  0  0  0  0  0  0  0  0
    2.4238    0.2648    1.2361 S   0  0  0  0  0  0  0  0  0  0  0  0
    3.6530   -0.7441    0.5433 C   0  0  0  0  0  0  0  0  0  0  0  0
    2.8984   -1.5703   -0.2217 C   0  0  0  0  0  0  0  0  0  0  0  0
    1.5514   -1.3881   -0.2228 C   0  0  0  0  0  0  0  0  0  0  0  0
    0.7362   -2.2971   -1.1140 C   0  0  0  0  0  0  0  0  0  0  0  0
  1  2  1  0
  2  3  1  0
  3  4  2  0
  3  5  1  0
  5  6  2  0
  6  7  1  0
  6  8  1  0
  8  9  1  0
  9 10  1  0
  9 11  2  0
 11 12  1  0
 12 13  1  0
 12 14  2  0
 11 15  1  0
 15 16  1  6
 16 17  1  0
 17 18  1  0
 18 19  2  0
 19 20  1  0
 20 21  1  0
 15  5  1  0
 20 16  2  0
M  END
>  <zinc_id>  (1) 
ZINC000000510906

>  <smiles>  (1) 
COC(=O)C1=C(N)OC(C)=C(C(C)=O)[C@@H]1c1sccc1C

$$$$
