
     RDKit          3D

 21 23  0  0  0  0  0  0  0  0999 V2000
    4.6082   -2.9265    0.1515 C   0  0  0  0  0  0  0  0  0  0  0  0
    2.7996   -3.0606    0.0462 S   0  0  0  0  0  0  0  0  0  0  0  0
    2.0679   -1.4324    0.1406 C   0  0  0  0  0  0  0  0  0  0  0  0
    2.8108   -0.3235    0.2727 N   0  0  0  0  0  0  0  0  0  0  0  0
    2.2444    0.9078    0.3453 C   0  0  0  0  0  0  0  0  0  0  0  0
    0.8860    1.0517    0.2834 C   0  0  0  0  0  0  0  0  0  0  0  0
    0.0596   -0.0758    0.1458 C   0  0  0  0  0  0  0  0  0  0  0  0
   -1.3740    0.0554    0.0748 C   0  0  0  0  0  0  0  0  0  0  0  0
   -2.1824    0.2504    1.1683 C   0  0  0  0  0  0  0  0  0  0  0  0
   -3.5546    0.4097    1.0753 C   0  0  0  0  0  0  0  0  0  0  0  0
   -4.1545    0.3715   -0.1926 C   0  0  0  0  0  0  0  0  0  0  0  0
   -5.5386    0.5384   -0.2471 O   0  0  0  0  0  0  0  0  0  0  0  0
   -3.3392    0.1750   -1.2625 C   0  0  0  0  0  0  0  0  0  0  0  0
   -1.9684    0.0164   -1.1696 C   0  0  0  0  0  0  0  0  0  0  0  0
    0.6895   -1.2911    0.0788 C   0  0  0  0  0  0  0  0  0  0  0  0
   -0.0868   -2.4856   -0.0606 C   0  0  0  0  0  0  0  0  0  0  0  0
   -0.7087   -3.4764   -0.1755 N   0  0  0  0  0  0  0  0  0  0  0  0
    0.1707    2.3434    0.3542 C   0  0  0  0  0  0  0  0  0  0  0  0
    1.0516    3.4660    0.8027 C   0  0  0  0  0  0  0  0  0  0  0  0
    2.4068    3.3870    0.1291 C   0  0  0  0  0  0  0  0  0  0  0  0
    3.1121    2.0993    0.4933 C   0  0  0  0  0  0  0  0  0  0  0  0
  1  2  1  0
  2  3  1  0
  3  4  2  0
  4  5  1  0
  5  6  2  0
  6  7  1  0
  7  8  1  0
  8  9  2  0
  9 10  1  0
 10 11  2  0
 11 12  1  0
 11 13  1  0
 13 14  2  0
  7 15  2  0
 15 16  1  0
 16 17  3  0
  6 18  1  0
 18 19  1  0
 19 20  1  0
 20 21  1  0
 15  3  1  0
 21  5  1  0
 14  8  1  0
M  END
>  <zinc_id>  (1) 
ZINC000000245783

>  <smiles>  (1) 
CSc1nc2c(c(-c3ccc(O)cc3)c1C#N)CCCC2

$$$$
