
     RDKit          3D

 21 22  0  0  0  0  0  0  0  0999 V2000
   -4.7688   -1.0399   -2.2651 C   0  0  0  0  0  0  0  0  0  0  0  0
   -4.1809   -0.7045   -0.9427 C   0  0  0  0  0  0  0  0  0  0  0  0
   -4.9534   -0.5697    0.1889 C   0  0  0  0  0  0  0  0  0  0  0  0
   -4.3404   -0.2578    1.3790 C   0  0  0  0  0  0  0  0  0  0  0  0
   -5.2169   -0.1225    2.5749 C   0  0  0  0  0  0  0  0  0  0  0  0
   -2.9573   -0.0734    1.4752 C   0  0  0  0  0  0  0  0  0  0  0  0
   -2.1946   -0.2107    0.3369 C   0  0  0  0  0  0  0  0  0  0  0  0
   -0.7426   -0.0249    0.3994 C   0  0  0  0  0  0  0  0  0  0  0  0
   -0.1913    0.2612    1.4981 O   0  0  0  0  0  0  0  0  0  0  0  0
    0.0758   -0.1538   -0.7307 N   0  0  0  0  0  0  0  0  0  0  0  0
    1.4825    0.0144   -0.7291 C   0  0  0  0  0  0  0  0  0  0  0  0
    2.1669    0.3272    0.4243 C   0  0  0  0  0  0  0  0  0  0  0  0
    3.5314    0.4968    0.4580 C   0  0  0  0  0  0  0  0  0  0  0  0
    4.2340    0.8200    1.6521 N   0  0  0  0  0  4  0  0  0  0  0  0
    3.5590    0.9473    2.6885 O   0  0  0  0  0  0  0  0  0  0  0  0
    5.5809    0.9912    1.7043 O   0  0  0  0  0  1  0  0  0  0  0  0
    4.2542    0.3493   -0.7085 C   0  0  0  0  0  0  0  0  0  0  0  0
    3.6027    0.0362   -1.8823 C   0  0  0  0  0  0  0  0  0  0  0  0
    2.2160   -0.1298   -1.8851 C   0  0  0  0  0  0  0  0  0  0  0  0
    1.6464   -0.4360   -3.0733 F   0  0  0  0  0  0  0  0  0  0  0  0
   -2.8034   -0.5206   -0.8456 C   0  0  0  0  0  0  0  0  0  0  0  0
  1  2  1  0
  2  3  2  0
  3  4  1  0
  4  5  1  0
  4  6  2  0
  6  7  1  0
  7  8  1  0
  8  9  2  0
  8 10  1  0
 10 11  1  0
 11 12  2  0
 12 13  1  0
 13 14  1  0
 14 15  2  0
 14 16  1  0
 13 17  2  0
 17 18  1  0
 18 19  2  0
 19 20  1  0
  7 21  2  0
 21  2  1  0
 19 11  1  0
M  CHG  2  14   1  16  -1
M  END
>  <zinc_id>  (1) 
ZINC000000505712

>  <smiles>  (1) 
Cc1cc(C)cc(C(=O)Nc2cc([N+](=O)[O-])ccc2F)c1

$$$$
