
     RDKit          3D

 20 22  0  0  0  0  0  0  0  0999 V2000
   -1.3808   -0.3920   -1.0102 C   0  0  0  0  0  0  0  0  0  0  0  0
   -2.4165   -0.4671    0.0123 C   0  0  0  0  0  0  0  0  0  0  0  0
   -3.8184   -0.7009   -0.6761 C   0  0  0  0  0  0  0  0  0  0  0  0
   -2.7500    1.0040    0.6177 C   0  0  1  0  0  0  0  0  0  0  0  0
   -4.0562    0.4532    1.4425 C   0  0  0  0  0  0  0  0  0  0  0  0
   -3.5945   -0.8831    1.9567 C   0  0  0  0  0  0  0  0  0  0  0  0
   -2.3738   -1.2709    1.1747 C   0  0  1  0  0  0  0  0  0  0  0  0
   -2.0974   -2.6932    1.0563 C   0  0  0  0  0  0  0  0  0  0  0  0
   -1.1362   -0.5143    1.8337 C   0  0  1  0  0  0  0  0  0  0  0  0
   -0.2157   -0.4237    0.6588 O   0  0  0  0  0  0  0  0  0  0  0  0
    0.9922    0.1630    0.7732 C   0  0  0  0  0  0  0  0  0  0  0  0
    1.2021    0.5984    1.9611 O   0  0  0  0  0  0  0  0  0  0  0  0
    2.0176    0.3413   -0.2481 C   0  0  0  0  0  0  0  0  0  0  0  0
    3.1981    0.9817    0.0719 C   0  0  0  0  0  0  0  0  0  0  0  0
    4.2145    1.1834   -0.8426 C   0  0  0  0  0  0  0  0  0  0  0  0
    4.0808    0.7406   -2.1381 C   0  0  0  0  0  0  0  0  0  0  0  0
    5.0647    0.9107   -3.1086 O   0  0  0  0  0  0  0  0  0  0  0  0
    2.9155    0.0983   -2.4881 C   0  0  0  0  0  0  0  0  0  0  0  0
    1.9224   -0.0853   -1.5494 C   0  0  0  0  0  0  0  0  0  0  0  0
   -1.7684    0.9558    1.8943 C   0  0  0  0  0  0  0  0  0  0  0  0
  1  2  1  0
  2  3  1  0
  2  4  1  0
  4  5  1  1
  5  6  1  0
  6  7  1  0
  7  8  1  6
  7  9  1  0
  9 10  1  1
 10 11  1  0
 11 12  2  0
 11 13  1  0
 13 14  2  0
 14 15  1  0
 15 16  2  0
 16 17  1  0
 16 18  1  0
 18 19  2  0
  9 20  1  0
  7  2  1  0
 19 13  1  0
 20  4  1  0
M  END
>  <zinc_id>  (1) 
ZINC000002146360

>  <smiles>  (1) 
CC1(C)[C@H]2CC[C@]1(C)[C@H](OC(=O)c1ccc(O)cc1)C2

$$$$
