
     RDKit          3D

 21 23  0  0  0  0  0  0  0  0999 V2000
    4.6366   -0.3289   -2.0195 C   0  0  0  0  0  0  0  0  0  0  0  0
    4.7925   -0.7112   -0.6719 O   0  0  0  0  0  0  0  0  0  0  0  0
    3.7000   -0.7224    0.2030 C   0  0  0  0  0  0  0  0  0  0  0  0
    3.9431   -1.1187    1.4892 C   0  0  0  0  0  0  0  0  0  0  0  0
    2.8800   -1.1378    2.3715 C   0  0  0  0  0  0  0  0  0  0  0  0
    1.6229   -0.7748    1.9897 C   0  0  0  0  0  0  0  0  0  0  0  0
    1.3983   -0.3760    0.6856 C   0  0  0  0  0  0  0  0  0  0  0  0
    0.0463    0.0206    0.3380 C   0  0  0  0  0  0  0  0  0  0  0  0
   -0.2533    1.3729    0.1423 C   0  0  0  0  0  0  0  0  0  0  0  0
    0.8167    2.3250    0.2416 N   0  0  0  0  0  0  0  0  0  0  0  0
   -1.4859    1.7875   -0.1396 N   0  0  0  0  0  0  0  0  0  0  0  0
   -1.7922    3.2151   -0.3667 C   0  0  0  0  0  0  0  0  0  0  0  0
   -2.4785    0.8901   -0.2413 C   0  0  0  0  0  0  0  0  0  0  0  0
   -3.7797    1.3135   -0.5339 C   0  0  0  0  0  0  0  0  0  0  0  0
   -4.7919    0.3940   -0.6355 C   0  0  0  0  0  0  0  0  0  0  0  0
   -4.5158   -0.9256   -0.4484 C   0  0  0  0  0  0  0  0  0  0  0  0
   -3.2532   -1.3940   -0.1570 C   0  0  0  0  0  0  0  0  0  0  0  0
   -2.2322   -0.4500   -0.0573 C   0  0  0  0  0  0  0  0  0  0  0  0
   -0.9540   -0.9152    0.2374 C   0  0  0  0  0  0  0  0  0  0  0  0
   -0.7284   -2.1283    0.4005 O   0  0  0  0  0  0  0  0  0  0  0  0
    2.4286   -0.3359   -0.2517 C   0  0  0  0  0  0  0  0  0  0  0  0
  1  2  1  0
  2  3  1  0
  3  4  2  0
  4  5  1  0
  5  6  2  0
  6  7  1  0
  7  8  1  0
  8  9  2  0
  9 10  1  0
  9 11  1  0
 11 12  1  0
 11 13  1  0
 13 14  2  0
 14 15  1  0
 15 16  2  0
 16 17  1  0
 17 18  2  0
 18 19  1  0
 19 20  2  0
  7 21  2  0
 21  3  1  0
 19  8  1  0
 18 13  1  0
M  END
>  <zinc_id>  (1) 
ZINC000000487022

>  <smiles>  (1) 
COc1cccc(-c2c(N)n(C)c3ccccc3c2=O)c1

$$$$
