
     RDKit          3D

 20 21  0  0  0  0  0  0  0  0999 V2000
    1.5602    1.8662    1.3919 C   0  0  0  0  0  0  0  0  0  0  0  0
    1.6286    0.6341    2.2172 C   0  0  0  0  0  0  0  0  0  0  0  0
    1.7720   -0.6429    1.1735 C   0  0  1  0  0  0  0  0  0  0  0  0
    0.4112   -0.3727    0.4146 C   0  0  0  0  0  0  0  0  0  0  0  0
    0.4067    0.2269   -0.6517 O   0  0  0  0  0  0  0  0  0  0  0  0
   -0.7866   -0.8327    0.9871 N   0  0  0  0  0  0  0  0  0  0  0  0
   -2.0560   -0.6663    0.4315 C   0  0  0  0  0  0  0  0  0  0  0  0
   -2.1938   -0.0092   -0.7644 C   0  0  0  0  0  0  0  0  0  0  0  0
   -3.4582    0.1656   -1.3338 C   0  0  0  0  0  0  0  0  0  0  0  0
   -3.6453    0.8725   -2.6285 C   0  0  0  0  0  0  0  0  0  0  0  0
   -4.5632   -0.3305   -0.6783 C   0  0  0  0  0  0  0  0  0  0  0  0
   -4.4233   -0.9939    0.5292 C   0  0  0  0  0  0  0  0  0  0  0  0
   -3.1554   -1.1572    1.0789 C   0  0  0  0  0  0  0  0  0  0  0  0
   -3.0681   -1.8389    2.3082 O   0  0  0  0  0  0  0  0  0  0  0  0
    2.7554    0.0330    0.1735 C   0  0  0  0  0  0  0  0  0  0  0  0
    3.7172    0.9032    0.5526 C   0  0  0  0  0  0  0  0  0  0  0  0
    4.5893    1.4991   -0.3505 C   0  0  0  0  0  0  0  0  0  0  0  0
    4.4418    1.1712   -1.6639 C   0  0  0  0  0  0  0  0  0  0  0  0
    3.4722    0.2919   -2.0594 C   0  0  0  0  0  0  0  0  0  0  0  0
    2.5951   -0.3038   -1.1278 C   0  0  0  0  0  0  0  0  0  0  0  0
  1  2  1  0
  3  2  1  1
  3  4  1  0
  4  5  2  0
  4  6  1  0
  6  7  1  0
  7  8  2  0
  8  9  1  0
  9 10  1  0
  9 11  2  0
 11 12  1  0
 12 13  2  0
 13 14  1  0
  3 15  1  0
 15 16  2  0
 16 17  1  0
 17 18  2  0
 18 19  1  0
 19 20  2  0
 13  7  1  0
 20 15  1  0
M  END
>  <zinc_id>  (1) 
ZINC000000367771

>  <smiles>  (1) 
CC[C@@H](C(=O)Nc1cc(C)ccc1O)c1ccccc1

$$$$
