
     RDKit          3D

 18 19  0  0  0  0  0  0  0  0999 V2000
   -3.8554    2.4556    0.0131 O   0  0  0  0  0  0  0  0  0  0  0  0
   -4.2293    1.3047   -0.2362 N   0  0  0  0  0  4  0  0  0  0  0  0
   -5.5354    1.1275   -0.6258 O   0  0  0  0  0  1  0  0  0  0  0  0
   -3.3611    0.1838   -0.1318 C   0  0  0  0  0  0  0  0  0  0  0  0
   -3.8513   -1.0895   -0.4190 C   0  0  0  0  0  0  0  0  0  0  0  0
   -3.0321   -2.1950   -0.3272 C   0  0  0  0  0  0  0  0  0  0  0  0
   -1.7352   -2.0334    0.0480 C   0  0  0  0  0  0  0  0  0  0  0  0
   -1.2413   -0.7927    0.3309 C   0  0  0  0  0  0  0  0  0  0  0  0
    0.1244   -0.6669    0.7093 N   0  0  0  0  0  0  0  0  0  0  0  0
    1.0619   -0.5576   -0.3202 N   0  0  0  0  0  0  0  0  0  0  0  0
    2.4025   -0.2018   -0.2079 C   0  0  0  0  0  0  0  0  0  0  0  0
    3.3305   -1.1169    0.0519 C   0  0  0  0  0  0  0  0  0  0  0  0
    4.7865   -1.0189    0.2221 C   0  0  0  0  0  0  0  0  0  0  0  0
    5.2625    0.3456    0.6140 C   0  0  0  0  0  0  0  0  0  0  0  0
    5.2006    1.3523   -0.4887 C   0  0  0  0  0  0  0  0  0  0  0  0
    3.9669    1.3453   -1.3191 C   0  0  0  0  0  0  0  0  0  0  0  0
    2.7555    1.2545   -0.4004 C   0  0  0  0  0  0  0  0  0  0  0  0
   -2.0501    0.3034    0.2404 C   0  0  0  0  0  0  0  0  0  0  0  0
  1  2  2  0
  2  3  1  0
  2  4  1  0
  4  5  2  0
  5  6  1  0
  6  7  2  0
  7  8  1  0
  8  9  1  0
  9 10  1  0
 10 11  1  0
 11 12  2  0
 12 13  1  0
 13 14  1  0
 14 15  1  0
 15 16  1  0
 16 17  1  0
  8 18  2  0
 18  4  1  0
 17 11  1  0
M  CHG  2   2   1   3  -1
M  END
>  <zinc_id>  (1) 
ZINC000003471543

>  <smiles>  (1) 
O=[N+]([O-])c1cccc(NNC2=CCCCCC2)c1

$$$$
