
     RDKit          3D

 20 22  0  0  0  0  0  0  0  0999 V2000
   -4.9641    1.7017   -0.8068 C   0  0  0  0  0  0  0  0  0  0  0  0
   -4.1748    2.7865   -0.0679 C   0  0  0  0  0  0  0  0  0  0  0  0
   -3.4584    2.1568    1.0801 C   0  0  0  0  0  0  0  0  0  0  0  0
   -2.5046    1.0909    0.6424 C   0  0  0  0  0  0  0  0  0  0  0  0
   -1.1948    1.2571    0.5889 N   0  0  0  0  0  0  0  0  0  0  0  0
   -0.5639    0.1520    0.1611 N   0  0  0  0  0  0  0  0  0  0  0  0
    0.8430   -0.0094   -0.0103 C   0  0  0  0  0  0  0  0  0  0  0  0
    1.4756    0.1667   -1.2396 C   0  0  0  0  0  0  0  0  0  0  0  0
    2.8474    0.0022   -1.3626 C   0  0  0  0  0  0  0  0  0  0  0  0
    3.6278   -0.3346   -0.3001 C   0  0  0  0  0  0  0  0  0  0  0  0
    5.0355   -0.4966   -0.4536 N   0  0  0  0  0  4  0  0  0  0  0  0
    5.6859   -0.8082    0.5664 O   0  0  0  0  0  0  0  0  0  0  0  0
    5.6617   -0.3221   -1.6636 O   0  0  0  0  0  1  0  0  0  0  0  0
    3.0173   -0.5146    0.9345 C   0  0  0  0  0  0  0  0  0  0  0  0
    1.6477   -0.3487    1.0493 C   0  0  0  0  0  0  0  0  0  0  0  0
   -1.5113   -0.7688   -0.0716 C   0  0  0  0  0  0  0  0  0  0  0  0
   -2.7492   -0.2007    0.2251 C   0  0  0  0  0  0  0  0  0  0  0  0
   -3.8389   -1.1608   -0.0054 C   0  0  0  0  0  0  0  0  0  0  0  0
   -3.1357   -2.2488   -0.8271 C   0  0  0  0  0  0  0  0  0  0  0  0
   -1.7463   -2.1006   -0.5033 N   0  0  0  0  0  0  0  0  0  0  0  0
  1  2  1  0
  2  3  1  0
  3  4  1  0
  4  5  2  0
  5  6  1  0
  6  7  1  0
  7  8  2  0
  8  9  1  0
  9 10  2  0
 10 11  1  0
 11 12  2  0
 11 13  1  0
 10 14  1  0
 14 15  2  0
  6 16  1  0
 16 17  2  0
 17 18  1  0
 18 19  1  0
 19 20  1  0
 17  4  1  0
 15  7  1  0
 20 16  1  0
M  CHG  2  11   1  13  -1
M  END
>  <zinc_id>  (1) 
ZINC000003701017

>  <smiles>  (1) 
CCCc1nn(-c2ccc([N+](=O)[O-])cc2)c2c1CCN2

$$$$
