
     RDKit          3D

 19 21  0  0  0  0  0  0  0  0999 V2000
    5.0728   -1.5852   -1.2082 C   0  0  0  0  0  0  0  0  0  0  0  0
    4.4705   -0.4172   -0.4170 C   0  0  0  0  0  0  0  0  0  0  0  0
    3.2040   -0.2989   -0.0807 N   0  0  0  0  0  0  0  0  0  0  0  0
    2.8026    0.7489    0.5995 C   0  0  0  0  0  0  0  0  0  0  0  0
    1.5797    0.9997    1.0018 N   0  0  0  0  0  0  0  0  0  0  0  0
    0.4999    0.1496    0.7484 N   0  0  0  0  0  0  0  0  0  0  0  0
   -0.6860    0.5320    0.5253 C   0  0  0  0  0  0  0  0  0  0  0  0
   -1.8103   -0.3892    0.2600 C   0  0  0  0  0  0  0  0  0  0  0  0
   -1.8236   -1.7478    0.2004 C   0  0  0  0  0  0  0  0  0  0  0  0
   -3.0865   -2.1612   -0.0717 N   0  0  0  0  0  0  0  0  0  0  0  0
   -3.8974   -1.0859   -0.1902 C   0  0  0  0  0  0  0  0  0  0  0  0
   -5.2268   -0.9047   -0.4507 C   0  0  0  0  0  0  0  0  0  0  0  0
   -5.7485    0.3747   -0.5023 C   0  0  0  0  0  0  0  0  0  0  0  0
   -4.9650    1.4910   -0.2975 C   0  0  0  0  0  0  0  0  0  0  0  0
   -3.6382    1.3035   -0.0378 C   0  0  0  0  0  0  0  0  0  0  0  0
   -3.1009    0.0312    0.0173 C   0  0  0  0  0  0  0  0  0  0  0  0
    4.2424    1.6397    0.7995 S   0  0  0  0  0  0  0  0  0  0  0  0
    5.3154    0.5932   -0.0227 C   0  0  0  0  0  0  0  0  0  0  0  0
    6.7960    0.7265   -0.2616 C   0  0  0  0  0  0  0  0  0  0  0  0
  1  2  1  0
  2  3  1  0
  3  4  1  0
  4  5  2  0
  5  6  1  0
  6  7  2  0
  7  8  1  0
  8  9  2  0
  9 10  1  0
 10 11  1  0
 11 12  2  0
 12 13  1  0
 13 14  2  0
 14 15  1  0
 15 16  2  0
  4 17  1  0
 17 18  1  0
 18 19  1  0
 18  2  2  0
 16  8  1  0
 16 11  1  0
M  END
>  <zinc_id>  (1) 
ZINC000004036395

>  <smiles>  (1) 
Cc1[nH]/c(=N\N=C\c2c[nH]c3ccccc23)sc1C

$$$$
