
     RDKit          3D

 22 24  0  0  0  0  0  0  0  0999 V2000
   -2.2360    1.3600   -0.5259 C   0  0  0  0  0  0  0  0  0  0  0  0
   -2.6534   -0.0164   -0.0632 C   0  0  0  0  0  0  0  0  0  0  0  0
   -1.7876   -1.0615   -0.1329 C   0  0  0  0  0  0  0  0  0  0  0  0
   -0.4158   -0.9825   -0.5403 C   0  0  0  0  0  0  0  0  0  0  0  0
    0.1108   -1.5648   -1.5299 O   0  0  0  0  0  0  0  0  0  0  0  0
    0.4531   -0.1648    0.2595 N   0  0  0  0  0  0  0  0  0  0  0  0
    1.8386   -0.0191   -0.0182 C   0  0  0  0  0  0  0  0  0  0  0  0
    2.4811   -0.4989   -1.1252 C   0  0  0  0  0  0  0  0  0  0  0  0
    3.8197   -0.3040   -1.2380 C   0  0  0  0  0  0  0  0  0  0  0  0
    4.5646    0.3622   -0.2783 C   0  0  0  0  0  0  0  0  0  0  0  0
    3.9121    0.8464    0.8375 C   0  0  0  0  0  0  0  0  0  0  0  0
    2.5713    0.6409    0.9340 C   0  0  0  0  0  0  0  0  0  0  0  0
    4.9164    1.4917    1.6945 C   0  0  0  0  0  0  0  0  0  0  0  0
    6.0201    1.8502    0.7323 C   0  0  0  0  0  0  0  0  0  0  0  0
    6.0222    0.6652   -0.2200 C   0  0  0  0  0  0  0  0  0  0  0  0
   -2.2699   -2.3136    0.3095 C   0  0  0  0  0  0  0  0  0  0  0  0
   -3.5438   -2.4882    0.7914 C   0  0  0  0  0  0  0  0  0  0  0  0
   -4.3791   -1.4176    0.8399 C   0  0  0  0  0  0  0  0  0  0  0  0
   -3.9410   -0.1557    0.4089 C   0  0  0  0  0  0  0  0  0  0  0  0
   -4.8583    0.9429    0.4664 N   0  0  0  0  0  4  0  0  0  0  0  0
   -4.7908    1.8368   -0.3857 O   0  0  0  0  0  0  0  0  0  0  0  0
   -5.8342    0.9910    1.4478 O   0  0  0  0  0  1  0  0  0  0  0  0
  1  2  1  0
  2  3  2  0
  3  4  1  0
  4  5  2  0
  4  6  1  0
  6  7  1  0
  7  8  2  0
  8  9  1  0
  9 10  2  0
 10 11  1  0
 11 12  2  0
 11 13  1  0
 13 14  1  0
 14 15  1  0
  3 16  1  0
 16 17  2  0
 17 18  1  0
 18 19  2  0
 19 20  1  0
 20 21  2  0
 20 22  1  0
 19  2  1  0
 12  7  1  0
 15 10  1  0
M  CHG  2  20   1  22  -1
M  END
>  <zinc_id>  (1) 
ZINC000000484450

>  <smiles>  (1) 
Cc1c(C(=O)Nc2ccc3c(c2)CCC3)cccc1[N+](=O)[O-]

$$$$
