
     RDKit          3D

 21 23  0  0  0  0  0  0  0  0999 V2000
   -3.8122    0.3194    1.2618 C   0  0  0  0  0  0  0  0  0  0  0  0
   -2.7988    1.1174    0.2310 C   0  0  2  0  0  0  0  0  0  0  0  0
   -3.6832    1.0146   -1.0785 C   0  0  0  0  0  0  0  0  0  0  0  0
   -4.7801    0.0820   -0.9995 C   0  0  0  0  0  0  0  0  0  0  0  0
   -4.2016   -1.2802   -0.6779 C   0  0  0  0  0  0  0  0  0  0  0  0
   -2.7605   -1.2843   -0.5571 C   0  0  0  0  0  0  0  0  0  0  0  0
   -1.9275   -0.2497   -0.0463 C   0  0  2  0  0  0  0  0  0  0  0  0
   -1.4719   -0.4702    1.3434 N   0  0  0  0  0  0  0  0  0  0  0  0
   -0.2600    0.2525    1.4915 C   0  0  0  0  0  0  0  0  0  0  0  0
    0.2402    0.4915    2.6434 O   0  0  0  0  0  0  0  0  0  0  0  0
    0.2062    0.5978    0.2589 N   0  0  0  0  0  0  0  0  0  0  0  0
    1.3022    1.4577   -0.2439 C   0  0  0  0  0  0  0  0  0  0  0  0
    2.5129    0.5669   -0.0965 C   0  0  0  0  0  0  0  0  0  0  0  0
    3.0903    0.8133    1.2067 C   0  0  0  0  0  0  0  0  0  0  0  0
    4.3388    0.2723    1.3863 C   0  0  0  0  0  0  0  0  0  0  0  0
    5.0329   -0.4460    0.5207 C   0  0  0  0  0  0  0  0  0  0  0  0
    4.4469   -0.6643   -0.7175 C   0  0  0  0  0  0  0  0  0  0  0  0
    3.1911   -0.1528   -1.0099 C   0  0  0  0  0  0  0  0  0  0  0  0
    2.5261   -0.4424   -2.1945 F   0  0  0  0  0  0  0  0  0  0  0  0
   -0.7217    0.0713   -0.7574 C   0  0  0  0  0  0  0  0  0  0  0  0
   -0.4699   -0.0539   -1.9646 O   0  0  0  0  0  0  0  0  0  0  0  0
  2  1  1  1
  2  3  1  0
  3  4  1  0
  4  5  1  0
  5  6  1  0
  7  6  1  6
  7  8  1  0
  8  9  1  0
  9 10  2  0
  9 11  1  0
 11 12  1  0
 12 13  1  0
 13 14  2  0
 14 15  1  0
 15 16  2  0
 16 17  1  0
 17 18  2  0
 18 19  1  0
 11 20  1  0
 20 21  2  0
  7  2  1  0
 18 13  1  0
 20  7  1  0
M  END
>  <zinc_id>  (1) 
ZINC000003355404

>  <smiles>  (1) 
C[C@@H]1CCCC[C@]12NC(=O)N(Cc1ccccc1F)C2=O

$$$$
