
     RDKit          3D

 22 25  0  0  0  0  0  0  0  0999 V2000
    5.4290    2.1281    0.6647 C   0  0  0  0  0  0  0  0  0  0  0  0
    4.1303    1.1492    0.9954 C   0  0  1  0  0  0  0  0  0  0  0  0
    3.1300    1.9949    0.0260 C   0  0  0  0  0  0  0  0  0  0  0  0
    1.9410    1.2738   -0.3049 C   0  0  0  0  0  0  0  0  0  0  0  0
    2.0211   -0.2309   -0.1440 C   0  0  0  0  0  0  0  0  0  0  0  0
    3.2886   -0.7622   -0.1298 C   0  0  0  0  0  0  0  0  0  0  0  0
    3.0148   -2.4355    0.0544 S   0  0  0  0  0  0  0  0  0  0  0  0
    1.3186   -2.4231    0.1088 C   0  0  0  0  0  0  0  0  0  0  0  0
    0.3951   -3.4174    0.2439 N   0  0  0  0  0  0  0  0  0  0  0  0
   -0.9390   -3.1443    0.2597 C   0  0  0  0  0  0  0  0  0  0  0  0
   -1.2569   -1.8606    0.1356 N   0  0  0  0  0  0  0  0  0  0  0  0
   -0.3889   -0.8544    0.0011 C   0  0  0  0  0  0  0  0  0  0  0  0
   -0.9063    0.4538   -0.1188 N   0  0  0  0  0  0  0  0  0  0  0  0
   -2.2971    0.7230   -0.1008 C   0  0  0  0  0  0  0  0  0  0  0  0
   -3.1614   -0.3392    0.0393 C   0  0  0  0  0  0  0  0  0  0  0  0
   -4.5456   -0.1542    0.0660 C   0  0  0  0  0  0  0  0  0  0  0  0
   -4.9981    1.1370   -0.0542 C   0  0  0  0  0  0  0  0  0  0  0  0
   -4.1758    2.2346   -0.1966 C   0  0  0  0  0  0  0  0  0  0  0  0
   -4.6995    3.5310   -0.3151 O   0  0  0  0  0  0  0  0  0  0  0  0
   -2.8143    1.9931   -0.2167 C   0  0  0  0  0  0  0  0  0  0  0  0
    0.9930   -1.1102   -0.0180 C   0  0  0  0  0  0  0  0  0  0  0  0
    4.5215    0.1134   -0.2563 C   0  0  0  0  0  0  0  0  0  0  0  0
  2  1  1  6
  2  3  1  0
  3  4  1  0
  4  5  1  0
  5  6  2  0
  6  7  1  0
  7  8  1  0
  8  9  2  0
  9 10  1  0
 10 11  2  0
 11 12  1  0
 12 13  1  0
 13 14  1  0
 14 15  2  0
 15 16  1  0
 16 17  2  0
 17 18  1  0
 18 19  1  0
 18 20  2  0
 12 21  2  0
  6 22  1  0
 22  2  1  0
 21  5  1  0
 21  8  1  0
 20 14  1  0
M  END
>  <zinc_id>  (1) 
ZINC000000132527

>  <smiles>  (1) 
C[C@H]1CCc2c(sc3ncnc(Nc4cccc(O)c4)c23)C1

$$$$
