
     RDKit          3D

 19 20  0  0  0  0  0  0  0  0999 V2000
    5.7465    0.4288    0.6864 C   0  0  0  0  0  0  0  0  0  0  0  0
    4.2741    0.3278    0.5429 C   0  0  0  0  0  0  0  0  0  0  0  0
    3.4146    0.4588    1.6061 C   0  0  0  0  0  0  0  0  0  0  0  0
    2.0457    0.3590    1.4369 C   0  0  0  0  0  0  0  0  0  0  0  0
    1.4914    0.1272    0.2123 C   0  0  0  0  0  0  0  0  0  0  0  0
    0.0325    0.0174    0.0116 C   0  0  0  0  0  0  0  0  0  0  0  0
   -0.9285    0.8098    0.5096 N   0  0  0  0  0  0  0  0  0  0  0  0
   -2.1309    0.4211    0.1267 N   0  0  0  0  0  0  0  0  0  0  0  0
   -3.4195    1.0408    0.4717 C   0  0  0  0  0  0  0  0  0  0  0  0
   -3.2655    1.8254    1.7387 C   0  0  0  0  0  0  0  0  0  0  0  0
   -4.4715   -0.0138    0.6021 C   0  0  0  0  0  0  0  0  0  0  0  0
   -3.8408    2.0054   -0.6380 C   0  0  0  0  0  0  0  0  0  0  0  0
   -1.9502   -0.6616   -0.6475 C   0  0  0  0  0  0  0  0  0  0  0  0
   -3.0112   -1.3801   -1.2591 N   0  0  0  0  0  0  0  0  0  0  0  0
   -0.6060   -0.9470   -0.7442 C   0  0  0  0  0  0  0  0  0  0  0  0
    0.0336   -2.0163   -1.4706 C   0  0  0  0  0  0  0  0  0  0  0  0
    0.5324   -2.8858   -2.0552 N   0  0  0  0  0  0  0  0  0  0  0  0
    2.3449   -0.0098   -0.8852 C   0  0  0  0  0  0  0  0  0  0  0  0
    3.7080    0.0928   -0.6973 C   0  0  0  0  0  0  0  0  0  0  0  0
  1  2  1  0
  2  3  2  0
  3  4  1  0
  4  5  2  0
  5  6  1  0
  6  7  2  0
  7  8  1  0
  8  9  1  0
  9 10  1  0
  9 11  1  0
  9 12  1  0
  8 13  1  0
 13 14  1  0
 13 15  2  0
 15 16  1  0
 16 17  3  0
  5 18  1  0
 18 19  2  0
 19  2  1  0
 15  6  1  0
M  END
>  <zinc_id>  (1) 
ZINC000003883463

>  <smiles>  (1) 
Cc1ccc(-c2nn(C(C)(C)C)c(N)c2C#N)cc1

$$$$
