
     RDKit          3D

 20 21  0  0  0  0  0  0  0  0999 V2000
   -6.4175   -0.0758    0.3410 C   0  0  0  0  0  0  0  0  0  0  0  0
   -4.9313   -0.2254    0.3088 C   0  0  0  0  0  0  0  0  0  0  0  0
   -4.2508   -0.0389    1.5000 C   0  0  0  0  0  0  0  0  0  0  0  0
   -2.8716   -0.1754    1.4808 C   0  0  0  0  0  0  0  0  0  0  0  0
   -2.1814   -0.4846    0.3316 C   0  0  0  0  0  0  0  0  0  0  0  0
   -0.7722   -0.6283    0.2923 N   0  0  0  0  0  0  0  0  0  0  0  0
    0.0564    0.3098    0.1081 C   0  0  0  0  0  0  0  0  0  0  0  0
    1.5059    0.1595    0.0681 C   0  0  0  0  0  0  0  0  0  0  0  0
    2.1333   -1.0614    0.2327 C   0  0  0  0  0  0  0  0  0  0  0  0
    1.3456   -2.1812    0.4437 O   0  0  0  0  0  0  0  0  0  0  0  0
    3.5229   -1.1216    0.1811 C   0  0  0  0  0  0  0  0  0  0  0  0
    4.2864    0.0023   -0.0295 C   0  0  0  0  0  0  0  0  0  0  0  0
    5.7693   -0.0590   -0.0850 C   0  0  0  0  0  0  0  0  0  0  0  0
    3.6682    1.2235   -0.1946 C   0  0  0  0  0  0  0  0  0  0  0  0
    4.5571    2.7047   -0.4669 Cl  0  0  0  0  0  0  0  0  0  0  0  0
    2.2954    1.2706   -0.1416 C   0  0  0  0  0  0  0  0  0  0  0  0
    1.6191    2.5788   -0.3179 C   0  0  0  0  0  0  0  0  0  0  0  0
   -2.8604   -0.6696   -0.8515 C   0  0  0  0  0  0  0  0  0  0  0  0
   -2.2252   -0.9913   -2.0847 N   0  0  0  0  0  0  0  0  0  0  0  0
   -4.2492   -0.5367   -0.8541 C   0  0  0  0  0  0  0  0  0  0  0  0
  1  2  1  0
  2  3  2  0
  3  4  1  0
  4  5  2  0
  5  6  1  0
  6  7  2  0
  7  8  1  0
  8  9  2  0
  9 10  1  0
  9 11  1  0
 11 12  2  0
 12 13  1  0
 12 14  1  0
 14 15  1  0
 14 16  2  0
 16 17  1  0
  5 18  1  0
 18 19  1  0
 18 20  2  0
 20  2  1  0
 16  8  1  0
M  END
>  <zinc_id>  (1) 
ZINC000004360485

>  <smiles>  (1) 
Cc1ccc(/N=C/c2c(O)cc(C)c(Cl)c2C)c(N)c1

$$$$
