
     RDKit          3D

 20 21  0  0  0  0  0  0  0  0999 V2000
   -1.3368   -4.6496   -0.5951 C   0  0  0  0  0  0  0  0  0  0  0  0
   -1.8825   -3.5195    0.2114 C   0  0  0  0  0  0  0  0  0  0  0  0
   -1.3544   -2.2524   -0.2087 O   0  0  0  0  0  0  0  0  0  0  0  0
   -1.7198   -1.0768    0.3952 C   0  0  0  0  0  0  0  0  0  0  0  0
   -2.5276   -1.1060    1.3292 O   0  0  0  0  0  0  0  0  0  0  0  0
   -1.2012    0.2455   -0.0062 C   0  0  0  0  0  0  0  0  0  0  0  0
   -1.5954    1.2811    0.6044 C   0  0  0  0  0  0  0  0  0  0  0  0
   -2.6147    1.1068    1.7622 C   0  0  0  0  0  0  0  0  0  0  0  0
   -1.2061    2.6007    0.3037 N   0  0  0  0  0  0  0  0  0  0  0  0
   -0.2981    2.7670   -0.7781 C   0  0  0  0  0  0  0  0  0  0  0  0
    0.0764    3.9421   -1.0792 O   0  0  0  0  0  0  0  0  0  0  0  0
    0.1429    1.6486   -1.4615 N   0  0  0  0  0  0  0  0  0  0  0  0
   -0.1784    0.2316   -1.1511 C   0  0  1  0  0  0  0  0  0  0  0  0
    1.1294   -0.1681   -0.2983 C   0  0  0  0  0  0  0  0  0  0  0  0
    1.0001   -1.1271    0.6424 C   0  0  0  0  0  0  0  0  0  0  0  0
    2.1111   -1.4680    1.3835 C   0  0  0  0  0  0  0  0  0  0  0  0
    3.3214   -0.8212    1.1436 C   0  0  0  0  0  0  0  0  0  0  0  0
    3.4166    0.1550    0.1729 C   0  0  0  0  0  0  0  0  0  0  0  0
    2.2806    0.4898   -0.5709 C   0  0  0  0  0  0  0  0  0  0  0  0
    2.4363    1.7206   -1.7994 Cl  0  0  0  0  0  0  0  0  0  0  0  0
  1  2  1  0
  2  3  1  0
  3  4  1  0
  4  5  2  0
  4  6  1  0
  6  7  2  0
  7  8  1  0
  7  9  1  0
  9 10  1  0
 10 11  2  0
 10 12  1  0
 12 13  1  0
 13 14  1  1
 14 15  2  0
 15 16  1  0
 16 17  2  0
 17 18  1  0
 18 19  2  0
 19 20  1  0
 13  6  1  0
 19 14  1  0
M  END
>  <zinc_id>  (1) 
ZINC000000620798

>  <smiles>  (1) 
CCOC(=O)C1=C(C)NC(=O)N[C@H]1c1ccccc1Cl

$$$$
