
     RDKit          3D

 22 23  0  0  0  0  0  0  0  0999 V2000
   -1.8508    0.9203    1.8892 C   0  0  0  0  0  0  0  0  0  0  0  0
   -0.6359    1.4361    1.1384 C   0  0  0  0  0  0  0  0  0  0  0  0
   -0.4977    1.0399   -0.0467 C   0  0  0  0  0  0  0  0  0  0  0  0
   -1.4975    0.1008   -0.6770 C   0  0  0  0  0  0  0  0  0  0  0  0
   -1.3801   -0.3039   -1.8517 O   0  0  0  0  0  0  0  0  0  0  0  0
   -2.5666   -0.3194    0.0652 O   0  0  0  0  0  0  0  0  0  0  0  0
   -3.5669   -1.2024   -0.4282 C   0  0  0  0  0  0  0  0  0  0  0  0
   -4.5851   -1.4336    0.6883 C   0  0  0  0  0  0  0  0  0  0  0  0
   -2.9534   -2.5105   -0.8801 C   0  0  0  0  0  0  0  0  0  0  0  0
   -4.3055   -0.6075   -1.6073 C   0  0  0  0  0  0  0  0  0  0  0  0
    0.6629    1.3931   -1.0652 C   0  0  2  0  0  0  0  0  0  0  0  0
    1.5781    0.1089   -0.9328 C   0  0  0  0  0  0  0  0  0  0  0  0
    0.9721   -1.0777   -0.6411 C   0  0  0  0  0  0  0  0  0  0  0  0
    1.7333   -2.2531   -0.5111 C   0  0  0  0  0  0  0  0  0  0  0  0
    3.0907   -2.1880   -0.6816 C   0  0  0  0  0  0  0  0  0  0  0  0
    3.8932   -3.3142   -0.5656 O   0  0  0  0  0  0  0  0  0  0  0  0
    3.6764   -0.9794   -0.9751 C   0  0  0  0  0  0  0  0  0  0  0  0
    2.9104    0.1881   -1.1031 C   0  0  0  0  0  0  0  0  0  0  0  0
    1.5295    2.3592   -0.2663 N   0  0  0  0  0  0  0  0  0  0  0  0
    1.3491    2.7643    1.0166 C   0  0  0  0  0  0  0  0  0  0  0  0
    2.1957    3.5637    1.5291 O   0  0  0  0  0  0  0  0  0  0  0  0
    0.2482    2.3153    1.7790 N   0  0  0  0  0  0  0  0  0  0  0  0
  1  2  1  0
  2  3  2  0
  3  4  1  0
  4  5  2  0
  4  6  1  0
  6  7  1  0
  7  8  1  0
  7  9  1  0
  7 10  1  0
  3 11  1  0
 11 12  1  1
 12 13  2  0
 13 14  1  0
 14 15  2  0
 15 16  1  0
 15 17  1  0
 17 18  2  0
 11 19  1  0
 19 20  1  0
 20 21  2  0
 20 22  1  0
 22  2  1  0
 18 12  1  0
M  END
>  <zinc_id>  (1) 
ZINC000000279800

>  <smiles>  (1) 
CC1=C(C(=O)OC(C)(C)C)[C@H](c2ccc(O)cc2)NC(=O)N1

$$$$
