
     RDKit          3D

 18 19  0  0  0  0  0  0  0  0999 V2000
   -1.6972   -3.7366   -0.3423 C   0  0  0  0  0  0  0  0  0  0  0  0
   -2.3662   -2.4487   -0.0102 C   0  0  0  0  0  0  0  0  0  0  0  0
   -1.7692   -1.3283   -0.3087 C   0  0  0  0  0  0  0  0  0  0  0  0
   -0.4995   -1.3692   -0.9415 N   0  0  0  0  0  0  0  0  0  0  0  0
    0.4867   -0.4886   -0.4750 N   0  0  0  0  0  0  0  0  0  0  0  0
    1.8260   -0.9351   -0.4478 C   0  0  0  0  0  0  0  0  0  0  0  0
    2.1526   -2.0785   -0.8225 O   0  0  0  0  0  0  0  0  0  0  0  0
    2.8542   -0.0228    0.0358 C   0  0  0  0  0  0  0  0  0  0  0  0
    2.7323    1.2587    0.4918 C   0  0  0  0  0  0  0  0  0  0  0  0
    3.8305    1.8921    0.8813 C   0  0  0  0  0  0  0  0  0  0  0  0
    5.0187    1.2213    0.8024 C   0  0  0  0  0  0  0  0  0  0  0  0
    4.5338   -0.2970    0.1731 S   0  0  0  0  0  0  0  0  0  0  0  0
   -2.4092   -0.0413    0.0086 C   0  0  0  0  0  0  0  0  0  0  0  0
   -3.6337    0.1250    0.6175 C   0  0  0  0  0  0  0  0  0  0  0  0
   -3.8484    1.4667    0.7232 C   0  0  0  0  0  0  0  0  0  0  0  0
   -2.7458    2.0908    0.1742 C   0  0  0  0  0  0  0  0  0  0  0  0
   -2.5292    3.5472    0.0649 C   0  0  0  0  0  0  0  0  0  0  0  0
   -1.9365    1.1444   -0.2274 O   0  0  0  0  0  0  0  0  0  0  0  0
  1  2  1  0
  2  3  2  0
  3  4  1  0
  4  5  1  0
  5  6  1  0
  6  7  2  0
  6  8  1  0
  8  9  2  0
  9 10  1  0
 10 11  2  0
 11 12  1  0
  3 13  1  0
 13 14  2  0
 14 15  1  0
 15 16  2  0
 16 17  1  0
 16 18  1  0
 12  8  1  0
 18 13  1  0
M  END
>  <zinc_id>  (1) 
ZINC000002782960

>  <smiles>  (1) 
C/C=C(\NNC(=O)c1cccs1)c1ccc(C)o1

$$$$
