
     RDKit          3D

 22 25  0  0  0  0  0  0  0  0999 V2000
   -0.3660   -1.0032   -2.7188 O   0  0  0  0  0  0  0  0  0  0  0  0
    0.7259   -0.6613   -1.8937 C   0  0  0  0  0  0  0  0  0  0  0  0
    1.9635   -0.5484   -2.4866 C   0  0  0  0  0  0  0  0  0  0  0  0
    3.0468   -0.2160   -1.7062 C   0  0  0  0  0  0  0  0  0  0  0  0
    2.8819    0.0021   -0.3299 C   0  0  0  0  0  0  0  0  0  0  0  0
    1.6488   -0.1097    0.2654 C   0  0  0  0  0  0  0  0  0  0  0  0
    0.5706   -0.4463   -0.5439 C   0  0  0  0  0  0  0  0  0  0  0  0
   -0.7255   -0.5660    0.0693 C   0  0  0  0  0  0  0  0  0  0  0  0
   -1.1162   -1.7932    0.5630 C   0  0  0  0  0  0  0  0  0  0  0  0
   -0.2874   -2.9205    0.4831 O   0  0  0  0  0  0  0  0  0  0  0  0
   -2.3647   -1.8607    1.1413 C   0  0  0  0  0  0  0  0  0  0  0  0
   -3.1913   -0.7385    1.2216 C   0  0  0  0  0  0  0  0  0  0  0  0
   -2.7876    0.4826    0.7236 C   0  0  0  0  0  0  0  0  0  0  0  0
   -1.5361    0.5491    0.1442 C   0  0  0  0  0  0  0  0  0  0  0  0
   -1.1388    1.8860   -0.3806 C   0  0  0  0  0  0  0  0  0  0  0  0
   -2.2357    2.5100   -1.2019 C   0  0  0  0  0  0  0  0  0  0  0  0
   -3.5922    2.3100   -0.6197 C   0  0  0  0  0  0  0  0  0  0  0  0
   -3.6054    1.7222    0.7691 C   0  0  0  0  0  0  0  0  0  0  0  0
    1.4714    0.1210    1.7352 C   0  0  0  0  0  0  0  0  0  0  0  0
    2.6315    0.8225    2.3354 C   0  0  0  0  0  0  0  0  0  0  0  0
    3.9087    0.0933    1.9502 C   0  0  0  0  0  0  0  0  0  0  0  0
    4.0977    0.3649    0.4798 C   0  0  0  0  0  0  0  0  0  0  0  0
  1  2  1  0
  2  3  2  0
  3  4  1  0
  4  5  2  0
  5  6  1  0
  6  7  2  0
  7  8  1  0
  8  9  2  0
  9 10  1  0
  9 11  1  0
 11 12  2  0
 12 13  1  0
 13 14  2  0
 14 15  1  0
 15 16  1  0
 16 17  1  0
 17 18  1  0
  6 19  1  0
 19 20  1  0
 20 21  1  0
 21 22  1  0
  7  2  1  0
 14  8  1  0
 22  5  1  0
 18 13  1  0
M  END
>  <zinc_id>  (1) 
ZINC000002576980

>  <smiles>  (1) 
Oc1ccc2c(c1-c1c(O)ccc3c1CCCC3)CCCC2

$$$$
