
     RDKit          3D

 17 18  0  0  0  0  0  0  0  0999 V2000
    4.1092   -0.8528    1.5860 C   0  0  0  0  0  0  0  0  0  0  0  0
    3.4844   -0.3215    0.3256 C   0  0  0  0  0  0  0  0  0  0  0  0
    3.5633   -1.4210   -0.7389 C   0  0  0  0  0  0  0  0  0  0  0  0
    4.1361    0.9230   -0.1642 C   0  0  0  0  0  0  0  0  0  0  0  0
    3.1763    1.8751   -0.3763 O   0  0  0  0  0  0  0  0  0  0  0  0
    1.9830    1.4329    0.1629 C   0  0  0  0  0  0  0  0  0  0  0  0
    2.1110    0.0685    0.5269 N   0  0  0  0  0  0  0  0  0  0  0  0
    1.2617   -0.8518   -0.1227 C   0  0  0  0  0  0  0  0  0  0  0  0
   -0.1794   -0.7088    0.2373 C   0  0  0  0  0  0  0  0  0  0  0  0
   -0.4385    0.1957    1.0551 O   0  0  0  0  0  0  0  0  0  0  0  0
   -1.2170   -1.4798   -0.2524 N   0  0  0  0  0  0  0  0  0  0  0  0
   -2.5897   -1.5621   -0.1087 C   0  0  0  0  0  0  0  0  0  0  0  0
   -3.3609   -0.2161   -0.6252 C   0  0  1  0  0  0  0  0  0  0  0  0
   -4.6883   -0.4799    0.3937 C   0  0  0  0  0  0  0  0  0  0  0  0
   -4.9214    0.9351    0.8083 C   0  0  0  0  0  0  0  0  0  0  0  0
   -3.7075    1.7375    0.3473 C   0  0  0  0  0  0  0  0  0  0  0  0
   -2.7226    0.7258    0.3760 O   0  0  0  0  0  0  0  0  0  0  0  0
  1  2  1  0
  2  3  1  0
  2  4  1  0
  4  5  1  0
  5  6  1  0
  6  7  1  0
  7  8  1  0
  8  9  1  0
  9 10  2  0
  9 11  1  0
 11 12  1  0
 13 12  1  1
 13 14  1  0
 14 15  1  0
 15 16  1  0
 16 17  1  0
  7  2  1  0
 17 13  1  0
M  END
>  <zinc_id>  (1) 
ZINC000000016144

>  <smiles>  (1) 
CC1(C)COCN1CC(=O)NC[C@H]1CCCO1

$$$$
