
     RDKit          3D

 22 23  0  0  0  0  0  0  0  0999 V2000
   -0.3187   -1.7366   -0.6165 C   0  0  0  0  0  0  0  0  0  0  0  0
   -0.4982   -0.2821   -0.2983 C   0  0  0  0  0  0  0  0  0  0  0  0
   -0.4614    0.5630   -1.5788 C   0  0  0  0  0  0  0  0  0  0  0  0
   -1.8798   -0.1230    0.2237 C   0  0  0  0  0  0  0  0  0  0  0  0
   -2.0512    0.3681    1.4914 C   0  0  0  0  0  0  0  0  0  0  0  0
   -3.3396    0.5094    1.9596 C   0  0  0  0  0  0  0  0  0  0  0  0
   -4.4146    0.1757    1.1978 C   0  0  0  0  0  0  0  0  0  0  0  0
   -5.7389    0.3132    1.6594 O   0  0  0  0  0  0  0  0  0  0  0  0
   -4.2596   -0.3185   -0.0762 C   0  0  0  0  0  0  0  0  0  0  0  0
   -2.9544   -0.4616   -0.5505 C   0  0  0  0  0  0  0  0  0  0  0  0
   -2.7523   -0.9403   -1.7890 F   0  0  0  0  0  0  0  0  0  0  0  0
    0.5181    0.2023    0.6823 C   0  0  0  0  0  0  0  0  0  0  0  0
    0.4192   -0.6017    1.9936 C   0  0  0  0  0  0  0  0  0  0  0  0
    0.0969    1.6156    1.1000 C   0  0  0  0  0  0  0  0  0  0  0  0
    1.9144    0.2096    0.2590 C   0  0  0  0  0  0  0  0  0  0  0  0
    2.5608    1.4580    0.1856 C   0  0  0  0  0  0  0  0  0  0  0  0
    3.8534    1.6009   -0.2234 C   0  0  0  0  0  0  0  0  0  0  0  0
    4.5868    0.4932   -0.5879 C   0  0  0  0  0  0  0  0  0  0  0  0
    5.9151    0.6630   -1.0062 O   0  0  0  0  0  0  0  0  0  0  0  0
    3.9949   -0.7367   -0.5297 C   0  0  0  0  0  0  0  0  0  0  0  0
    2.6778   -0.8546   -0.1093 C   0  0  0  0  0  0  0  0  0  0  0  0
    2.1314   -2.1171   -0.0356 F   0  0  0  0  0  0  0  0  0  0  0  0
  1  2  1  0
  2  3  1  0
  2  4  1  0
  4  5  2  0
  5  6  1  0
  6  7  2  0
  7  8  1  0
  7  9  1  0
  9 10  2  0
 10 11  1  0
  2 12  1  0
 12 13  1  0
 12 14  1  0
 12 15  1  0
 15 16  2  0
 16 17  1  0
 17 18  2  0
 18 19  1  0
 18 20  1  0
 20 21  2  0
 21 22  1  0
 10  4  1  0
 21 15  1  0
M  END
>  <zinc_id>  (1) 
ZINC000000009687

>  <smiles>  (1) 
CC(C)(c1ccc(O)cc1F)C(C)(C)c1ccc(O)cc1F

$$$$
