
     RDKit          3D

 25 27  0  0  0  0  0  0  0  0999 V2000
    6.5242   -0.5312   -2.2826 C   0  0  0  0  0  0  0  0  0  0  0  0
    5.6086   -1.1779   -1.4222 O   0  0  0  0  0  0  0  0  0  0  0  0
    4.6586   -0.4771   -0.6707 C   0  0  0  0  0  0  0  0  0  0  0  0
    4.6522    0.8865   -0.8051 C   0  0  0  0  0  0  0  0  0  0  0  0
    3.7017    1.6218   -0.0568 C   0  0  0  0  0  0  0  0  0  0  0  0
    2.8285    0.9893    0.7649 C   0  0  0  0  0  0  0  0  0  0  0  0
    1.8263    1.9254    1.5367 C   0  0  2  0  0  0  0  0  0  0  0  0
    2.0930    1.2070    3.0248 C   0  0  0  0  0  0  0  0  0  0  0  0
    0.5308    1.0504    1.2673 N   0  0  0  0  0  0  0  0  0  0  0  0
    0.2646    0.8333   -0.0984 C   0  0  0  0  0  0  0  0  0  0  0  0
    1.0686    1.3477   -0.9168 O   0  0  0  0  0  0  0  0  0  0  0  0
   -0.8745    0.0561   -0.6278 C   0  0  0  0  0  0  0  0  0  0  0  0
   -1.7302   -0.4881    0.4086 N   0  0  0  0  0  0  0  0  0  0  0  0
   -0.9228   -1.5052    1.0824 C   0  0  0  0  0  0  0  0  0  0  0  0
   -1.8626   -2.6174    1.4402 C   0  0  0  0  0  0  0  0  0  0  0  0
   -3.2002   -2.2670    0.8389 C   0  0  0  0  0  0  0  0  0  0  0  0
   -2.5892   -1.4923   -0.5249 C   0  0  1  0  0  0  0  0  0  0  0  0
   -3.8356   -0.4787   -0.6683 C   0  0  0  0  0  0  0  0  0  0  0  0
   -4.3350   -0.3375   -1.9303 C   0  0  0  0  0  0  0  0  0  0  0  0
   -5.4126    0.5319   -2.0876 C   0  0  0  0  0  0  0  0  0  0  0  0
   -5.8971    1.1805   -0.9874 C   0  0  0  0  0  0  0  0  0  0  0  0
   -5.3648    0.9971    0.2086 N   0  0  0  0  0  0  0  0  0  0  0  0
   -4.3346    0.1678    0.3683 C   0  0  0  0  0  0  0  0  0  0  0  0
    2.8293   -0.3443    0.9010 C   0  0  0  0  0  0  0  0  0  0  0  0
    3.7726   -1.0782    0.1588 C   0  0  0  0  0  0  0  0  0  0  0  0
  1  2  1  0
  2  3  1  0
  3  4  2  0
  4  5  1  0
  5  6  2  0
  6  7  1  0
  7  8  1  1
  7  9  1  0
  9 10  1  0
 10 11  2  0
 10 12  1  0
 12 13  1  0
 13 14  1  0
 14 15  1  0
 15 16  1  0
 16 17  1  0
 17 18  1  1
 18 19  2  0
 19 20  1  0
 20 21  2  0
 21 22  1  0
 22 23  2  0
  6 24  1  0
 24 25  2  0
 25  3  1  0
 17 13  1  0
 23 18  1  0
M  END
>  <zinc_id>  (1) 
ZINC000000007756

>  <smiles>  (1) 
COc1ccc([C@H](C)NC(=O)CN2CCC[C@H]2c2cccnc2)cc1

$$$$
