
     RDKit          3D

 19 20  0  0  0  0  0  0  0  0999 V2000
    5.4960   -1.0675   -0.8277 C   0  0  0  0  0  0  0  0  0  0  0  0
    4.6446   -0.0744   -0.0759 C   0  0  0  0  0  0  0  0  0  0  0  0
    4.4592    1.1453   -0.9526 C   0  0  0  0  0  0  0  0  0  0  0  0
    3.6119    2.1948   -0.2679 C   0  0  0  0  0  0  0  0  0  0  0  0
    2.2687    1.6838    0.0604 C   0  0  0  0  0  0  0  0  0  0  0  0
    1.9505    1.0628    1.2496 C   0  0  0  0  0  0  0  0  0  0  0  0
    0.6681    0.5918    1.5253 C   0  0  0  0  0  0  0  0  0  0  0  0
   -0.3114    0.7438    0.5985 C   0  0  0  0  0  0  0  0  0  0  0  0
   -1.7175    0.3084    0.8258 C   0  0  0  0  0  0  0  0  0  0  0  0
   -2.3529    0.8279    1.9318 C   0  0  0  0  0  0  0  0  0  0  0  0
   -3.9119    0.1636    1.8383 S   0  0  0  0  0  0  0  0  0  0  0  0
   -3.7314   -0.7500    0.4163 C   0  0  0  0  0  0  0  0  0  0  0  0
   -4.7264   -1.5598   -0.2026 N   0  0  0  0  0  0  0  0  0  0  0  0
   -2.4294   -0.5098    0.0403 C   0  0  0  0  0  0  0  0  0  0  0  0
   -1.9121   -1.1796   -1.1768 C   0  0  0  0  0  0  0  0  0  0  0  0
   -0.5899   -1.0305   -1.6482 N   0  0  0  0  0  0  0  0  0  0  0  0
   -2.6558   -1.9418   -1.8700 O   0  0  0  0  0  0  0  0  0  0  0  0
   -0.0201    1.3590   -0.5938 C   0  0  0  0  0  0  0  0  0  0  0  0
    1.2599    1.8298   -0.8707 C   0  0  0  0  0  0  0  0  0  0  0  0
  1  2  1  0
  2  3  1  0
  3  4  1  0
  4  5  1  0
  5  6  2  0
  6  7  1  0
  7  8  2  0
  8  9  1  0
  9 10  2  0
 10 11  1  0
 11 12  1  0
 12 13  1  0
 12 14  2  0
 14 15  1  0
 15 16  1  0
 15 17  2  0
  8 18  1  0
 18 19  2  0
 19  5  1  0
 14  9  1  0
M  END
>  <zinc_id>  (1) 
ZINC000002597429

>  <smiles>  (1) 
CCCCc1ccc(-c2csc(N)c2C(N)=O)cc1

$$$$
