
     RDKit          3D

 20 22  0  0  0  0  0  0  0  0999 V2000
    4.6279    1.0593    1.6040 C   0  0  0  0  0  0  0  0  0  0  0  0
    4.7262   -0.1566    0.6845 C   0  0  0  0  0  0  0  0  0  0  0  0
    3.6685   -0.0741   -0.3395 C   0  0  0  0  0  0  0  0  0  0  0  0
    3.9636    0.2936   -1.6224 C   0  0  0  0  0  0  0  0  0  0  0  0
    2.9492    0.3573   -2.5580 C   0  0  0  0  0  0  0  0  0  0  0  0
    1.6483    0.0585   -2.2186 C   0  0  0  0  0  0  0  0  0  0  0  0
    1.3710   -0.3077   -0.9232 C   0  0  0  0  0  0  0  0  0  0  0  0
    0.1930   -0.6467   -0.2994 C   0  0  0  0  0  0  0  0  0  0  0  0
   -1.1535   -0.7694   -0.8939 C   0  0  0  0  0  0  0  0  0  0  0  0
   -2.1827   -0.1428   -0.3246 C   0  0  0  0  0  0  0  0  0  0  0  0
   -3.5531   -0.1738   -0.7776 N   0  0  0  0  0  0  0  0  0  0  0  0
   -4.3600    0.6562    0.0399 C   0  0  0  0  0  0  0  0  0  0  0  0
   -5.9608    0.9632   -0.0497 S   0  0  0  0  0  0  0  0  0  0  0  0
   -3.4978    1.2151    1.0120 N   0  0  0  0  0  0  0  0  0  0  0  0
   -3.8421    2.1424    2.0784 C   0  0  0  0  0  0  0  0  0  0  0  0
   -2.1520    0.7464    0.8186 C   0  0  0  0  0  0  0  0  0  0  0  0
   -1.1579    1.0607    1.5141 O   0  0  0  0  0  0  0  0  0  0  0  0
    0.5203   -0.9122    1.0091 C   0  0  0  0  0  0  0  0  0  0  0  0
    1.8112   -0.7558    1.2092 N   0  0  0  0  0  0  0  0  0  0  0  0
    2.3806   -0.3793    0.0371 C   0  0  0  0  0  0  0  0  0  0  0  0
  1  2  1  0
  2  3  1  0
  3  4  2  0
  4  5  1  0
  5  6  2  0
  6  7  1  0
  7  8  1  0
  8  9  1  0
  9 10  2  0
 10 11  1  0
 11 12  1  0
 12 13  2  0
 12 14  1  0
 14 15  1  0
 14 16  1  0
 16 17  2  0
  8 18  2  0
 18 19  1  0
 19 20  1  0
 20  3  1  0
 20  7  2  0
 16 10  1  0
M  END
>  <zinc_id>  (1) 
ZINC000000563049

>  <smiles>  (1) 
CCc1cccc2c(/C=C3/NC(=S)N(C)C3=O)c[nH]c12

$$$$
