
     RDKit          3D

 20 22  0  0  0  0  0  0  0  0999 V2000
    5.6057   -0.8096    0.3607 C   0  0  0  0  0  0  0  0  0  0  0  0
    4.5382   -1.8778    0.1111 C   0  0  0  0  0  0  0  0  0  0  0  0
    3.3454   -1.2599   -0.3815 O   0  0  0  0  0  0  0  0  0  0  0  0
    2.6863   -0.3055    0.3842 C   0  0  0  0  0  0  0  0  0  0  0  0
    3.2071   -0.0369    1.5107 O   0  0  0  0  0  0  0  0  0  0  0  0
    1.4795    0.3654   -0.0366 C   0  0  0  0  0  0  0  0  0  0  0  0
    1.3582    1.5490   -0.7503 C   0  0  0  0  0  0  0  0  0  0  0  0
    2.5230    2.3356   -1.2068 C   0  0  0  0  0  0  0  0  0  0  0  0
    0.0690    1.7914   -0.9145 O   0  0  0  0  0  0  0  0  0  0  0  0
   -0.6402    0.8279   -0.3451 C   0  0  0  0  0  0  0  0  0  0  0  0
    0.2093   -0.0902    0.2193 C   0  0  0  0  0  0  0  0  0  0  0  0
   -0.2969   -1.1920    0.8748 C   0  0  0  0  0  0  0  0  0  0  0  0
   -1.6557   -1.4185    0.9916 C   0  0  0  0  0  0  0  0  0  0  0  0
   -2.2051   -2.5022    1.6356 O   0  0  0  0  0  0  0  0  0  0  0  0
   -2.5006   -0.4891    0.4205 C   0  0  0  0  0  0  0  0  0  0  0  0
   -3.8861   -0.6667    0.5076 C   0  0  0  0  0  0  0  0  0  0  0  0
   -4.7206    0.2619   -0.0629 C   0  0  0  0  0  0  0  0  0  0  0  0
   -4.2251    1.3589   -0.7157 C   0  0  0  0  0  0  0  0  0  0  0  0
   -2.8740    1.5400   -0.8053 C   0  0  0  0  0  0  0  0  0  0  0  0
   -2.0173    0.6182   -0.2386 C   0  0  0  0  0  0  0  0  0  0  0  0
  1  2  1  0
  2  3  1  0
  3  4  1  0
  4  5  2  0
  4  6  1  0
  6  7  2  0
  7  8  1  0
  7  9  1  0
  9 10  1  0
 10 11  2  0
 11 12  1  0
 12 13  2  0
 13 14  1  0
 13 15  1  0
 15 16  2  0
 16 17  1  0
 17 18  2  0
 18 19  1  0
 19 20  2  0
 11  6  1  0
 20 15  1  0
 20 10  1  0
M  END
>  <zinc_id>  (1) 
ZINC000000042653

>  <smiles>  (1) 
CCOC(=O)c1c(C)oc2c1cc(O)c1ccccc12

$$$$
