
     RDKit          3D

 18 20  0  0  0  0  0  0  0  0999 V2000
    3.2500   -0.8389   -1.5659 C   0  0  0  0  0  0  0  0  0  0  0  0
    3.4034    0.3073   -0.6096 C   0  0  0  0  0  0  0  0  0  0  0  0
    4.3751    1.2729   -0.6544 C   0  0  0  0  0  0  0  0  0  0  0  0
    4.1118    2.0975    0.4108 C   0  0  0  0  0  0  0  0  0  0  0  0
    4.9000    3.2500    0.7323 N   0  0  0  0  0  0  0  0  0  0  0  0
    3.0386    1.6249    1.0360 N   0  0  0  0  0  0  0  0  0  0  0  0
    2.6193    0.5601    0.4271 N   0  0  0  0  0  0  0  0  0  0  0  0
    1.4647   -0.2454    0.8116 C   0  0  0  0  0  0  0  0  0  0  0  0
    0.3569    0.3010    0.1273 O   0  0  0  0  0  0  0  0  0  0  0  0
   -0.8995   -0.2494    0.2854 C   0  0  0  0  0  0  0  0  0  0  0  0
   -1.0401   -1.3359    1.1213 C   0  0  0  0  0  0  0  0  0  0  0  0
   -2.2608   -1.9322    1.3241 C   0  0  0  0  0  0  0  0  0  0  0  0
   -3.3552   -1.4185    0.6690 C   0  0  0  0  0  0  0  0  0  0  0  0
   -3.2638   -0.3422   -0.1698 C   0  0  0  0  0  0  0  0  0  0  0  0
   -2.0226    0.2341   -0.3520 C   0  0  0  0  0  0  0  0  0  0  0  0
   -4.6263   -0.0208   -0.7334 C   0  0  0  0  0  0  0  0  0  0  0  0
   -5.2827   -1.4032   -0.6376 C   0  0  0  0  0  0  0  0  0  0  0  0
   -4.7687   -1.8614    0.7081 C   0  0  0  0  0  0  0  0  0  0  0  0
  1  2  1  0
  2  3  2  0
  3  4  1  0
  4  5  1  0
  4  6  2  0
  6  7  1  0
  7  8  1  0
  8  9  1  0
  9 10  1  0
 10 11  2  0
 11 12  1  0
 12 13  2  0
 13 14  1  0
 14 15  2  0
 14 16  1  0
 16 17  1  0
 17 18  1  0
  7  2  1  0
 15 10  1  0
 18 13  1  0
M  END
>  <zinc_id>  (1) 
ZINC000002534972

>  <smiles>  (1) 
Cc1cc(N)nn1COc1ccc2c(c1)CCC2

$$$$
