
     RDKit          3D

 20 22  0  0  0  0  0  0  0  0999 V2000
   -2.5100   -2.9798    0.2352 C   0  0  0  0  0  0  0  0  0  0  0  0
   -2.8243   -1.5239    0.2421 C   0  0  0  0  0  0  0  0  0  0  0  0
   -4.0325   -0.9777    0.5934 C   0  0  0  0  0  0  0  0  0  0  0  0
   -3.8805    0.3958    0.4567 C   0  0  0  0  0  0  0  0  0  0  0  0
   -4.9330    1.3882    0.7288 C   0  0  0  0  0  0  0  0  0  0  0  0
   -4.6352    2.5965    0.5551 O   0  0  0  0  0  0  0  0  0  0  0  0
   -2.5992    0.6241    0.0324 C   0  0  0  0  0  0  0  0  0  0  0  0
   -2.0115    1.9460   -0.2402 C   0  0  0  0  0  0  0  0  0  0  0  0
   -1.9753   -0.5450   -0.0921 N   0  0  0  0  0  0  0  0  0  0  0  0
   -0.5772   -0.7184   -0.5292 C   0  0  0  0  0  0  0  0  0  0  0  0
    0.2884   -0.6825    0.7105 C   0  0  0  0  0  0  0  0  0  0  0  0
    1.7113   -0.8443    0.4197 C   0  0  0  0  0  0  0  0  0  0  0  0
    2.4557   -1.9760    0.6181 C   0  0  0  0  0  0  0  0  0  0  0  0
    3.7193   -1.7386    0.2321 N   0  0  0  0  0  0  0  0  0  0  0  0
    3.8021   -0.4598   -0.2160 C   0  0  0  0  0  0  0  0  0  0  0  0
    4.8753    0.2629   -0.7179 C   0  0  0  0  0  0  0  0  0  0  0  0
    4.7143    1.5737   -1.1172 C   0  0  0  0  0  0  0  0  0  0  0  0
    3.4578    2.1284   -0.9981 C   0  0  0  0  0  0  0  0  0  0  0  0
    2.3968    1.4189   -0.5037 C   0  0  0  0  0  0  0  0  0  0  0  0
    2.5576    0.1116   -0.1055 C   0  0  0  0  0  0  0  0  0  0  0  0
  1  2  1  0
  2  3  2  0
  3  4  1  0
  4  5  1  0
  5  6  2  0
  4  7  2  0
  7  8  1  0
  7  9  1  0
  9 10  1  0
 10 11  1  0
 11 12  1  0
 12 13  2  0
 13 14  1  0
 14 15  1  0
 15 16  2  0
 16 17  1  0
 17 18  2  0
 18 19  1  0
 19 20  2  0
  9  2  1  0
 20 12  1  0
 20 15  1  0
M  END
>  <zinc_id>  (1) 
ZINC000000009394

>  <smiles>  (1) 
Cc1cc(C=O)c(C)n1CCc1c[nH]c2ccccc12

$$$$
