
     RDKit          3D

 20 22  0  0  0  0  0  0  0  0999 V2000
    4.5952    1.9716    0.8720 C   0  0  0  0  0  0  0  0  0  0  0  0
    3.7956    0.8175    0.3664 C   0  0  0  0  0  0  0  0  0  0  0  0
    2.4613    0.9560    0.0310 C   0  0  0  0  0  0  0  0  0  0  0  0
    1.7432   -0.1323   -0.4354 C   0  0  0  0  0  0  0  0  0  0  0  0
    0.3963   -0.0259   -0.7823 O   0  0  0  0  0  0  0  0  0  0  0  0
   -0.5441   -0.1489    0.2479 C   0  0  0  0  0  0  0  0  0  0  0  0
   -0.1643   -0.3679    1.5574 C   0  0  0  0  0  0  0  0  0  0  0  0
   -1.0761   -0.4902    2.5761 C   0  0  0  0  0  0  0  0  0  0  0  0
   -2.4258   -0.3957    2.3154 C   0  0  0  0  0  0  0  0  0  0  0  0
   -2.8185   -0.1763    1.0077 C   0  0  0  0  0  0  0  0  0  0  0  0
   -1.9025   -0.0528   -0.0199 C   0  0  0  0  0  0  0  0  0  0  0  0
   -2.5797    0.1635   -1.2359 O   0  0  0  0  0  0  0  0  0  0  0  0
   -3.7996    0.7865   -0.8627 C   0  0  0  0  0  0  0  0  0  0  0  0
   -3.5518    2.2160   -0.4290 C   0  0  0  0  0  0  0  0  0  0  0  0
   -4.8685    0.6731   -1.8971 C   0  0  0  0  0  0  0  0  0  0  0  0
   -4.1729   -0.0221    0.3627 C   0  0  0  0  0  0  0  0  0  0  0  0
    2.4113   -1.3112   -0.5400 N   0  0  0  0  0  0  0  0  0  0  0  0
    3.7024   -1.4311   -0.2118 C   0  0  0  0  0  0  0  0  0  0  0  0
    4.4151   -2.6652   -0.3175 N   0  0  0  0  0  0  0  0  0  0  0  0
    4.3834   -0.3645    0.2388 N   0  0  0  0  0  0  0  0  0  0  0  0
  1  2  1  0
  2  3  2  0
  3  4  1  0
  4  5  1  0
  5  6  1  0
  6  7  2  0
  7  8  1  0
  8  9  2  0
  9 10  1  0
 10 11  2  0
 11 12  1  0
 12 13  1  0
 13 14  1  0
 13 15  1  0
 13 16  1  0
  4 17  2  0
 17 18  1  0
 18 19  1  0
 18 20  2  0
 20  2  1  0
 11  6  1  0
 16 10  1  0
M  END
>  <zinc_id>  (1) 
ZINC000002562057

>  <smiles>  (1) 
Cc1cc(Oc2cccc3c2OC(C)(C)C3)nc(N)n1

$$$$
