
     RDKit          3D

 21 22  0  0  0  0  0  0  0  0999 V2000
   -0.7976   -2.7673    0.1808 C   0  0  0  0  0  0  0  0  0  0  0  0
   -0.3754   -1.3958    0.9585 C   0  0  1  0  0  0  0  0  0  0  0  0
    0.8448   -0.9967    0.0799 C   0  0  0  0  0  0  0  0  0  0  0  0
    1.2257   -1.5452   -1.0691 C   0  0  0  0  0  0  0  0  0  0  0  0
    2.3452   -1.0844   -1.7533 C   0  0  0  0  0  0  0  0  0  0  0  0
    3.0902   -0.0527   -1.2665 C   0  0  0  0  0  0  0  0  0  0  0  0
    4.2423    0.4026   -1.9934 N   0  0  0  0  0  0  0  0  0  0  0  0
    5.0038    1.4835   -1.4415 C   0  0  0  0  0  0  0  0  0  0  0  0
    4.5853   -0.2354   -3.2347 C   0  0  0  0  0  0  0  0  0  0  0  0
    2.7139    0.5299   -0.0783 C   0  0  0  0  0  0  0  0  0  0  0  0
    1.5835    0.0375    0.5772 C   0  0  0  0  0  0  0  0  0  0  0  0
   -1.4374   -0.4634    0.2972 C   0  0  0  0  0  0  0  0  0  0  0  0
   -1.6837   -0.3991   -1.0157 C   0  0  0  0  0  0  0  0  0  0  0  0
   -2.6400    0.4492   -1.5794 C   0  0  0  0  0  0  0  0  0  0  0  0
   -3.3626    1.2560   -0.7491 C   0  0  0  0  0  0  0  0  0  0  0  0
   -4.3661    2.1551   -1.2754 N   0  0  0  0  0  0  0  0  0  0  0  0
   -3.1342    1.2146    0.6058 C   0  0  0  0  0  0  0  0  0  0  0  0
   -2.1595    0.3443    1.1381 C   0  0  0  0  0  0  0  0  0  0  0  0
   -1.9874    0.3635    2.5385 N   0  0  0  0  0  4  0  0  0  0  0  0
   -2.9292    0.6839    3.2721 O   0  0  0  0  0  0  0  0  0  0  0  0
   -0.7616    0.0197    3.0303 O   0  0  0  0  0  1  0  0  0  0  0  0
  2  1  1  6
  2  3  1  0
  3  4  2  0
  4  5  1  0
  5  6  2  0
  6  7  1  0
  7  8  1  0
  7  9  1  0
  6 10  1  0
 10 11  2  0
  2 12  1  0
 12 13  2  0
 13 14  1  0
 14 15  2  0
 15 16  1  0
 15 17  1  0
 17 18  2  0
 18 19  1  0
 19 20  2  0
 19 21  1  0
 11  3  1  0
 18 12  1  0
M  CHG  2  19   1  21  -1
M  END
>  <zinc_id>  (1) 
ZINC000001678820

>  <smiles>  (1) 
C[C@@H](c1ccc(N(C)C)cc1)c1ccc(N)cc1[N+](=O)[O-]

$$$$
