
     RDKit          3D

 20 23  0  0  0  0  0  0  0  0999 V2000
   -2.5898   -2.6382    0.1716 C   0  0  0  0  0  0  0  0  0  0  0  0
   -1.2916   -1.9106    0.1520 C   0  0  0  0  0  0  0  0  0  0  0  0
   -0.0374   -2.4056    0.2148 N   0  0  0  0  0  0  0  0  0  0  0  0
    0.8633   -1.4353    0.1711 N   0  0  0  0  0  0  0  0  0  0  0  0
    2.2040   -1.5270    0.2080 C   0  0  0  0  0  0  0  0  0  0  0  0
    2.9295   -2.7385    0.3088 N   0  0  0  0  0  0  0  0  0  0  0  0
    2.9082   -0.3391    0.1437 C   0  0  0  0  0  0  0  0  0  0  0  0
    2.2008    0.8586    0.0459 C   0  0  0  0  0  0  0  0  0  0  0  0
    0.8656    0.8796    0.0138 N   0  0  0  0  0  0  0  0  0  0  0  0
    0.1915   -0.2782    0.0768 C   0  0  0  0  0  0  0  0  0  0  0  0
   -1.1859   -0.5437    0.0624 C   0  0  0  0  0  0  0  0  0  0  0  0
   -2.1971    0.4760   -0.0378 C   0  0  0  0  0  0  0  0  0  0  0  0
   -2.7811    0.7423   -1.2476 C   0  0  0  0  0  0  0  0  0  0  0  0
   -3.7562    1.7272   -1.3758 C   0  0  0  0  0  0  0  0  0  0  0  0
   -4.1342    2.4420   -0.2621 C   0  0  0  0  0  0  0  0  0  0  0  0
   -3.5408    2.1663    0.9474 C   0  0  0  0  0  0  0  0  0  0  0  0
   -2.5729    1.1855    1.0656 C   0  0  0  0  0  0  0  0  0  0  0  0
    3.1394    2.0126   -0.0097 C   0  0  0  0  0  0  0  0  0  0  0  0
    4.4290    1.3596   -0.4285 C   0  0  0  0  0  0  0  0  0  0  0  0
    4.3557   -0.0335    0.1588 C   0  0  0  0  0  0  0  0  0  0  0  0
  1  2  1  0
  2  3  2  0
  3  4  1  0
  4  5  1  0
  5  6  1  0
  5  7  2  0
  7  8  1  0
  8  9  2  0
  9 10  1  0
 10 11  2  0
 11 12  1  0
 12 13  2  0
 13 14  1  0
 14 15  2  0
 15 16  1  0
 16 17  2  0
  8 18  1  0
 18 19  1  0
 19 20  1  0
 11  2  1  0
 17 12  1  0
 10  4  1  0
 20  7  1  0
M  END
>  <zinc_id>  (1) 
ZINC000003882740

>  <smiles>  (1) 
Cc1nn2c(N)c3c(nc2c1-c1ccccc1)CCC3

$$$$
