
     RDKit          3D

 19 20  0  0  0  0  0  0  0  0999 V2000
    5.6233    0.1584    0.7695 C   0  0  0  0  0  0  0  0  0  0  0  0
    5.1288    0.2491   -0.6619 C   0  0  0  0  0  0  0  0  0  0  0  0
    3.7213    0.4894   -0.6123 O   0  0  0  0  0  0  0  0  0  0  0  0
    2.9129   -0.4486    0.0166 C   0  0  0  0  0  0  0  0  0  0  0  0
    3.4447   -1.4599    0.5114 O   0  0  0  0  0  0  0  0  0  0  0  0
    1.4590   -0.2554    0.0985 C   0  0  0  0  0  0  0  0  0  0  0  0
    0.6833   -1.1833    0.7176 C   0  0  0  0  0  0  0  0  0  0  0  0
    1.3460   -2.3868    1.3025 C   0  0  0  0  0  0  0  0  0  0  0  0
   -0.6465   -0.9928    0.7849 N   0  0  0  0  0  0  0  0  0  0  0  0
   -1.2638    0.0860    0.2636 C   0  0  0  0  0  0  0  0  0  0  0  0
   -2.6995    0.2139    0.3797 C   0  0  0  0  0  0  0  0  0  0  0  0
   -3.4417   -0.7453    1.0118 C   0  0  0  0  0  0  0  0  0  0  0  0
   -4.8315   -0.6318    1.1300 C   0  0  0  0  0  0  0  0  0  0  0  0
   -5.4542    0.4638    0.5999 C   0  0  0  0  0  0  0  0  0  0  0  0
   -4.7026    1.4329   -0.0390 C   0  0  0  0  0  0  0  0  0  0  0  0
   -3.3121    1.3156   -0.1552 C   0  0  0  0  0  0  0  0  0  0  0  0
   -0.4838    0.9906   -0.3430 N   0  0  0  0  0  0  0  0  0  0  0  0
    0.8627    0.8545   -0.4429 C   0  0  0  0  0  0  0  0  0  0  0  0
    1.6536    1.8496   -1.1014 N   0  0  0  0  0  0  0  0  0  0  0  0
  1  2  1  0
  2  3  1  0
  3  4  1  0
  4  5  2  0
  4  6  1  0
  6  7  2  0
  7  8  1  0
  7  9  1  0
  9 10  2  0
 10 11  1  0
 11 12  2  0
 12 13  1  0
 13 14  2  0
 14 15  1  0
 15 16  2  0
 10 17  1  0
 17 18  2  0
 18 19  1  0
 18  6  1  0
 16 11  1  0
M  END
>  <zinc_id>  (1) 
ZINC000000191880

>  <smiles>  (1) 
CCOC(=O)c1c(C)nc(-c2ccccc2)nc1N

$$$$
