
     RDKit          3D

 19 20  0  0  0  0  0  0  0  0999 V2000
    6.4163    0.9639    0.5449 C   0  0  0  0  0  0  0  0  0  0  0  0
    5.7281   -0.3424    0.3560 C   0  0  0  0  0  0  0  0  0  0  0  0
    4.3257   -0.1325   -0.1518 C   0  0  0  0  0  0  0  0  0  0  0  0
    3.2733    0.0306    0.7224 C   0  0  0  0  0  0  0  0  0  0  0  0
    1.9994    0.2139    0.2464 C   0  0  0  0  0  0  0  0  0  0  0  0
    1.7284    0.2421   -1.1130 C   0  0  0  0  0  0  0  0  0  0  0  0
    0.3476    0.4240   -1.5703 C   0  0  0  0  0  0  0  0  0  0  0  0
    0.1100    0.5634   -2.7923 O   0  0  0  0  0  0  0  0  0  0  0  0
   -0.7298    0.4453   -0.6558 N   0  0  0  0  0  0  0  0  0  0  0  0
   -2.0777    0.6105   -0.9975 N   0  0  0  0  0  0  0  0  0  0  0  0
   -2.9939    0.4309    0.1111 C   0  0  0  0  0  0  0  0  0  0  0  0
   -3.3605    1.5173    0.8466 C   0  0  0  0  0  0  0  0  0  0  0  0
   -4.2245    1.3359    1.9082 C   0  0  0  0  0  0  0  0  0  0  0  0
   -4.7046    0.0816    2.2179 C   0  0  0  0  0  0  0  0  0  0  0  0
   -4.3336   -1.0238    1.4734 C   0  0  0  0  0  0  0  0  0  0  0  0
   -4.8970   -2.3290    1.8801 C   0  0  0  0  0  0  0  0  0  0  0  0
   -3.4817   -0.8326    0.4293 C   0  0  0  0  0  0  0  0  0  0  0  0
    2.7898    0.0789   -1.9663 C   0  0  0  0  0  0  0  0  0  0  0  0
    4.0845   -0.1081   -1.4890 C   0  0  0  0  0  0  0  0  0  0  0  0
  1  2  1  0
  2  3  1  0
  3  4  2  0
  4  5  1  0
  5  6  2  0
  6  7  1  0
  7  8  2  0
  7  9  1  0
  9 10  1  0
 10 11  1  0
 11 12  2  0
 12 13  1  0
 13 14  2  0
 14 15  1  0
 15 16  1  0
 15 17  2  0
  6 18  1  0
 18 19  2  0
 19  3  1  0
 17 11  1  0
M  END
>  <zinc_id>  (1) 
ZINC000000151809

>  <smiles>  (1) 
CCc1ccc(C(=O)NNc2cccc(C)c2)cc1

$$$$
