
     RDKit          3D

 21 22  0  0  0  0  0  0  0  0999 V2000
   -0.1314   -3.4442   -0.2349 C   0  0  0  0  0  0  0  0  0  0  0  0
   -0.2468   -2.6152   -1.4752 C   0  0  0  0  0  0  0  0  0  0  0  0
   -1.3887   -1.7803   -1.4882 O   0  0  0  0  0  0  0  0  0  0  0  0
   -1.6201   -0.8018   -0.5283 C   0  0  0  0  0  0  0  0  0  0  0  0
   -2.2014   -1.0966    0.5622 C   0  0  0  0  0  0  0  0  0  0  0  0
   -2.6621   -2.5421    0.8452 C   0  0  0  0  0  0  0  0  0  0  0  0
   -2.4687   -0.1959    1.5609 O   0  0  0  0  0  0  0  0  0  0  0  0
   -2.0713    1.1087    1.3445 C   0  0  0  0  0  0  0  0  0  0  0  0
   -2.3411    2.0635    2.3744 N   0  0  0  0  0  0  0  0  0  0  0  0
   -1.4757    1.5100    0.2749 C   0  0  0  0  0  0  0  0  0  0  0  0
   -1.0921    2.8733    0.1157 C   0  0  0  0  0  0  0  0  0  0  0  0
   -0.7632    3.9825   -0.0046 N   0  0  0  0  0  0  0  0  0  0  0  0
   -1.1213    0.5866   -0.9195 C   0  0  1  0  0  0  0  0  0  0  0  0
    0.4435    0.3771   -0.5698 C   0  0  0  0  0  0  0  0  0  0  0  0
    1.3335    0.8528   -1.4864 C   0  0  0  0  0  0  0  0  0  0  0  0
    2.6870    0.6687   -1.1787 C   0  0  0  0  0  0  0  0  0  0  0  0
    3.0523    0.0388   -0.0075 C   0  0  0  0  0  0  0  0  0  0  0  0
    4.3927   -0.1463    0.3027 O   0  0  0  0  0  0  0  0  0  0  0  0
    4.8197   -0.7811    1.4812 C   0  0  0  0  0  0  0  0  0  0  0  0
    2.0998   -0.4193    0.8779 C   0  0  0  0  0  0  0  0  0  0  0  0
    0.7552   -0.2392    0.5773 C   0  0  0  0  0  0  0  0  0  0  0  0
  1  2  1  0
  2  3  1  0
  3  4  1  0
  4  5  2  0
  5  6  1  0
  5  7  1  0
  7  8  1  0
  8  9  1  0
  8 10  2  0
 10 11  1  0
 11 12  3  0
 10 13  1  0
 13 14  1  1
 14 15  2  0
 15 16  1  0
 16 17  2  0
 17 18  1  0
 18 19  1  0
 17 20  1  0
 20 21  2  0
 13  4  1  0
 21 14  1  0
M  END
>  <zinc_id>  (1) 
ZINC000000184583

>  <smiles>  (1) 
CCOC1=C(C)OC(N)=C(C#N)[C@H]1c1ccc(OC)cc1

$$$$
