
     RDKit          3D

 20 22  0  0  0  0  0  0  0  0999 V2000
    6.9627   -1.7351   -0.2161 C   0  0  0  0  0  0  0  0  0  0  0  0
    5.7838   -0.8801    0.1537 C   0  0  0  0  0  0  0  0  0  0  0  0
    4.4621   -1.0886   -0.0623 C   0  0  0  0  0  0  0  0  0  0  0  0
    3.5956   -0.1678    0.3674 C   0  0  0  0  0  0  0  0  0  0  0  0
    2.1262   -0.3253    0.1674 C   0  0  0  0  0  0  0  0  0  0  0  0
    1.6780   -1.3384   -0.4153 O   0  0  0  0  0  0  0  0  0  0  0  0
    1.2162    0.6382    0.6170 N   0  0  0  0  0  0  0  0  0  0  0  0
   -0.1698    0.5476    0.4597 N   0  0  0  0  0  0  0  0  0  0  0  0
   -0.9458    1.5342    0.2803 C   0  0  0  0  0  0  0  0  0  0  0  0
   -2.4022    1.4147    0.1171 C   0  0  0  0  0  0  0  0  0  0  0  0
   -3.2881    2.4361   -0.0784 C   0  0  0  0  0  0  0  0  0  0  0  0
   -4.5145    1.9156   -0.1788 N   0  0  0  0  0  0  0  0  0  0  0  0
   -4.4355    0.5807   -0.0520 C   0  0  0  0  0  0  0  0  0  0  0  0
   -5.4062   -0.4204   -0.0797 C   0  0  0  0  0  0  0  0  0  0  0  0
   -5.0377   -1.7315    0.0796 C   0  0  0  0  0  0  0  0  0  0  0  0
   -3.7166   -2.0658    0.2666 C   0  0  0  0  0  0  0  0  0  0  0  0
   -2.7326   -1.1019    0.2991 C   0  0  0  0  0  0  0  0  0  0  0  0
   -3.1162    0.2408    0.1353 C   0  0  0  0  0  0  0  0  0  0  0  0
    4.1347    0.9322    1.0039 C   0  0  0  0  0  0  0  0  0  0  0  0
    5.8061    0.6148    0.9631 S   0  0  0  0  0  0  0  0  0  0  0  0
  1  2  1  0
  2  3  2  0
  3  4  1  0
  4  5  1  0
  5  6  2  0
  5  7  1  0
  7  8  1  0
  8  9  2  0
  9 10  1  0
 10 11  2  0
 11 12  1  0
 12 13  1  0
 13 14  2  0
 14 15  1  0
 15 16  2  0
 16 17  1  0
 17 18  2  0
  4 19  2  0
 19 20  1  0
 20  2  1  0
 18 10  1  0
 18 13  1  0
M  END
>  <zinc_id>  (1) 
ZINC000000373926

>  <smiles>  (1) 
Cc1cc(C(=O)N/N=C/c2c[nH]c3ccccc23)cs1

$$$$
