
     RDKit          3D

 19 21  0  0  0  0  0  0  0  0999 V2000
   -2.9329   -2.8921   -1.3540 O   0  0  0  0  0  0  0  0  0  0  0  0
   -3.2292   -2.1852   -0.2067 C   0  0  0  0  0  0  0  0  0  0  0  0
   -3.9347   -0.8604   -0.5087 C   0  0  0  0  0  0  0  0  0  0  0  0
   -2.8049    0.1268   -1.5518 S   0  0  0  0  0  0  0  0  0  0  0  0
   -1.3476    0.5739   -0.6205 C   0  0  0  0  0  0  0  0  0  0  0  0
   -0.2748   -0.2357   -0.6182 N   0  0  0  0  0  0  0  0  0  0  0  0
    0.8455    0.0887    0.0862 C   0  0  0  0  0  0  0  0  0  0  0  0
    1.9988   -0.8011    0.0769 C   0  0  0  0  0  0  0  0  0  0  0  0
    1.9347   -1.9812   -0.6585 C   0  0  0  0  0  0  0  0  0  0  0  0
    3.0274   -2.8180   -0.6643 C   0  0  0  0  0  0  0  0  0  0  0  0
    4.1525   -2.4950    0.0389 C   0  0  0  0  0  0  0  0  0  0  0  0
    4.1892   -1.3095    0.7652 C   0  0  0  0  0  0  0  0  0  0  0  0
    3.1085   -0.4523    0.7887 C   0  0  0  0  0  0  0  0  0  0  0  0
    0.8843    1.2324    0.7902 N   0  0  0  0  0  0  0  0  0  0  0  0
   -0.1516    2.0902    0.8337 C   0  0  0  0  0  0  0  0  0  0  0  0
   -1.2863    1.7561    0.1168 C   0  0  0  0  0  0  0  0  0  0  0  0
   -2.2974    2.8010    0.2846 C   0  0  0  0  0  0  0  0  0  0  0  0
   -1.5588    3.9806    0.8719 C   0  0  0  0  0  0  0  0  0  0  0  0
   -0.3226    3.3807    1.5295 C   0  0  0  0  0  0  0  0  0  0  0  0
  1  2  1  0
  2  3  1  0
  3  4  1  0
  4  5  1  0
  5  6  2  0
  6  7  1  0
  7  8  1  0
  8  9  2  0
  9 10  1  0
 10 11  2  0
 11 12  1  0
 12 13  2  0
  7 14  2  0
 14 15  1  0
 15 16  2  0
 16 17  1  0
 17 18  1  0
 18 19  1  0
 16  5  1  0
 13  8  1  0
 19 15  1  0
M  END
>  <zinc_id>  (1) 
ZINC000002439757

>  <smiles>  (1) 
OCCSc1nc(-c2ccccc2)nc2c1CCC2

$$$$
