
     RDKit          3D

 21 22  0  0  0  0  0  0  0  0999 V2000
   -5.6470   -2.1481   -0.2938 C   0  0  0  0  0  0  0  0  0  0  0  0
   -4.6386   -1.0638   -0.3045 C   0  0  0  0  0  0  0  0  0  0  0  0
   -4.9728    0.2242   -0.6729 C   0  0  0  0  0  0  0  0  0  0  0  0
   -3.9968    1.2207   -0.6822 C   0  0  0  0  0  0  0  0  0  0  0  0
   -4.4202    2.5774   -1.0892 C   0  0  0  0  0  0  0  0  0  0  0  0
   -2.7013    0.9438   -0.3320 C   0  0  0  0  0  0  0  0  0  0  0  0
   -2.3492   -0.3327    0.0398 C   0  0  0  0  0  0  0  0  0  0  0  0
   -1.0095   -0.6425    0.4263 N   0  0  0  0  0  0  0  0  0  0  0  0
   -0.0291    0.3727    0.4363 C   0  0  0  0  0  0  0  0  0  0  0  0
   -0.3325    1.5806    0.1009 O   0  0  0  0  0  0  0  0  0  0  0  0
    1.3350    0.0539    0.8305 C   0  0  0  0  0  0  0  0  0  0  0  0
    1.6259   -0.3673    2.1180 C   0  0  0  0  0  0  0  0  0  0  0  0
    2.9168   -0.7007    2.4878 C   0  0  0  0  0  0  0  0  0  0  0  0
    3.9232   -0.6119    1.5623 C   0  0  0  0  0  0  0  0  0  0  0  0
    3.6893   -0.1937    0.2457 C   0  0  0  0  0  0  0  0  0  0  0  0
    4.7719   -0.1069   -0.6729 N   0  0  0  0  0  4  0  0  0  0  0  0
    4.7828    0.7477   -1.5794 O   0  0  0  0  0  0  0  0  0  0  0  0
    5.8531   -0.9427   -0.6307 O   0  0  0  0  0  1  0  0  0  0  0  0
    2.3985    0.1267   -0.0722 C   0  0  0  0  0  0  0  0  0  0  0  0
    2.1248    0.5695   -1.4533 C   0  0  0  0  0  0  0  0  0  0  0  0
   -3.3243   -1.3071    0.0442 C   0  0  0  0  0  0  0  0  0  0  0  0
  1  2  1  0
  2  3  2  0
  3  4  1  0
  4  5  1  0
  4  6  2  0
  6  7  1  0
  7  8  1  0
  8  9  1  0
  9 10  2  0
  9 11  1  0
 11 12  2  0
 12 13  1  0
 13 14  2  0
 14 15  1  0
 15 16  1  0
 16 17  2  0
 16 18  1  0
 15 19  2  0
 19 20  1  0
  7 21  2  0
 21  2  1  0
 19 11  1  0
M  CHG  2  16   1  18  -1
M  END
>  <zinc_id>  (1) 
ZINC000000482806

>  <smiles>  (1) 
Cc1cc(C)cc(NC(=O)c2cccc([N+](=O)[O-])c2C)c1

$$$$
