
     RDKit          3D

 18 19  0  0  0  0  0  0  0  0999 V2000
    1.3362   -1.6256   -1.3852 O   0  0  0  0  0  0  0  0  0  0  0  0
    1.3185   -0.7109   -0.5132 C   0  0  0  0  0  0  0  0  0  0  0  0
    0.1701   -0.7367    0.3428 N   0  0  0  0  0  0  0  0  0  0  0  0
   -0.8304   -1.6726    0.2519 N   0  0  0  0  0  0  0  0  0  0  0  0
   -2.1414   -1.6465   -0.0193 C   0  0  0  0  0  0  0  0  0  0  0  0
   -3.1399   -0.8715    0.2661 C   0  0  0  0  0  0  0  0  0  0  0  0
   -2.8769    0.3200    1.0997 C   0  0  0  0  0  0  0  0  0  0  0  0
   -3.3970    1.4983    0.3568 C   0  0  0  0  0  0  0  0  0  0  0  0
   -4.5256    1.3858   -0.3225 C   0  0  0  0  0  0  0  0  0  0  0  0
   -5.3161    0.1373   -0.3853 C   0  0  0  0  0  0  0  0  0  0  0  0
   -4.5360   -1.1148   -0.1622 C   0  0  0  0  0  0  0  0  0  0  0  0
    2.4056    0.2281   -0.4907 C   0  0  0  0  0  0  0  0  0  0  0  0
    2.5190    1.2877   -1.3147 C   0  0  0  0  0  0  0  0  0  0  0  0
    3.5454    2.1826   -1.2023 C   0  0  0  0  0  0  0  0  0  0  0  0
    4.4785    1.9817   -0.2189 C   0  0  0  0  0  0  0  0  0  0  0  0
    4.3991    0.8954    0.6625 C   0  0  0  0  0  0  0  0  0  0  0  0
    3.3547    0.0117    0.5262 C   0  0  0  0  0  0  0  0  0  0  0  0
    3.2361   -1.5499    1.6475 Br  0  0  0  0  0  0  0  0  0  0  0  0
  1  2  2  0
  2  3  1  0
  3  4  1  0
  4  5  1  0
  5  6  2  0
  6  7  1  0
  7  8  1  0
  8  9  2  0
  9 10  1  0
 10 11  1  0
  2 12  1  0
 12 13  2  0
 13 14  1  0
 14 15  2  0
 15 16  1  0
 16 17  2  0
 17 18  1  0
 11  6  1  0
 17 12  1  0
M  END
>  <zinc_id>  (1) 
ZINC000002748690

>  <smiles>  (1) 
O=C(NN/C=C1\CC=CCC1)c1ccccc1Br

$$$$
