
     RDKit          3D

 20 22  0  0  0  0  0  0  0  0999 V2000
   -4.3867   -1.8837   -1.9421 C   0  0  0  0  0  0  0  0  0  0  0  0
   -3.3726   -1.0848   -1.1932 C   0  0  0  0  0  0  0  0  0  0  0  0
   -2.7235   -1.5881   -0.0846 C   0  0  0  0  0  0  0  0  0  0  0  0
   -1.7869   -0.8456    0.6042 C   0  0  0  0  0  0  0  0  0  0  0  0
   -1.4566    0.4356    0.2150 C   0  0  0  0  0  0  0  0  0  0  0  0
   -0.4849    1.1939    0.9370 N   0  0  0  0  0  0  0  0  0  0  0  0
   -0.8004    2.2299    1.7209 N   0  0  0  0  0  0  0  0  0  0  0  0
    0.3311    2.7142    2.2449 C   0  0  0  0  0  0  0  0  0  0  0  0
    0.4742    3.8012    3.1259 O   0  0  0  0  0  0  0  0  0  0  0  0
    1.3411    1.9645    1.7739 N   0  0  0  0  0  0  0  0  0  0  0  0
    0.8288    1.0244    0.9641 N   0  0  0  0  0  4  0  0  0  0  0  0
    1.5461    0.0178    0.2530 C   0  0  0  0  0  0  0  0  0  0  0  0
    2.1268    0.2362   -0.9786 C   0  0  0  0  0  0  0  0  0  0  0  0
    2.8164   -0.7528   -1.6486 C   0  0  0  0  0  0  0  0  0  0  0  0
    2.9525   -2.0135   -1.1046 C   0  0  0  0  0  0  0  0  0  0  0  0
    3.6855   -3.1067   -1.7902 C   0  0  0  0  0  0  0  0  0  0  0  0
    2.3729   -2.2362    0.1277 C   0  0  0  0  0  0  0  0  0  0  0  0
    1.6836   -1.2431    0.7946 C   0  0  0  0  0  0  0  0  0  0  0  0
   -2.1052    0.9398   -0.8938 C   0  0  0  0  0  0  0  0  0  0  0  0
   -3.0422    0.1971   -1.5828 C   0  0  0  0  0  0  0  0  0  0  0  0
  1  2  1  0
  2  3  2  0
  3  4  1  0
  4  5  2  0
  5  6  1  0
  6  7  1  0
  7  8  2  0
  8  9  1  0
  8 10  1  0
 10 11  2  0
 11 12  1  0
 12 13  2  0
 13 14  1  0
 14 15  2  0
 15 16  1  0
 15 17  1  0
 17 18  2  0
  5 19  1  0
 19 20  2  0
 20  2  1  0
 11  6  1  0
 18 12  1  0
M  CHG  1  11   1
M  END
>  <zinc_id>  (1) 
ZINC000003198657

>  <smiles>  (1) 
Cc1ccc(-n2nc(O)n[n+]2-c2ccc(C)cc2)cc1

$$$$
