
     RDKit          3D

 19 21  0  0  0  0  0  0  0  0999 V2000
    5.4022   -0.8080   -0.4413 C   0  0  0  0  0  0  0  0  0  0  0  0
    5.5471    0.0004    0.8090 C   0  0  0  0  0  0  0  0  0  0  0  0
    4.6341   -0.5006    1.8699 C   0  0  0  0  0  0  0  0  0  0  0  0
    3.2202   -0.4071    1.3994 C   0  0  0  0  0  0  0  0  0  0  0  0
    2.7711    0.0524    0.2050 C   0  0  0  0  0  0  0  0  0  0  0  0
    1.4624    0.0585   -0.0357 C   0  0  0  0  0  0  0  0  0  0  0  0
    0.6358   -0.4059    0.9507 C   0  0  0  0  0  0  0  0  0  0  0  0
    1.7610   -0.8349    2.1882 S   0  0  0  0  0  0  0  0  0  0  0  0
   -0.7774   -0.4762    0.8573 N   0  0  0  0  0  0  0  0  0  0  0  0
   -1.3936    0.7988    0.1107 C   0  0  2  0  0  0  0  0  0  0  0  0
   -2.8161    0.2023   -0.2488 C   0  0  0  0  0  0  0  0  0  0  0  0
   -3.0586   -0.9970   -0.7535 C   0  0  0  0  0  0  0  0  0  0  0  0
   -4.3258   -1.4871   -1.0570 C   0  0  0  0  0  0  0  0  0  0  0  0
   -5.3764   -0.6545   -0.8082 C   0  0  0  0  0  0  0  0  0  0  0  0
   -5.1885    0.5986   -0.2863 C   0  0  0  0  0  0  0  0  0  0  0  0
   -3.8695    1.0352   -0.0001 C   0  0  0  0  0  0  0  0  0  0  0  0
   -0.6979    0.4006   -1.2768 N   0  0  0  0  0  0  0  0  0  0  0  0
    0.7193    0.4968   -1.2486 C   0  0  0  0  0  0  0  0  0  0  0  0
    1.3505    0.9466   -2.2337 O   0  0  0  0  0  0  0  0  0  0  0  0
  1  2  1  0
  2  3  1  0
  3  4  1  0
  4  5  2  0
  5  6  1  0
  6  7  2  0
  7  8  1  0
  7  9  1  0
  9 10  1  0
 10 11  1  6
 11 12  2  0
 12 13  1  0
 13 14  2  0
 14 15  1  0
 15 16  2  0
 10 17  1  0
 17 18  1  0
 18 19  2  0
  8  4  1  0
 16 11  1  0
 18  6  1  0
M  END
>  <zinc_id>  (1) 
ZINC000002737934

>  <smiles>  (1) 
CCCc1cc2c(s1)N[C@H](c1ccccc1)NC2=O

$$$$
