
     RDKit          3D

 22 24  0  0  0  0  0  0  0  0999 V2000
    5.6436    1.0751   -1.2401 O   0  0  0  0  0  0  0  0  0  0  0  0
    5.1330    0.3556   -0.3803 N   0  0  0  0  0  4  0  0  0  0  0  0
    5.8636   -0.0709    0.6831 O   0  0  0  0  0  1  0  0  0  0  0  0
    3.7829   -0.0231   -0.5071 C   0  0  0  0  0  0  0  0  0  0  0  0
    3.1427   -0.8313    0.4230 C   0  0  0  0  0  0  0  0  0  0  0  0
    1.8204   -1.2048    0.3029 C   0  0  0  0  0  0  0  0  0  0  0  0
    1.0787   -0.7754   -0.7711 C   0  0  0  0  0  0  0  0  0  0  0  0
   -0.3305   -1.1434   -0.9466 C   0  0  0  0  0  0  0  0  0  0  0  0
   -1.1267   -0.1080   -0.2727 N   0  0  0  0  0  4  0  0  0  0  0  0
   -1.0870   -0.1450    1.0998 C   0  0  0  0  0  0  0  0  0  0  0  0
   -1.9494   -1.0669    1.8421 C   0  0  0  0  0  0  0  0  0  0  0  0
   -2.5928   -2.0645    0.9734 C   0  0  0  0  0  0  0  0  0  0  0  0
   -2.6737   -1.8597   -0.4426 C   0  0  0  0  0  0  0  0  0  0  0  0
   -2.5678   -0.2830   -0.8372 C   0  0  1  0  0  0  0  0  0  0  0  0
   -3.4021    0.2909    0.5346 C   0  0  2  0  0  0  0  0  0  0  0  0
   -4.5936    0.9578   -0.3634 C   0  0  0  0  0  0  0  0  0  0  0  0
   -5.4659    1.5313    0.5717 O   0  0  0  0  0  0  0  0  0  0  0  0
   -2.5913    1.6770    0.6779 C   0  0  0  0  0  0  0  0  0  0  0  0
   -2.0133    2.0683   -0.6158 C   0  0  0  0  0  0  0  0  0  0  0  0
   -0.7750    1.2005   -0.8382 C   0  0  0  0  0  0  0  0  0  0  0  0
    1.6902    0.0258   -1.7057 C   0  0  0  0  0  0  0  0  0  0  0  0
    3.0141    0.3938   -1.5760 C   0  0  0  0  0  0  0  0  0  0  0  0
  1  2  2  0
  2  3  1  0
  2  4  1  0
  4  5  2  0
  5  6  1  0
  6  7  2  0
  7  8  1  0
  8  9  1  0
  9 10  1  0
 10 11  1  0
 11 12  1  0
 12 13  1  0
 14 13  1  1
 14 15  1  0
 15 16  1  6
 16 17  1  0
 15 18  1  0
 18 19  1  0
 19 20  1  0
  7 21  1  0
 21 22  2  0
 22  4  1  0
 14  9  1  0
 20  9  1  0
M  CHG  3   2   1   3  -1   9   1
M  END
>  <zinc_id>  (1) 
ZINC000002131344

>  <smiles>  (1) 
O=[N+]([O-])c1ccc(C[N+]23CCCC[C@H]2[C@H](CO)CCC3)cc1

$$$$
