
     RDKit          3D

 21 23  0  0  0  0  0  0  0  0999 V2000
   -4.0457    0.9446   -1.9933 C   0  0  0  0  0  0  0  0  0  0  0  0
   -2.7366    0.6224   -1.5585 O   0  0  0  0  0  0  0  0  0  0  0  0
   -2.4560   -0.4604   -0.7577 C   0  0  0  0  0  0  0  0  0  0  0  0
   -3.4700   -1.1313   -0.4520 O   0  0  0  0  0  0  0  0  0  0  0  0
   -1.0928   -0.8093   -0.2956 C   0  0  0  0  0  0  0  0  0  0  0  0
   -0.9922   -1.8669    0.4588 C   0  0  0  0  0  0  0  0  0  0  0  0
   -2.2004   -2.6012    0.7781 N   0  0  0  0  0  0  0  0  0  0  0  0
    0.2332   -2.3089    0.9628 O   0  0  0  0  0  0  0  0  0  0  0  0
    1.3343   -1.5786    0.6277 C   0  0  0  0  0  0  0  0  0  0  0  0
    1.3429   -0.5066   -0.1207 C   0  0  0  0  0  0  0  0  0  0  0  0
    2.6136    0.1727   -0.3945 C   0  0  0  0  0  0  0  0  0  0  0  0
    2.6121    1.4001   -0.3213 O   0  0  0  0  0  0  0  0  0  0  0  0
    3.7485   -0.6670   -0.7260 C   0  0  0  0  0  0  0  0  0  0  0  0
    3.7292   -1.9276    0.0696 C   0  0  0  0  0  0  0  0  0  0  0  0
    2.7039   -1.9879    1.1341 C   0  0  0  0  0  0  0  0  0  0  0  0
    0.0534    0.0862   -0.7322 C   0  0  2  0  0  0  0  0  0  0  0  0
   -0.1608    1.3449    0.1194 C   0  0  0  0  0  0  0  0  0  0  0  0
   -0.5520    1.6472    1.3227 C   0  0  0  0  0  0  0  0  0  0  0  0
   -0.6017    2.9273    1.6945 C   0  0  0  0  0  0  0  0  0  0  0  0
   -0.2293    3.8619    0.7643 C   0  0  0  0  0  0  0  0  0  0  0  0
    0.1666    2.8384   -0.5801 S   0  0  0  0  0  0  0  0  0  0  0  0
  1  2  1  0
  2  3  1  0
  3  4  2  0
  3  5  1  0
  5  6  2  0
  6  7  1  0
  6  8  1  0
  8  9  1  0
  9 10  2  0
 10 11  1  0
 11 12  2  0
 11 13  1  0
 13 14  1  0
 14 15  1  0
 10 16  1  0
 16 17  1  1
 17 18  2  0
 18 19  1  0
 19 20  2  0
 20 21  1  0
 16  5  1  0
 21 17  1  0
 15  9  1  0
M  END
>  <zinc_id>  (1) 
ZINC000000062231

>  <smiles>  (1) 
COC(=O)C1=C(N)OC2=C(C(=O)CCC2)[C@@H]1c1cccs1

$$$$
