
     RDKit          3D

 20 21  0  0  0  0  0  0  0  0999 V2000
   -1.5547    3.4847   -3.1202 C   0  0  0  0  0  0  0  0  0  0  0  0
   -1.5824    2.3405   -2.2634 N   0  0  0  0  0  0  0  0  0  0  0  0
   -0.4603    1.7901   -1.6437 C   0  0  0  0  0  0  0  0  0  0  0  0
    0.6630    2.2733   -1.8023 O   0  0  0  0  0  0  0  0  0  0  0  0
   -0.6336    0.6008   -0.7796 C   0  0  0  0  0  0  0  0  0  0  0  0
    0.5551    0.1404   -0.2155 N   0  0  0  0  0  0  0  0  0  0  0  0
    0.8978   -0.8837    0.6187 C   0  0  0  0  0  0  0  0  0  0  0  0
    0.0065   -1.6483    1.0318 O   0  0  0  0  0  0  0  0  0  0  0  0
    2.2666   -1.1754    1.0885 C   0  0  0  0  0  0  0  0  0  0  0  0
    3.2572   -0.3313    0.6335 C   0  0  0  0  0  0  0  0  0  0  0  0
    4.5739   -0.5140    1.0117 C   0  0  0  0  0  0  0  0  0  0  0  0
    4.8868   -1.5519    1.8509 C   0  0  0  0  0  0  0  0  0  0  0  0
    3.8919   -2.3894    2.3003 C   0  0  0  0  0  0  0  0  0  0  0  0
    2.5685   -2.2004    1.9160 C   0  0  0  0  0  0  0  0  0  0  0  0
   -1.8544    0.1272   -0.6460 C   0  0  0  0  0  0  0  0  0  0  0  0
   -2.9836    0.8341   -1.3848 C   0  0  0  0  0  0  0  0  0  0  0  0
   -4.0790    1.1479   -0.3879 C   0  0  0  0  0  0  0  0  0  0  0  0
   -4.6193   -0.1775    0.1093 C   0  0  0  0  0  0  0  0  0  0  0  0
   -3.5390   -0.8401    0.9063 C   0  0  0  0  0  0  0  0  0  0  0  0
   -2.2613   -1.0270    0.1490 C   0  0  0  0  0  0  0  0  0  0  0  0
  1  2  1  0
  2  3  1  0
  3  4  2  0
  3  5  1  0
  5  6  1  0
  6  7  1  0
  7  8  2  0
  7  9  1  0
  9 10  2  0
 10 11  1  0
 11 12  2  0
 12 13  1  0
 13 14  2  0
  5 15  2  3
 15 16  1  0
 16 17  1  0
 17 18  1  0
 18 19  1  0
 19 20  1  0
 14  9  1  0
 20 15  1  0
M  END
>  <zinc_id>  (1) 
ZINC000000445541

>  <smiles>  (1) 
CNC(=O)C(NC(=O)c1ccccc1)=C1CCCCC1

$$$$
