
     RDKit          3D

 20 22  0  0  0  0  0  0  0  0999 V2000
    6.0817   -0.0653   -0.3788 C   0  0  0  0  0  0  0  0  0  0  0  0
    4.9947   -0.7516    0.4116 C   0  0  0  0  0  0  0  0  0  0  0  0
    4.9838   -2.2342    0.2416 C   0  0  0  0  0  0  0  0  0  0  0  0
    3.6640   -0.1317    0.1952 C   0  0  0  0  0  0  0  0  0  0  0  0
    3.5097    1.1883   -0.1756 C   0  0  0  0  0  0  0  0  0  0  0  0
    2.2541    1.7456   -0.3722 C   0  0  0  0  0  0  0  0  0  0  0  0
    1.1117    0.9945   -0.2026 C   0  0  0  0  0  0  0  0  0  0  0  0
   -0.1660    1.2693   -0.3217 O   0  0  0  0  0  0  0  0  0  0  0  0
   -0.8762    0.1847   -0.0452 C   0  0  0  0  0  0  0  0  0  0  0  0
   -2.3033    0.0560   -0.0576 C   0  0  0  0  0  0  0  0  0  0  0  0
   -2.9127   -1.1305    0.2505 C   0  0  0  0  0  0  0  0  0  0  0  0
   -4.2672   -1.2800    0.2463 C   0  0  0  0  0  0  0  0  0  0  0  0
   -4.8511   -2.5421    0.5762 N   0  0  0  0  0  0  0  0  0  0  0  0
   -5.0361   -0.1803   -0.0841 C   0  0  0  0  0  0  0  0  0  0  0  0
   -4.4572    1.0310   -0.4001 C   0  0  0  0  0  0  0  0  0  0  0  0
   -3.0782    1.1343   -0.3823 C   0  0  0  0  0  0  0  0  0  0  0  0
   -2.3993    2.7072   -0.7951 Cl  0  0  0  0  0  0  0  0  0  0  0  0
   -0.0121   -0.7933    0.2547 N   0  0  0  0  0  0  0  0  0  0  0  0
    1.2480   -0.3281    0.1682 C   0  0  0  0  0  0  0  0  0  0  0  0
    2.5117   -0.8737    0.3619 C   0  0  0  0  0  0  0  0  0  0  0  0
  1  2  1  0
  2  3  1  0
  2  4  1  0
  4  5  2  0
  5  6  1  0
  6  7  2  0
  7  8  1  0
  8  9  1  0
  9 10  1  0
 10 11  2  0
 11 12  1  0
 12 13  1  0
 12 14  2  0
 14 15  1  0
 15 16  2  0
 16 17  1  0
  9 18  2  0
 18 19  1  0
 19 20  2  0
 20  4  1  0
 19  7  1  0
 16 10  1  0
M  END
>  <zinc_id>  (1) 
ZINC000000178800

>  <smiles>  (1) 
CC(C)c1ccc2oc(-c3cc(N)ccc3Cl)nc2c1

$$$$
