
     RDKit          3D

 19 20  0  0  0  0  0  0  0  0999 V2000
   -5.1100    0.2808    1.1365 C   0  0  0  0  0  0  0  0  0  0  0  0
   -4.5525    0.5133   -0.1433 O   0  0  0  0  0  0  0  0  0  0  0  0
   -3.2217    0.2126   -0.3437 C   0  0  0  0  0  0  0  0  0  0  0  0
   -2.4315   -0.3029    0.6612 C   0  0  0  0  0  0  0  0  0  0  0  0
   -1.0885   -0.6060    0.4577 C   0  0  0  0  0  0  0  0  0  0  0  0
   -0.2542   -1.1675    1.5559 C   0  0  0  0  0  0  0  0  0  0  0  0
    1.1091   -1.2108    1.0947 N   0  0  0  0  0  0  0  0  0  0  0  0
    1.7668   -0.0098    0.7649 C   0  0  0  0  0  0  0  0  0  0  0  0
    1.1029    1.1837    0.9092 C   0  0  0  0  0  0  0  0  0  0  0  0
    1.7303    2.3543    0.5983 C   0  0  0  0  0  0  0  0  0  0  0  0
    3.0336    2.3176    0.1399 C   0  0  0  0  0  0  0  0  0  0  0  0
    3.7159    1.1206   -0.0106 C   0  0  0  0  0  0  0  0  0  0  0  0
    3.0625   -0.0696    0.3110 C   0  0  0  0  0  0  0  0  0  0  0  0
    3.8327   -1.6606    0.1592 S   0  0  0  0  0  0  0  0  0  0  0  0
    5.5153   -1.5709   -0.4428 C   0  0  0  0  0  0  0  0  0  0  0  0
   -0.6016   -0.3585   -0.8084 C   0  0  0  0  0  0  0  0  0  0  0  0
   -1.3784    0.1567   -1.8241 C   0  0  0  0  0  0  0  0  0  0  0  0
   -2.7078    0.4534   -1.6119 C   0  0  0  0  0  0  0  0  0  0  0  0
   -3.5229    0.9718   -2.6037 O   0  0  0  0  0  0  0  0  0  0  0  0
  1  2  1  0
  2  3  1  0
  3  4  2  0
  4  5  1  0
  5  6  1  0
  6  7  1  0
  7  8  1  0
  8  9  2  0
  9 10  1  0
 10 11  2  0
 11 12  1  0
 12 13  2  0
 13 14  1  0
 14 15  1  0
  5 16  2  0
 16 17  1  0
 17 18  2  0
 18 19  1  0
 18  3  1  0
 13  8  1  0
M  END
>  <zinc_id>  (1) 
ZINC000000280240

>  <smiles>  (1) 
COc1cc(CNc2ccccc2SC)ccc1O

$$$$
