
     RDKit          3D

 20 23  0  0  0  0  0  0  0  0999 V2000
   -2.8610   -2.4835    0.1834 C   0  0  0  0  0  0  0  0  0  0  0  0
   -2.1290   -1.3192    0.3398 C   0  0  0  0  0  0  0  0  0  0  0  0
   -0.8239   -1.2296    0.0426 N   0  0  0  0  0  0  0  0  0  0  0  0
    0.0749   -0.2279    0.1108 C   0  0  0  0  0  0  0  0  0  0  0  0
   -0.1412    1.1117    0.5523 N   0  0  0  0  0  0  0  0  0  0  0  0
   -1.3876    1.6366    1.0100 C   0  0  0  0  0  0  0  0  0  0  0  0
   -2.3966    1.5186   -0.1114 C   0  0  0  0  0  0  0  0  0  0  0  0
   -3.4017    2.5829    0.2134 C   0  0  0  0  0  0  0  0  0  0  0  0
   -2.6547    3.6490    1.0031 C   0  0  0  0  0  0  0  0  0  0  0  0
   -1.2344    3.1555    1.1092 C   0  0  0  0  0  0  0  0  0  0  0  0
    1.3049   -0.6806   -0.3248 C   0  0  0  0  0  0  0  0  0  0  0  0
    2.5785    0.0943   -0.4151 C   0  0  0  0  0  0  0  0  0  0  0  0
    3.0096    0.8992    0.5606 C   0  0  0  0  0  0  0  0  0  0  0  0
    4.1811    1.5607    0.3826 C   0  0  0  0  0  0  0  0  0  0  0  0
    4.6804    1.0511   -1.1611 S   0  0  0  0  0  0  0  0  0  0  0  0
    3.3822    0.0120   -1.5313 C   0  0  0  0  0  0  0  0  0  0  0  0
    1.1069   -1.9706   -0.6499 N   0  0  0  0  0  0  0  0  0  0  0  0
   -0.1758   -2.3092   -0.4308 C   0  0  0  0  0  0  0  0  0  0  0  0
   -0.9006   -3.4888   -0.5934 C   0  0  0  0  0  0  0  0  0  0  0  0
   -2.2122   -3.5623   -0.2900 N   0  0  0  0  0  0  0  0  0  0  0  0
  1  2  2  0
  2  3  1  0
  3  4  1  0
  4  5  1  0
  5  6  1  0
  6  7  1  0
  7  8  1  0
  8  9  1  0
  9 10  1  0
  4 11  2  0
 11 12  1  0
 12 13  1  0
 13 14  2  0
 14 15  1  0
 15 16  1  0
 11 17  1  0
 17 18  2  0
 18 19  1  0
 19 20  2  0
 20  1  1  0
 18  3  1  0
 10  6  1  0
 16 12  2  0
M  END
>  <zinc_id>  (1) 
ZINC000003896497

>  <smiles>  (1) 
c1cn2c(NC3CCCC3)c(-c3ccsc3)nc2cn1

$$$$
