
     RDKit          3D

 17 18  0  0  0  0  0  0  0  0999 V2000
    0.0807    1.5382    0.3007 O   0  0  0  0  0  0  0  0  0  0  0  0
   -0.6559    0.5450    0.0280 C   0  0  0  0  0  0  0  0  0  0  0  0
   -0.1592   -0.5637   -0.6481 N   0  0  0  0  0  0  0  0  0  0  0  0
    1.0917   -0.7624   -1.0893 N   0  0  0  0  0  0  0  0  0  0  0  0
    2.3142   -0.1418   -0.8357 C   0  0  0  0  0  0  0  0  0  0  0  0
    3.1760    0.1940   -1.8029 C   0  0  0  0  0  0  0  0  0  0  0  0
    4.4626    0.8498   -1.4101 C   0  0  0  0  0  0  0  0  0  0  0  0
    5.0859   -0.0597   -0.3592 C   0  0  0  0  0  0  0  0  0  0  0  0
    4.1583   -0.3619    0.7720 C   0  0  0  0  0  0  0  0  0  0  0  0
    2.7353    0.1760    0.5430 C   0  0  0  0  0  0  0  0  0  0  0  0
   -2.0535    0.6188    0.4571 C   0  0  0  0  0  0  0  0  0  0  0  0
   -2.5819    1.7572    1.0184 C   0  0  0  0  0  0  0  0  0  0  0  0
   -3.9057    1.7994    1.4086 C   0  0  0  0  0  0  0  0  0  0  0  0
   -4.6927    0.6817    1.2223 C   0  0  0  0  0  0  0  0  0  0  0  0
   -4.1530   -0.4638    0.6528 C   0  0  0  0  0  0  0  0  0  0  0  0
   -2.8363   -0.5065    0.2664 C   0  0  0  0  0  0  0  0  0  0  0  0
   -2.0664   -2.0860   -0.5239 Br  0  0  0  0  0  0  0  0  0  0  0  0
  1  2  2  0
  2  3  1  0
  3  4  1  0
  4  5  1  0
  5  6  2  0
  6  7  1  0
  7  8  1  0
  8  9  1  0
  9 10  1  0
  2 11  1  0
 11 12  2  0
 12 13  1  0
 13 14  2  0
 14 15  1  0
 15 16  2  0
 16 17  1  0
 10  5  1  0
 16 11  1  0
M  END
>  <zinc_id>  (1) 
ZINC000003572257

>  <smiles>  (1) 
O=C(NNC1=CCCCC1)c1ccccc1Br

$$$$
