
     RDKit          3D

 26 29  0  0  0  0  0  0  0  0999 V2000
   -6.0686    3.0185    2.3143 C   0  0  0  0  0  0  0  0  0  0  0  0
   -6.4620    1.7600    1.8566 O   0  0  0  0  0  0  0  0  0  0  0  0
   -5.5193    0.9637    1.1916 C   0  0  0  0  0  0  0  0  0  0  0  0
   -4.2585    1.3799    0.9867 N   0  0  0  0  0  0  0  0  0  0  0  0
   -3.3268    0.6411    0.3517 C   0  0  0  0  0  0  0  0  0  0  0  0
   -3.6525   -0.6134   -0.1255 C   0  0  0  0  0  0  0  0  0  0  0  0
   -2.6596   -1.4423   -0.8214 C   0  0  0  0  0  0  0  0  0  0  0  0
   -3.0786   -2.5852   -1.2176 O   0  0  0  0  0  0  0  0  0  0  0  0
   -1.3401   -1.0058   -1.0353 N   0  0  0  0  0  0  0  0  0  0  0  0
   -0.3181   -1.7664   -1.7089 C   0  0  0  0  0  0  0  0  0  0  0  0
   -0.1701   -0.7203   -2.8150 C   0  0  0  0  0  0  0  0  0  0  0  0
    0.3297    0.5165   -1.8447 C   0  0  2  0  0  0  0  0  0  0  0  0
    1.5287   -0.2038   -1.1452 C   0  0  0  0  0  0  0  0  0  0  0  0
    2.5377    0.5610   -0.7150 N   0  0  0  0  0  0  0  0  0  0  0  0
    3.4865   -0.2414   -0.1347 C   0  0  0  0  0  0  0  0  0  0  0  0
    4.7475    0.1768    0.4652 C   0  0  0  0  0  0  0  0  0  0  0  0
    5.0841    1.5103    0.4842 C   0  0  0  0  0  0  0  0  0  0  0  0
    6.2821    1.9320    1.0512 C   0  0  0  0  0  0  0  0  0  0  0  0
    7.1627    1.0297    1.6080 C   0  0  0  0  0  0  0  0  0  0  0  0
    6.8147   -0.2659    1.5788 N   0  0  0  0  0  0  0  0  0  0  0  0
    5.6437   -0.7003    1.0271 C   0  0  0  0  0  0  0  0  0  0  0  0
    2.9834   -1.4802   -0.2502 N   0  0  0  0  0  0  0  0  0  0  0  0
    1.8154   -1.3861   -0.8613 O   0  0  0  0  0  0  0  0  0  0  0  0
   -0.7642    0.2017   -0.6586 C   0  0  0  0  0  0  0  0  0  0  0  0
   -4.9491   -1.0256    0.0925 C   0  0  0  0  0  0  0  0  0  0  0  0
   -5.8487   -0.2544    0.7323 N   0  0  0  0  0  0  0  0  0  0  0  0
  1  2  1  0
  2  3  1  0
  3  4  2  0
  4  5  1  0
  5  6  2  0
  6  7  1  0
  7  8  2  0
  7  9  1  0
  9 10  1  0
 10 11  1  0
 11 12  1  0
 12 13  1  1
 13 14  2  0
 14 15  1  0
 15 16  1  0
 16 17  2  0
 17 18  1  0
 18 19  2  0
 19 20  1  0
 20 21  2  0
 15 22  2  0
 22 23  1  0
 12 24  1  0
  6 25  1  0
 25 26  2  0
 26  3  1  0
 24  9  1  0
 23 13  1  0
 21 16  1  0
M  END
>  <zinc_id>  (1) 
ZINC000000019791

>  <smiles>  (1) 
COc1ncc(C(=O)N2CC[C@H](c3nc(-c4cccnc4)no3)C2)cn1

$$$$
