
     RDKit          3D

 20 21  0  0  0  0  0  0  0  0999 V2000
   -0.6896   -0.1817    1.9514 C   0  0  0  0  0  0  0  0  0  0  0  0
   -1.3060    0.2681    0.6778 C   0  0  0  0  0  0  0  0  0  0  0  0
   -0.5248    0.6492   -0.2576 N   0  0  0  0  0  0  0  0  0  0  0  0
    0.8780    0.6644   -0.1442 N   0  0  0  0  0  0  0  0  0  0  0  0
    1.6449   -0.4893    0.1308 C   0  0  0  0  0  0  0  0  0  0  0  0
    1.0366   -1.5691    0.2783 O   0  0  0  0  0  0  0  0  0  0  0  0
    3.0904   -0.3598    0.2269 C   0  0  0  0  0  0  0  0  0  0  0  0
    3.9421   -1.4221    0.4922 C   0  0  0  0  0  0  0  0  0  0  0  0
    5.2060   -0.8564    0.4933 C   0  0  0  0  0  0  0  0  0  0  0  0
    6.5112   -1.5238    0.7237 C   0  0  0  0  0  0  0  0  0  0  0  0
    5.0870    0.4270    0.2482 O   0  0  0  0  0  0  0  0  0  0  0  0
    3.8422    0.7758    0.0812 C   0  0  0  0  0  0  0  0  0  0  0  0
    3.2723    2.1212   -0.2126 C   0  0  0  0  0  0  0  0  0  0  0  0
   -2.7601    0.2486    0.5698 C   0  0  0  0  0  0  0  0  0  0  0  0
   -3.4125    0.6504   -0.5790 C   0  0  0  0  0  0  0  0  0  0  0  0
   -4.7899    0.6287   -0.6724 C   0  0  0  0  0  0  0  0  0  0  0  0
   -5.5732    0.1950    0.4039 C   0  0  0  0  0  0  0  0  0  0  0  0
   -6.9734    0.1521    0.3647 N   0  0  0  0  0  0  0  0  0  0  0  0
   -4.9303   -0.2042    1.5447 C   0  0  0  0  0  0  0  0  0  0  0  0
   -3.5508   -0.1743    1.6165 C   0  0  0  0  0  0  0  0  0  0  0  0
  1  2  1  0
  2  3  2  0
  3  4  1  0
  4  5  1  0
  5  6  2  0
  5  7  1  0
  7  8  1  0
  8  9  2  0
  9 10  1  0
  9 11  1  0
 11 12  1  0
 12 13  1  0
  2 14  1  0
 14 15  2  0
 15 16  1  0
 16 17  2  0
 17 18  1  0
 17 19  1  0
 19 20  2  0
 12  7  2  0
 20 14  1  0
M  END
>  <zinc_id>  (1) 
ZINC000001476740

>  <smiles>  (1) 
C/C(=N\NC(=O)c1cc(C)oc1C)c1ccc(N)cc1

$$$$
