
     RDKit          3D

 20 23  0  0  0  0  0  0  0  0999 V2000
   -2.8970   -2.1005   -0.3319 C   0  0  0  0  0  0  0  0  0  0  0  0
   -2.6674   -0.6640   -0.2898 C   0  0  2  0  0  0  0  0  0  0  0  0
   -2.0480   -0.0429   -1.5273 C   0  0  0  0  0  0  0  0  0  0  0  0
   -0.6612   -0.6198   -1.6155 C   0  0  0  0  0  0  0  0  0  0  0  0
    0.1094   -0.1982   -0.3831 C   0  0  0  0  0  0  0  0  0  0  0  0
   -0.5297    0.0124    0.7317 C   0  0  0  0  0  0  0  0  0  0  0  0
    0.1959    0.4233    1.9519 C   0  0  0  0  0  0  0  0  0  0  0  0
    1.6152    0.5871    1.8664 C   0  0  0  0  0  0  0  0  0  0  0  0
    2.2764    0.3306    0.5692 C   0  0  0  0  0  0  0  0  0  0  0  0
    3.6712    0.4907    0.4971 C   0  0  0  0  0  0  0  0  0  0  0  0
    4.3695    0.2754   -0.6631 C   0  0  0  0  0  0  0  0  0  0  0  0
    5.7608    0.4325   -0.7445 O   0  0  0  0  0  0  0  0  0  0  0  0
    3.6336   -0.1072   -1.7594 C   0  0  0  0  0  0  0  0  0  0  0  0
    2.2412   -0.2739   -1.7137 C   0  0  0  0  0  0  0  0  0  0  0  0
    1.5679   -0.0513   -0.5378 C   0  0  0  0  0  0  0  0  0  0  0  0
   -2.0131   -0.1205    0.8834 C   0  0  0  0  0  0  0  0  0  0  0  0
   -2.8543    0.1732    1.8527 C   0  0  0  0  0  0  0  0  0  0  0  0
   -4.2207   -0.1444    1.4399 C   0  0  0  0  0  0  0  0  0  0  0  0
   -4.0999    0.1220   -0.2040 C   0  0  1  0  0  0  0  0  0  0  0  0
   -3.4498    1.4755   -0.0223 O   0  0  0  0  0  0  0  0  0  0  0  0
  2  1  1  6
  2  3  1  0
  3  4  1  0
  4  5  1  0
  5  6  2  0
  6  7  1  0
  7  8  1  0
  8  9  1  0
  9 10  2  0
 10 11  1  0
 11 12  1  0
 11 13  2  0
 13 14  1  0
 14 15  2  0
  6 16  1  0
 16 17  2  0
 17 18  1  0
 18 19  1  0
 19 20  1  1
 16  2  1  0
 19  2  1  0
 15  5  1  0
 15  9  1  0
M  END
>  <zinc_id>  (1) 
ZINC000000026300

>  <smiles>  (1) 
C[C@]12CCC3=C(CCc4cc(O)ccc43)C1=CC[C@H]2O

$$$$
