
     RDKit          3D

 20 23  0  0  0  0  0  0  0  0999 V2000
    0.7842   -0.5315    2.6098 O   0  0  0  0  0  0  0  0  0  0  0  0
    0.3134   -0.2545    1.4792 C   0  0  0  0  0  0  0  0  0  0  0  0
   -1.0890   -0.3457    1.2239 N   0  0  0  0  0  0  0  0  0  0  0  0
   -1.4340   -0.9287   -0.2034 C   0  0  1  0  0  0  0  0  0  0  0  0
   -2.9512   -0.4539   -0.2509 C   0  0  0  0  0  0  0  0  0  0  0  0
   -3.7816   -1.4305   -0.6983 C   0  0  0  0  0  0  0  0  0  0  0  0
   -5.1448   -1.0966   -0.7726 C   0  0  0  0  0  0  0  0  0  0  0  0
   -5.5309    0.1383   -0.4050 N   0  0  0  0  0  0  0  0  0  0  0  0
   -4.6805    1.0658    0.0285 C   0  0  0  0  0  0  0  0  0  0  0  0
   -3.3258    0.7677    0.1138 C   0  0  0  0  0  0  0  0  0  0  0  0
   -0.8363    0.3229   -0.9449 N   0  0  0  0  0  0  0  0  0  0  0  0
    0.5765    0.4403   -0.7760 C   0  0  0  0  0  0  0  0  0  0  0  0
    1.8735    0.9145   -1.8290 S   0  0  0  0  0  0  0  0  0  0  0  0
    3.1739    0.7498   -0.7310 C   0  0  0  0  0  0  0  0  0  0  0  0
    2.5529    0.3303    0.4200 C   0  0  0  0  0  0  0  0  0  0  0  0
    1.2319    0.1747    0.3910 C   0  0  0  0  0  0  0  0  0  0  0  0
    3.5578    0.1228    1.5369 C   0  0  0  0  0  0  0  0  0  0  0  0
    4.6549   -0.7796    0.9907 C   0  0  0  0  0  0  0  0  0  0  0  0
    5.4135   -0.1564   -0.1318 C   0  0  0  0  0  0  0  0  0  0  0  0
    4.6418    0.9502   -0.7903 C   0  0  0  0  0  0  0  0  0  0  0  0
  1  2  2  0
  2  3  1  0
  3  4  1  0
  4  5  1  1
  5  6  2  0
  6  7  1  0
  7  8  2  0
  8  9  1  0
  9 10  2  0
  4 11  1  0
 11 12  1  0
 12 13  1  0
 13 14  1  0
 14 15  2  0
 15 16  1  0
 15 17  1  0
 17 18  1  0
 18 19  1  0
 19 20  1  0
 16  2  1  0
 10  5  1  0
 16 12  2  0
 20 14  1  0
M  END
>  <zinc_id>  (1) 
ZINC000000565716

>  <smiles>  (1) 
O=C1N[C@@H](c2ccncc2)Nc2sc3c(c21)CCCC3

$$$$
