
     RDKit          3D

 20 21  0  0  0  0  0  0  0  0999 V2000
    4.4855    2.4773   -0.6060 C   0  0  0  0  0  0  0  0  0  0  0  0
    4.4311    1.0711   -0.0610 C   0  0  0  0  0  0  0  0  0  0  0  0
    3.4825    1.0625    1.1217 C   0  0  0  0  0  0  0  0  0  0  0  0
    4.0435    0.0659   -1.1150 C   0  0  0  0  0  0  0  0  0  0  0  0
    4.0212   -1.3008   -0.4590 C   0  0  0  0  0  0  0  0  0  0  0  0
    3.0973   -1.3635    0.6005 O   0  0  0  0  0  0  0  0  0  0  0  0
    1.7560   -1.1247    0.3438 C   0  0  0  0  0  0  0  0  0  0  0  0
    1.2799   -0.8276   -0.9034 C   0  0  0  0  0  0  0  0  0  0  0  0
   -0.0545   -0.6006   -1.1016 C   0  0  0  0  0  0  0  0  0  0  0  0
   -0.9565   -0.6628   -0.0612 C   0  0  0  0  0  0  0  0  0  0  0  0
   -2.3785   -0.3983   -0.3951 C   0  0  1  0  0  0  0  0  0  0  0  0
   -2.9894   -1.6297   -1.0265 C   0  0  0  0  0  0  0  0  0  0  0  0
   -3.1965   -0.0415    0.8108 C   0  0  0  0  0  0  0  0  0  0  0  0
   -4.2127    0.8839    0.2422 C   0  0  0  0  0  0  0  0  0  0  0  0
   -5.3248    1.1239    0.7459 O   0  0  0  0  0  0  0  0  0  0  0  0
   -3.6908    1.4323   -0.9576 N   0  0  0  0  0  0  0  0  0  0  0  0
   -2.4675    0.7874   -1.2737 C   0  0  0  0  0  0  0  0  0  0  0  0
   -1.6465    1.1834   -2.1420 O   0  0  0  0  0  0  0  0  0  0  0  0
   -0.5140   -0.9558    1.1897 C   0  0  0  0  0  0  0  0  0  0  0  0
    0.8345   -1.1824    1.3745 C   0  0  0  0  0  0  0  0  0  0  0  0
  1  2  1  0
  2  3  1  0
  2  4  1  0
  4  5  1  0
  5  6  1  0
  6  7  1  0
  7  8  2  0
  8  9  1  0
  9 10  2  0
 10 11  1  0
 11 12  1  6
 11 13  1  0
 13 14  1  0
 14 15  2  0
 14 16  1  0
 16 17  1  0
 17 18  2  0
 10 19  1  0
 19 20  2  0
 20  7  1  0
 17 11  1  0
M  END
>  <zinc_id>  (1) 
ZINC000003185136

>  <smiles>  (1) 
CC(C)CCOc1ccc([C@@]2(C)CC(=O)NC2=O)cc1

$$$$
