
     RDKit          3D

 20 21  0  0  0  0  0  0  0  0999 V2000
   -5.4317    2.7000   -0.2322 C   0  0  0  0  0  0  0  0  0  0  0  0
   -4.4505    1.5776   -0.1148 C   0  0  0  0  0  0  0  0  0  0  0  0
   -3.0950    1.8171   -0.1920 C   0  0  0  0  0  0  0  0  0  0  0  0
   -2.1827    0.7882   -0.0848 C   0  0  0  0  0  0  0  0  0  0  0  0
   -2.5730   -0.5218    0.1033 C   0  0  0  0  0  0  0  0  0  0  0  0
   -1.6749   -1.6031    0.2180 N   0  0  0  0  0  0  0  0  0  0  0  0
   -0.2571   -1.4422    0.1488 C   0  0  0  0  0  0  0  0  0  0  0  0
    0.5652   -2.4997    0.2629 N   0  0  0  0  0  0  0  0  0  0  0  0
    1.9018   -2.3602    0.1993 C   0  0  0  0  0  0  0  0  0  0  0  0
    2.9967   -3.7199    0.3446 Cl  0  0  0  0  0  0  0  0  0  0  0  0
    2.4737   -1.1386    0.0165 N   0  0  0  0  0  0  0  0  0  0  0  0
    1.6500   -0.0786   -0.0979 C   0  0  0  0  0  0  0  0  0  0  0  0
    2.2536    1.1990   -0.2892 N   0  0  0  0  0  0  0  0  0  0  0  0
    3.6687    1.3995   -0.3636 C   0  0  0  0  0  0  0  0  0  0  0  0
    4.3416    0.6628   -1.4763 C   0  0  0  0  0  0  0  0  0  0  0  0
    4.3769    1.0551    0.9284 C   0  0  0  0  0  0  0  0  0  0  0  0
    3.9043    2.8944   -0.6067 C   0  0  0  0  0  0  0  0  0  0  0  0
    0.3180   -0.2387   -0.0317 N   0  0  0  0  0  0  0  0  0  0  0  0
   -3.9287   -0.7645    0.1809 C   0  0  0  0  0  0  0  0  0  0  0  0
   -4.8567    0.2735    0.0730 C   0  0  0  0  0  0  0  0  0  0  0  0
  1  2  1  0
  2  3  2  0
  3  4  1  0
  4  5  2  0
  5  6  1  0
  6  7  1  0
  7  8  2  0
  8  9  1  0
  9 10  1  0
  9 11  2  0
 11 12  1  0
 12 13  1  0
 13 14  1  0
 14 15  1  0
 14 16  1  0
 14 17  1  0
 12 18  2  0
  5 19  1  0
 19 20  2  0
 20  2  1  0
 18  7  1  0
M  END
>  <zinc_id>  (1) 
ZINC000000270572

>  <smiles>  (1) 
Cc1ccc(Nc2nc(Cl)nc(NC(C)(C)C)n2)cc1

$$$$
