
     RDKit          3D

 20 22  0  0  0  0  0  0  0  0999 V2000
    5.8993    0.9854   -0.2261 C   0  0  0  0  0  0  0  0  0  0  0  0
    4.5364    0.4452   -0.0244 C   0  0  0  0  0  0  0  0  0  0  0  0
    3.3992    1.0537   -0.5117 C   0  0  0  0  0  0  0  0  0  0  0  0
    2.1396    0.5285   -0.3091 C   0  0  0  0  0  0  0  0  0  0  0  0
    1.9764   -0.6530    0.4063 C   0  0  0  0  0  0  0  0  0  0  0  0
    0.7025   -1.2157    0.6307 N   0  0  0  0  0  0  0  0  0  0  0  0
   -0.4703   -0.5625    0.1123 C   0  0  0  0  0  0  0  0  0  0  0  0
   -1.6915   -1.0453    0.2923 N   0  0  0  0  0  0  0  0  0  0  0  0
   -2.8431   -0.5287   -0.1396 C   0  0  0  0  0  0  0  0  0  0  0  0
   -3.9763   -1.2799    0.2151 C   0  0  0  0  0  0  0  0  0  0  0  0
   -5.2512   -0.9100   -0.1379 C   0  0  0  0  0  0  0  0  0  0  0  0
   -5.4533    0.2379   -0.8680 C   0  0  0  0  0  0  0  0  0  0  0  0
   -4.3466    0.9680   -1.2122 C   0  0  0  0  0  0  0  0  0  0  0  0
   -3.0344    0.6038   -0.8591 C   0  0  0  0  0  0  0  0  0  0  0  0
   -1.9806    1.4188   -1.2610 C   0  0  0  0  0  0  0  0  0  0  0  0
   -2.2310    2.4561   -1.9274 O   0  0  0  0  0  0  0  0  0  0  0  0
   -0.4425    0.8866   -0.7820 S   0  0  0  0  0  0  0  0  0  0  0  0
    3.1047   -1.2527    0.8874 C   0  0  0  0  0  0  0  0  0  0  0  0
    4.3679   -0.7313    0.6875 C   0  0  0  0  0  0  0  0  0  0  0  0
    5.5949   -1.4049    1.2239 C   0  0  0  0  0  0  0  0  0  0  0  0
  1  2  1  0
  2  3  2  0
  3  4  1  0
  4  5  2  0
  5  6  1  0
  6  7  1  0
  7  8  2  0
  8  9  1  0
  9 10  2  0
 10 11  1  0
 11 12  2  0
 12 13  1  0
 13 14  2  0
 14 15  1  0
 15 16  2  0
 15 17  1  0
  5 18  1  0
 18 19  2  0
 19 20  1  0
 19  2  1  0
 17  7  1  0
 14  9  1  0
M  END
>  <zinc_id>  (1) 
ZINC000000192127

>  <smiles>  (1) 
Cc1ccc(Nc2nc3ccccc3c(=O)s2)cc1C

$$$$
