
     RDKit          3D

 19 20  0  0  0  0  0  0  0  0999 V2000
   -4.2714   -1.1031    0.0720 C   0  0  0  0  0  0  0  0  0  0  0  0
   -3.4552   -0.0818    0.8264 C   0  0  0  0  0  0  0  0  0  0  0  0
   -4.2386    1.2218    0.8074 C   0  0  0  0  0  0  0  0  0  0  0  0
   -3.3433   -0.5603    2.2699 C   0  0  0  0  0  0  0  0  0  0  0  0
   -2.1293    0.0802    0.2616 N   0  0  0  0  0  0  0  0  0  0  0  0
   -0.9774   -0.3126    0.8036 N   0  0  0  0  0  0  0  0  0  0  0  0
    0.0511   -0.0021    0.0077 C   0  0  0  0  0  0  0  0  0  0  0  0
    1.4642   -0.2791    0.2760 C   0  0  0  0  0  0  0  0  0  0  0  0
    2.2708   -0.7980   -0.7154 C   0  0  0  0  0  0  0  0  0  0  0  0
    3.6045   -1.0638   -0.4759 C   0  0  0  0  0  0  0  0  0  0  0  0
    4.1909   -0.8272    0.7504 C   0  0  0  0  0  0  0  0  0  0  0  0
    5.4996   -1.0821    1.0040 F   0  0  0  0  0  0  0  0  0  0  0  0
    3.3822   -0.3085    1.7391 C   0  0  0  0  0  0  0  0  0  0  0  0
    2.0488   -0.0420    1.5025 C   0  0  0  0  0  0  0  0  0  0  0  0
   -0.5054    0.6198   -1.0909 C   0  0  0  0  0  0  0  0  0  0  0  0
    0.2537    1.1151   -2.1936 C   0  0  0  0  0  0  0  0  0  0  0  0
    0.8623    1.5310   -3.0996 N   0  0  0  0  0  0  0  0  0  0  0  0
   -1.8663    0.6654   -0.9213 C   0  0  0  0  0  0  0  0  0  0  0  0
   -2.8410    1.2271   -1.8239 N   0  0  0  0  0  0  0  0  0  0  0  0
  1  2  1  0
  2  3  1  0
  2  4  1  0
  2  5  1  0
  5  6  1  0
  6  7  2  0
  7  8  1  0
  8  9  2  0
  9 10  1  0
 10 11  2  0
 11 12  1  0
 11 13  1  0
 13 14  2  0
  7 15  1  0
 15 16  1  0
 16 17  3  0
 15 18  2  0
 18 19  1  0
 18  5  1  0
 14  8  1  0
M  END
>  <zinc_id>  (1) 
ZINC000000167632

>  <smiles>  (1) 
CC(C)(C)n1nc(-c2ccc(F)cc2)c(C#N)c1N

$$$$
