
     RDKit          3D

 22 24  0  0  0  0  0  0  0  0999 V2000
    5.6173    1.2381    1.5495 C   0  0  0  0  0  0  0  0  0  0  0  0
    4.3877    0.7077    0.9057 C   0  0  0  0  0  0  0  0  0  0  0  0
    3.1506    0.9790    1.4529 C   0  0  0  0  0  0  0  0  0  0  0  0
    2.0057    0.4965    0.8706 C   0  0  0  0  0  0  0  0  0  0  0  0
    1.9826   -0.2611   -0.2512 C   0  0  0  0  0  0  0  0  0  0  0  0
    0.7801   -0.7892   -0.9097 C   0  0  0  0  0  0  0  0  0  0  0  0
    0.7971   -1.5359   -2.0581 N   0  0  0  0  0  0  0  0  0  0  0  0
   -0.4272   -1.8387   -2.3826 N   0  0  0  0  0  0  0  0  0  0  0  0
   -1.2670   -1.3178   -1.4864 C   0  0  0  0  0  0  0  0  0  0  0  0
   -0.5184   -0.6302   -0.5158 C   0  0  0  0  0  0  0  0  0  0  0  0
   -1.0590    0.0711    0.6362 C   0  0  0  0  0  0  0  0  0  0  0  0
   -0.4692    0.3142    1.7041 O   0  0  0  0  0  0  0  0  0  0  0  0
   -2.4518    0.5719    0.5847 C   0  0  0  0  0  0  0  0  0  0  0  0
   -2.7388    1.9147    0.6595 C   0  0  0  0  0  0  0  0  0  0  0  0
   -4.0251    2.4021    0.5980 C   0  0  0  0  0  0  0  0  0  0  0  0
   -5.0586    1.5032    0.4561 C   0  0  0  0  0  0  0  0  0  0  0  0
   -4.7881    0.1730    0.3814 C   0  0  0  0  0  0  0  0  0  0  0  0
   -3.4907   -0.3078    0.4445 C   0  0  0  0  0  0  0  0  0  0  0  0
   -3.3414   -1.7798    0.3689 C   0  0  0  0  0  0  0  0  0  0  0  0
    3.2336   -0.5368   -0.8067 C   0  0  0  0  0  0  0  0  0  0  0  0
    3.2718   -1.3149   -1.9660 O   0  0  0  0  0  0  0  0  0  0  0  0
    4.4088   -0.0596   -0.2356 C   0  0  0  0  0  0  0  0  0  0  0  0
  1  2  1  0
  2  3  2  0
  3  4  1  0
  4  5  2  0
  5  6  1  0
  6  7  2  0
  7  8  1  0
  8  9  1  0
  9 10  2  0
 10 11  1  0
 11 12  2  0
 11 13  1  0
 13 14  2  0
 14 15  1  0
 15 16  2  0
 16 17  1  0
 17 18  2  0
 18 19  1  0
  5 20  1  0
 20 21  1  0
 20 22  2  0
 22  2  1  0
 10  6  1  0
 18 13  1  0
M  END
>  <zinc_id>  (1) 
ZINC000001247845

>  <smiles>  (1) 
Cc1ccc(-c2n[nH]cc2C(=O)c2ccccc2C)c(O)c1

$$$$
