
     RDKit          3D

 21 22  0  0  0  0  0  0  0  0999 V2000
   -2.7743   -0.9987   -2.1329 C   0  0  0  0  0  0  0  0  0  0  0  0
   -3.3147   -0.4834   -0.8609 C   0  0  0  0  0  0  0  0  0  0  0  0
   -4.6843   -0.2692   -0.6868 C   0  0  0  0  0  0  0  0  0  0  0  0
   -5.1296    0.2230    0.5086 C   0  0  0  0  0  0  0  0  0  0  0  0
   -4.2842    0.5158    1.5489 C   0  0  0  0  0  0  0  0  0  0  0  0
   -4.7448    1.0152    2.7436 F   0  0  0  0  0  0  0  0  0  0  0  0
   -2.9154    0.3040    1.3826 C   0  0  0  0  0  0  0  0  0  0  0  0
   -2.4443   -0.1976    0.1707 C   0  0  0  0  0  0  0  0  0  0  0  0
   -1.0387   -0.4332   -0.0579 N   0  0  0  0  0  0  0  0  0  0  0  0
   -0.0484   -0.2589    0.9005 C   0  0  0  0  0  0  0  0  0  0  0  0
   -0.3857    0.1331    2.0448 O   0  0  0  0  0  0  0  0  0  0  0  0
    1.3563   -0.5082    0.6410 C   0  0  0  0  0  0  0  0  0  0  0  0
    1.9665   -1.6858    1.1013 C   0  0  0  0  0  0  0  0  0  0  0  0
    3.2769   -1.9929    0.8336 C   0  0  0  0  0  0  0  0  0  0  0  0
    4.0264   -1.0925    0.0738 C   0  0  0  0  0  0  0  0  0  0  0  0
    3.4791    0.0948   -0.4100 C   0  0  0  0  0  0  0  0  0  0  0  0
    4.3230    0.9560   -1.1587 N   0  0  0  0  0  4  0  0  0  0  0  0
    3.9294    1.6978   -2.0749 O   0  0  0  0  0  0  0  0  0  0  0  0
    5.6901    1.0249   -0.8942 O   0  0  0  0  0  1  0  0  0  0  0  0
    2.1616    0.3449   -0.1091 C   0  0  0  0  0  0  0  0  0  0  0  0
    1.5551    1.6108   -0.6037 C   0  0  0  0  0  0  0  0  0  0  0  0
  1  2  1  0
  2  3  2  0
  3  4  1  0
  4  5  2  0
  5  6  1  0
  5  7  1  0
  7  8  2  0
  8  9  1  0
  9 10  1  0
 10 11  2  0
 10 12  1  0
 12 13  2  0
 13 14  1  0
 14 15  2  0
 15 16  1  0
 16 17  1  0
 17 18  2  0
 17 19  1  0
 16 20  2  0
 20 21  1  0
  8  2  1  0
 20 12  1  0
M  CHG  2  17   1  19  -1
M  END
>  <zinc_id>  (1) 
ZINC000003566417

>  <smiles>  (1) 
Cc1ccc(F)cc1NC(=O)c1cccc([N+](=O)[O-])c1C

$$$$
