
     RDKit          3D

 20 22  0  0  0  0  0  0  0  0999 V2000
    3.2934    0.8827    1.4012 C   0  0  0  0  0  0  0  0  0  0  0  0
    4.5469    0.3038    0.7942 C   0  0  0  0  0  0  0  0  0  0  0  0
    5.2781    1.2923   -0.0598 C   0  0  0  0  0  0  0  0  0  0  0  0
    4.2487   -0.9857    0.1417 C   0  0  0  0  0  0  0  0  0  0  0  0
    3.2772   -1.0115   -0.9645 C   0  0  0  0  0  0  0  0  0  0  0  0
    1.9429   -0.5689   -0.6782 N   0  0  0  0  0  0  0  0  0  0  0  0
    1.5797    0.7036   -0.8576 C   0  0  0  0  0  0  0  0  0  0  0  0
    0.3147    1.1419   -0.6048 N   0  0  0  0  0  0  0  0  0  0  0  0
   -0.6043    0.2961   -0.1653 C   0  0  0  0  0  0  0  0  0  0  0  0
   -0.2600   -1.0227    0.0294 C   0  0  0  0  0  0  0  0  0  0  0  0
   -1.3725   -1.6649    0.4775 N   0  0  0  0  0  0  0  0  0  0  0  0
   -2.3948   -0.8069    0.5712 C   0  0  0  0  0  0  0  0  0  0  0  0
   -3.7252   -0.9051    0.9599 C   0  0  0  0  0  0  0  0  0  0  0  0
   -4.5414    0.2072    0.9408 C   0  0  0  0  0  0  0  0  0  0  0  0
   -4.0833    1.4460    0.5421 C   0  0  0  0  0  0  0  0  0  0  0  0
   -5.1504    2.8503    0.5281 Cl  0  0  0  0  0  0  0  0  0  0  0  0
   -2.7584    1.5436    0.1551 C   0  0  0  0  0  0  0  0  0  0  0  0
   -1.9377    0.4306    0.1731 C   0  0  0  0  0  0  0  0  0  0  0  0
    1.0369   -1.4537   -0.2338 C   0  0  0  0  0  0  0  0  0  0  0  0
    1.3096   -2.6786   -0.0400 O   0  0  0  0  0  0  0  0  0  0  0  0
  1  2  1  0
  2  3  1  0
  2  4  1  0
  4  5  1  0
  5  6  1  0
  6  7  1  0
  7  8  2  0
  8  9  1  0
  9 10  2  0
 10 11  1  0
 11 12  1  0
 12 13  2  0
 13 14  1  0
 14 15  2  0
 15 16  1  0
 15 17  1  0
 17 18  2  0
 10 19  1  0
 19 20  2  0
 19  6  1  0
 18  9  1  0
 18 12  1  0
M  END
>  <zinc_id>  (1) 
ZINC000002345165

>  <smiles>  (1) 
CC(C)CCn1cnc2c([nH]c3ccc(Cl)cc32)c1=O

$$$$
