
     RDKit          3D

 21 22  0  0  0  0  0  0  0  0999 V2000
   -6.9402   -0.6718   -0.4440 C   0  0  0  0  0  0  0  0  0  0  0  0
   -5.4732   -0.5200   -0.2331 C   0  0  0  0  0  0  0  0  0  0  0  0
   -4.6960   -0.1258   -1.2926 C   0  0  0  0  0  0  0  0  0  0  0  0
   -3.3404    0.0093   -1.1278 C   0  0  0  0  0  0  0  0  0  0  0  0
   -2.7111   -0.2313    0.0515 C   0  0  0  0  0  0  0  0  0  0  0  0
   -1.3358   -0.1304    0.2504 N   0  0  0  0  0  0  0  0  0  0  0  0
   -0.3856    0.1409   -0.7753 C   0  0  0  0  0  0  0  0  0  0  0  0
   -0.8945    0.3022   -1.9229 O   0  0  0  0  0  0  0  0  0  0  0  0
    1.0390    0.2284   -0.5044 C   0  0  0  0  0  0  0  0  0  0  0  0
    1.9180   -0.5443   -1.2073 C   0  0  0  0  0  0  0  0  0  0  0  0
    3.2658   -0.5019   -1.0094 C   0  0  0  0  0  0  0  0  0  0  0  0
    3.7853    0.3722   -0.0488 C   0  0  0  0  0  0  0  0  0  0  0  0
    5.2536    0.4187    0.1693 C   0  0  0  0  0  0  0  0  0  0  0  0
    5.6894    1.8670    0.2285 C   0  0  0  0  0  0  0  0  0  0  0  0
    5.5901   -0.3435    1.4098 C   0  0  0  0  0  0  0  0  0  0  0  0
    5.9429   -0.2084   -1.0330 C   0  0  0  0  0  0  0  0  0  0  0  0
    2.9228    1.1545    0.6639 C   0  0  0  0  0  0  0  0  0  0  0  0
    1.5676    1.0758    0.4356 C   0  0  0  0  0  0  0  0  0  0  0  0
   -3.4899   -0.6353    1.1452 C   0  0  0  0  0  0  0  0  0  0  0  0
   -2.8761   -0.8950    2.3811 O   0  0  0  0  0  0  0  0  0  0  0  0
   -4.8317   -0.7614    0.9530 C   0  0  0  0  0  0  0  0  0  0  0  0
  1  2  1  0
  2  3  2  0
  3  4  1  0
  4  5  2  0
  5  6  1  0
  6  7  1  0
  7  8  2  0
  7  9  1  0
  9 10  2  0
 10 11  1  0
 11 12  2  0
 12 13  1  0
 13 14  1  0
 13 15  1  0
 13 16  1  0
 12 17  1  0
 17 18  2  0
  5 19  1  0
 19 20  1  0
 19 21  2  0
 21  2  1  0
 18  9  1  0
M  END
>  <zinc_id>  (1) 
ZINC000000383790

>  <smiles>  (1) 
Cc1ccc(NC(=O)c2ccc(C(C)(C)C)cc2)c(O)c1

$$$$
