
     RDKit          3D

 19 20  0  0  0  0  0  0  0  0999 V2000
   -6.2829   -1.4889   -0.4192 C   0  0  0  0  0  0  0  0  0  0  0  0
   -4.8301   -1.2298   -0.3917 C   0  0  0  0  0  0  0  0  0  0  0  0
   -4.2654   -0.2080    0.3695 C   0  0  0  0  0  0  0  0  0  0  0  0
   -2.9105   -0.0275    0.3454 C   0  0  0  0  0  0  0  0  0  0  0  0
   -2.0945   -0.8319   -0.4132 C   0  0  0  0  0  0  0  0  0  0  0  0
   -0.6773   -0.6468   -0.4415 N   0  0  0  0  0  0  0  0  0  0  0  0
   -0.0657    0.3678    0.3080 C   0  0  0  0  0  0  0  0  0  0  0  0
   -0.7485    1.1333    1.0180 O   0  0  0  0  0  0  0  0  0  0  0  0
    1.3909    0.5861    0.3018 C   0  0  0  0  0  0  0  0  0  0  0  0
    2.3190   -0.1262   -0.3959 C   0  0  0  0  0  0  0  0  0  0  0  0
    3.5952    0.2188   -0.2761 C   0  0  0  0  0  0  0  0  0  0  0  0
    3.9015    1.2705    0.5422 C   0  0  0  0  0  0  0  0  0  0  0  0
    5.1890    1.8183    0.8259 N   0  0  0  0  0  4  0  0  0  0  0  0
    5.2725    2.7784    1.5978 O   0  0  0  0  0  0  0  0  0  0  0  0
    6.2708    1.2579    0.2324 O   0  0  0  0  0  1  0  0  0  0  0  0
    2.3547    1.7315    1.1134 S   0  0  0  0  0  0  0  0  0  0  0  0
   -2.6397   -1.8467   -1.1713 C   0  0  0  0  0  0  0  0  0  0  0  0
   -1.7756   -2.7291   -1.9995 C   0  0  0  0  0  0  0  0  0  0  0  0
   -4.0034   -2.0275   -1.1462 C   0  0  0  0  0  0  0  0  0  0  0  0
  1  2  1  0
  2  3  2  0
  3  4  1  0
  4  5  2  0
  5  6  1  0
  6  7  1  0
  7  8  2  0
  7  9  1  0
  9 10  2  0
 10 11  1  0
 11 12  2  0
 12 13  1  0
 13 14  2  0
 13 15  1  0
 12 16  1  0
  5 17  1  0
 17 18  1  0
 17 19  2  0
 19  2  1  0
 16  9  1  0
M  CHG  2  13   1  15  -1
M  END
>  <zinc_id>  (1) 
ZINC000000250236

>  <smiles>  (1) 
Cc1ccc(NC(=O)c2ccc([N+](=O)[O-])s2)c(C)c1

$$$$
