
     RDKit          3D

 20 22  0  0  0  0  0  0  0  0999 V2000
    3.2429   -2.4290    0.4989 C   0  0  0  0  0  0  0  0  0  0  0  0
    3.6212   -1.0326    0.7928 C   0  0  0  0  0  0  0  0  0  0  0  0
    2.7512   -0.3161    1.6810 N   0  0  0  0  0  0  0  0  0  0  0  0
    1.3482   -0.3501    1.3823 N   0  0  0  0  0  0  0  0  0  0  0  0
    0.8703    0.6063    0.4114 C   0  0  0  0  0  0  0  0  0  0  0  0
    1.6764    1.4221   -0.1078 O   0  0  0  0  0  0  0  0  0  0  0  0
   -0.5464    0.5913    0.0564 C   0  0  0  0  0  0  0  0  0  0  0  0
   -1.3780   -0.3660    0.6256 C   0  0  0  0  0  0  0  0  0  0  0  0
   -2.7088   -0.4448    0.2832 C   0  0  0  0  0  0  0  0  0  0  0  0
   -3.5533   -1.4024    0.8312 C   0  0  0  0  0  0  0  0  0  0  0  0
   -4.8850   -1.5045    0.4901 C   0  0  0  0  0  0  0  0  0  0  0  0
   -5.3489   -0.5768   -0.4509 C   0  0  0  0  0  0  0  0  0  0  0  0
   -4.5105    0.3782   -0.9988 C   0  0  0  0  0  0  0  0  0  0  0  0
   -3.1846    0.4568   -0.6412 C   0  0  0  0  0  0  0  0  0  0  0  0
   -2.3454    1.4205   -1.2121 C   0  0  0  0  0  0  0  0  0  0  0  0
   -1.0127    1.4989   -0.8684 C   0  0  0  0  0  0  0  0  0  0  0  0
   -0.2006    2.4625   -1.4437 O   0  0  0  0  0  0  0  0  0  0  0  0
    4.6786   -0.5059    0.2593 C   0  0  0  0  0  0  0  0  0  0  0  0
    5.8833   -0.5749   -0.6187 C   0  0  0  0  0  0  0  0  0  0  0  0
    5.6023    0.6663    0.0835 C   0  0  0  0  0  0  0  0  0  0  0  0
  1  2  1  0
  2  3  1  0
  3  4  1  0
  4  5  1  0
  5  6  2  0
  5  7  1  0
  7  8  2  0
  8  9  1  0
  9 10  2  0
 10 11  1  0
 11 12  2  0
 12 13  1  0
 13 14  2  0
 14 15  1  0
 15 16  2  0
 16 17  1  0
  2 18  2  3
 18 19  1  0
 19 20  1  0
 16  7  1  0
 20 18  1  0
 14  9  1  0
M  END
>  <zinc_id>  (1) 
ZINC000002746880

>  <smiles>  (1) 
CC(NNC(=O)c1cc2ccccc2cc1O)=C1CC1

$$$$
