
     RDKit          3D

 22 24  0  0  0  0  0  0  0  0999 V2000
   -0.7027    3.6995   -0.0231 C   0  0  0  0  0  0  0  0  0  0  0  0
   -1.6583    2.6608   -0.0663 O   0  0  0  0  0  0  0  0  0  0  0  0
   -1.2308    1.3549   -0.0142 C   0  0  0  0  0  0  0  0  0  0  0  0
    0.1310    1.1027    0.0791 C   0  0  0  0  0  0  0  0  0  0  0  0
    0.8130   -0.0616   -0.1387 C   0  0  0  0  0  0  0  0  0  0  0  0
    2.2550   -0.0581    0.1035 C   0  0  0  0  0  0  0  0  0  0  0  0
    3.0040    1.0807   -0.1048 C   0  0  0  0  0  0  0  0  0  0  0  0
    4.3657    1.0803    0.1243 C   0  0  0  0  0  0  0  0  0  0  0  0
    5.0425   -0.0371    0.5661 C   0  0  0  0  0  0  0  0  0  0  0  0
    6.4131   -0.0490    0.8007 O   0  0  0  0  0  0  0  0  0  0  0  0
    4.2816   -1.1782    0.7730 C   0  0  0  0  0  0  0  0  0  0  0  0
    2.9202   -1.1829    0.5453 C   0  0  0  0  0  0  0  0  0  0  0  0
    0.3058   -1.2695   -0.5683 C   0  0  0  0  0  0  0  0  0  0  0  0
   -1.0149   -1.6962   -0.3763 C   0  0  0  0  0  0  0  0  0  0  0  0
   -1.2048   -2.9456   -0.3317 O   0  0  0  0  0  0  0  0  0  0  0  0
   -2.1572   -0.9385   -0.2263 C   0  0  0  0  0  0  0  0  0  0  0  0
   -3.4413   -1.4358   -0.2126 C   0  0  0  0  0  0  0  0  0  0  0  0
   -3.7947   -2.8913   -0.3598 C   0  0  0  0  0  0  0  0  0  0  0  0
   -4.2580   -0.4340   -0.0525 O   0  0  0  0  0  0  0  0  0  0  0  0
   -3.6028    0.7072    0.0424 C   0  0  0  0  0  0  0  0  0  0  0  0
   -4.2103    2.0636    0.2318 C   0  0  0  0  0  0  0  0  0  0  0  0
   -2.2562    0.4280   -0.0641 C   0  0  0  0  0  0  0  0  0  0  0  0
  1  2  1  0
  2  3  1  0
  3  4  2  0
  4  5  1  0
  5  6  1  0
  6  7  2  0
  7  8  1  0
  8  9  2  0
  9 10  1  0
  9 11  1  0
 11 12  2  0
  5 13  2  0
 13 14  1  0
 14 15  2  0
 14 16  1  0
 16 17  2  0
 17 18  1  0
 17 19  1  0
 19 20  1  0
 20 21  1  0
 20 22  2  0
 22  3  1  0
 12  6  1  0
 22 16  1  0
M  END
>  <zinc_id>  (1) 
ZINC000000111980

>  <smiles>  (1) 
COc1cc(-c2ccc(O)cc2)cc(=O)c2c(C)oc(C)c12

$$$$
