
     RDKit          3D

 20 22  0  0  0  0  0  0  0  0999 V2000
   -4.0189   -2.0625    0.0456 O   0  0  0  0  0  0  0  0  0  0  0  0
   -4.0828   -0.8181    0.0447 C   0  0  0  0  0  0  0  0  0  0  0  0
   -2.8921   -0.0787   -0.0206 N   0  0  0  0  0  0  0  0  0  0  0  0
   -1.5981   -0.6103   -0.0870 C   0  0  0  0  0  0  0  0  0  0  0  0
   -1.3723   -2.2169   -0.0933 S   0  0  0  0  0  0  0  0  0  0  0  0
   -0.4859    0.2514   -0.1485 N   0  0  0  0  0  0  0  0  0  0  0  0
    0.8184   -0.2936   -0.2154 C   0  0  0  0  0  0  0  0  0  0  0  0
    1.0327   -1.6560   -0.2220 C   0  0  0  0  0  0  0  0  0  0  0  0
    2.3177   -2.1948   -0.2878 C   0  0  0  0  0  0  0  0  0  0  0  0
    3.3803   -1.3208   -0.3468 C   0  0  0  0  0  0  0  0  0  0  0  0
    3.1839    0.0626   -0.3412 C   0  0  0  0  0  0  0  0  0  0  0  0
    4.2589    0.9310   -0.4008 C   0  0  0  0  0  0  0  0  0  0  0  0
    5.5521    0.4077   -0.4671 O   0  0  0  0  0  0  0  0  0  0  0  0
    4.0399    2.2955   -0.3939 C   0  0  0  0  0  0  0  0  0  0  0  0
    2.7570    2.7799   -0.3280 C   0  0  0  0  0  0  0  0  0  0  0  0
    1.6885    1.9096   -0.2688 C   0  0  0  0  0  0  0  0  0  0  0  0
    1.8975    0.5597   -0.2751 C   0  0  0  0  0  0  0  0  0  0  0  0
   -5.4052   -0.1353    0.1121 C   0  0  0  0  0  0  0  0  0  0  0  0
   -5.7400    0.7953   -1.0998 C   0  0  0  0  0  0  0  0  0  0  0  0
   -5.3315    1.3944    0.2682 C   0  0  0  0  0  0  0  0  0  0  0  0
  1  2  2  0
  2  3  1  0
  3  4  1  0
  4  5  2  0
  4  6  1  0
  6  7  1  0
  7  8  2  0
  8  9  1  0
  9 10  2  0
 10 11  1  0
 11 12  2  0
 12 13  1  0
 12 14  1  0
 14 15  2  0
 15 16  1  0
 16 17  2  0
  2 18  1  0
 18 19  1  0
 19 20  1  0
 17  7  1  0
 20 18  1  0
 17 11  1  0
M  END
>  <zinc_id>  (1) 
ZINC000003305469

>  <smiles>  (1) 
O=C(NC(=S)Nc1cccc2c(O)cccc12)C1CC1

$$$$
