
     RDKit          3D

 22 24  0  0  0  0  0  0  0  0999 V2000
    4.9630   -2.0716    0.4954 C   0  0  0  0  0  0  0  0  0  0  0  0
    3.9211   -1.1316    0.0037 C   0  0  0  0  0  0  0  0  0  0  0  0
    2.5874   -1.2889    0.3800 C   0  0  0  0  0  0  0  0  0  0  0  0
    1.6037   -0.4378   -0.0574 C   0  0  0  0  0  0  0  0  0  0  0  0
    0.2035   -0.5745    0.3165 C   0  0  0  0  0  0  0  0  0  0  0  0
   -0.1817   -1.5028    1.0934 O   0  0  0  0  0  0  0  0  0  0  0  0
   -0.8064    0.3021   -0.1519 N   0  0  0  0  0  0  0  0  0  0  0  0
   -2.1733    0.1712    0.2110 C   0  0  0  0  0  0  0  0  0  0  0  0
   -2.5902   -0.8373    1.0574 C   0  0  0  0  0  0  0  0  0  0  0  0
   -3.9217   -0.9554    1.4028 C   0  0  0  0  0  0  0  0  0  0  0  0
   -4.8847   -0.0654    0.9114 C   0  0  0  0  0  0  0  0  0  0  0  0
   -4.4789    0.9262    0.0800 C   0  0  0  0  0  0  0  0  0  0  0  0
   -3.1281    1.0310   -0.2590 C   0  0  0  0  0  0  0  0  0  0  0  0
   -5.6621    1.7633   -0.3292 C   0  0  0  0  0  0  0  0  0  0  0  0
   -6.7269    1.4088    0.6891 C   0  0  0  0  0  0  0  0  0  0  0  0
   -6.3678    0.0009    1.1462 C   0  0  0  0  0  0  0  0  0  0  0  0
    1.9785    0.5922   -0.8919 C   0  0  0  0  0  0  0  0  0  0  0  0
    3.2914    0.7646   -1.2752 C   0  0  0  0  0  0  0  0  0  0  0  0
    4.2690   -0.0869   -0.8364 C   0  0  0  0  0  0  0  0  0  0  0  0
    5.6293    0.0295   -1.1879 N   0  0  0  0  0  4  0  0  0  0  0  0
    6.5040   -0.3229   -0.3930 O   0  0  0  0  0  0  0  0  0  0  0  0
    5.9707    0.5313   -2.4049 O   0  0  0  0  0  1  0  0  0  0  0  0
  1  2  1  0
  2  3  2  0
  3  4  1  0
  4  5  1  0
  5  6  2  0
  5  7  1  0
  7  8  1  0
  8  9  2  0
  9 10  1  0
 10 11  2  0
 11 12  1  0
 12 13  2  0
 12 14  1  0
 14 15  1  0
 15 16  1  0
  4 17  2  0
 17 18  1  0
 18 19  2  0
 19 20  1  0
 20 21  2  0
 20 22  1  0
 19  2  1  0
 13  8  1  0
 16 11  1  0
M  CHG  2  20   1  22  -1
M  END
>  <zinc_id>  (1) 
ZINC000000484452

>  <smiles>  (1) 
Cc1cc(C(=O)Nc2ccc3c(c2)CCC3)ccc1[N+](=O)[O-]

$$$$
