
     RDKit          3D

 19 20  0  0  0  0  0  0  0  0999 V2000
    0.5624   -0.5505    1.2897 O   0  0  0  0  0  0  0  0  0  0  0  0
    0.1873    0.0545    0.2462 C   0  0  0  0  0  0  0  0  0  0  0  0
    1.1699    0.1940   -0.8011 N   0  0  0  0  0  0  0  0  0  0  0  0
    2.4994   -0.3031   -0.7240 C   0  0  0  0  0  0  0  0  0  0  0  0
    3.5348    0.7683   -0.9376 C   0  0  0  0  0  0  0  0  0  0  0  0
    4.8056    0.1751   -1.5129 C   0  0  0  0  0  0  0  0  0  0  0  0
    4.9765   -1.2661   -1.0325 C   0  0  0  0  0  0  0  0  0  0  0  0
    5.2010   -1.3005    0.4449 C   0  0  0  0  0  0  0  0  0  0  0  0
    4.0788   -0.5534    1.1635 C   0  0  0  0  0  0  0  0  0  0  0  0
    2.7790   -1.0150    0.5705 C   0  0  0  0  0  0  0  0  0  0  0  0
   -1.1696    0.5743    0.1268 C   0  0  0  0  0  0  0  0  0  0  0  0
   -1.4278    1.8128   -0.3988 C   0  0  0  0  0  0  0  0  0  0  0  0
   -2.7404    2.2945   -0.5226 C   0  0  0  0  0  0  0  0  0  0  0  0
   -3.7909    1.5112   -0.1101 C   0  0  0  0  0  0  0  0  0  0  0  0
   -3.5460    0.2632    0.4195 C   0  0  0  0  0  0  0  0  0  0  0  0
   -4.6042   -0.5903    0.8524 N   0  0  0  0  0  4  0  0  0  0  0  0
   -4.3435   -1.7149    1.3058 O   0  0  0  0  0  0  0  0  0  0  0  0
   -5.9171   -0.1807    0.7693 O   0  0  0  0  0  1  0  0  0  0  0  0
   -2.2553   -0.1735    0.5258 C   0  0  0  0  0  0  0  0  0  0  0  0
  1  2  2  0
  2  3  1  0
  3  4  1  0
  4  5  1  0
  5  6  1  0
  6  7  1  0
  7  8  1  0
  8  9  1  0
  9 10  1  0
  2 11  1  0
 11 12  2  0
 12 13  1  0
 13 14  2  0
 14 15  1  0
 15 16  1  0
 16 17  2  0
 16 18  1  0
 15 19  2  0
 10  4  1  0
 19 11  1  0
M  CHG  2  16   1  18  -1
M  END
>  <zinc_id>  (1) 
ZINC000000271435

>  <smiles>  (1) 
O=C(NC1CCCCCC1)c1cccc([N+](=O)[O-])c1

$$$$
