
     RDKit          3D

 22 24  0  0  0  0  0  0  0  0999 V2000
   -4.1983    1.5006   -0.7405 C   0  0  0  0  0  0  0  0  0  0  0  0
   -3.3950    1.2942    0.4016 O   0  0  0  0  0  0  0  0  0  0  0  0
   -2.0971    0.8422    0.2735 C   0  0  0  0  0  0  0  0  0  0  0  0
   -1.0838    1.7602    0.1436 C   0  0  0  0  0  0  0  0  0  0  0  0
   -1.0345    3.0700    0.1076 O   0  0  0  0  0  0  0  0  0  0  0  0
    0.1965    3.4944   -0.0340 C   0  0  0  0  0  0  0  0  0  0  0  0
    1.0406    2.3923   -0.0983 C   0  0  0  0  0  0  0  0  0  0  0  0
    0.2276    1.2822    0.0147 C   0  0  0  0  0  0  0  0  0  0  0  0
    0.4895   -0.0639    0.0184 C   0  0  0  0  0  0  0  0  0  0  0  0
    1.8351   -0.5724   -0.1134 C   0  0  0  0  0  0  0  0  0  0  0  0
    2.8236    0.2616   -0.2387 C   0  0  0  0  0  0  0  0  0  0  0  0
    4.2407   -0.0650   -0.3824 C   0  0  0  0  0  0  0  0  0  0  0  0
    4.4553   -1.4554    0.2265 C   0  0  0  0  0  0  0  0  0  0  0  0
    4.7429   -0.0018   -1.7937 C   0  0  0  0  0  0  0  0  0  0  0  0
    4.9559    0.8238    0.4494 O   0  0  0  0  0  0  0  0  0  0  0  0
   -0.5586   -0.9384    0.1510 C   0  0  0  0  0  0  0  0  0  0  0  0
   -0.3208   -2.2949    0.1575 C   0  0  0  0  0  0  0  0  0  0  0  0
   -1.3659   -3.2166    0.2909 C   0  0  0  0  0  0  0  0  0  0  0  0
   -2.6364   -2.6923    0.4143 C   0  0  0  0  0  0  0  0  0  0  0  0
   -3.6095   -3.5131    0.5377 O   0  0  0  0  0  0  0  0  0  0  0  0
   -2.8387   -1.3965    0.4055 O   0  0  0  0  0  0  0  0  0  0  0  0
   -1.8694   -0.5112    0.2810 C   0  0  0  0  0  0  0  0  0  0  0  0
  1  2  1  0
  2  3  1  0
  3  4  2  0
  4  5  1  0
  5  6  1  0
  6  7  2  0
  7  8  1  0
  8  9  2  0
  9 10  1  0
 10 11  2  0
 11 12  1  0
 12 13  1  0
 12 14  1  0
 12 15  1  0
  9 16  1  0
 16 17  1  0
 17 18  2  0
 18 19  1  0
 19 20  2  0
 19 21  1  0
 21 22  1  0
 22  3  1  0
  8  4  1  0
 22 16  2  0
M  END
>  <zinc_id>  (1) 
ZINC000003852213

>  <smiles>  (1) 
COc1c2occc2c(/C=C/C(C)(C)O)c2ccc(=O)oc12

$$$$
