
     RDKit          3D

 19 22  0  0  0  0  0  0  0  0999 V2000
   -1.7195   -0.3522    2.0085 C   0  0  0  0  0  0  0  0  0  0  0  0
   -2.2825    0.3115    0.8623 C   0  0  1  0  0  0  0  0  0  0  0  0
   -1.8553    1.6479    0.4881 C   0  0  0  0  0  0  0  0  0  0  0  0
   -0.7853    1.5907   -0.6220 C   0  0  0  0  0  0  0  0  0  0  0  0
    0.1413    0.4014   -0.3013 C   0  0  0  0  0  0  0  0  0  0  0  0
   -0.4939   -0.8045   -0.1976 C   0  0  0  0  0  0  0  0  0  0  0  0
    0.6786   -1.8666    0.1434 S   0  0  0  0  0  0  0  0  0  0  0  0
    2.0520   -0.8395    0.1737 C   0  0  0  0  0  0  0  0  0  0  0  0
    3.4221   -0.9438    0.3870 C   0  0  0  0  0  0  0  0  0  0  0  0
    4.2799    0.1346    0.3353 C   0  0  0  0  0  0  0  0  0  0  0  0
    5.6259    0.0267    0.5456 O   0  0  0  0  0  0  0  0  0  0  0  0
    3.6964    1.3447    0.0557 C   0  0  0  0  0  0  0  0  0  0  0  0
    2.3653    1.5006   -0.1603 C   0  0  0  0  0  0  0  0  0  0  0  0
    1.5035    0.3803   -0.1024 C   0  0  0  0  0  0  0  0  0  0  0  0
   -2.0390   -0.5485   -0.4817 C   0  0  1  0  0  0  0  0  0  0  0  0
   -2.6314   -1.8465    0.2953 C   0  0  0  0  0  0  0  0  0  0  0  0
   -4.0009   -1.2763    0.1739 C   0  0  0  0  0  0  0  0  0  0  0  0
   -3.9037    0.1950    0.8877 C   0  0  2  0  0  0  0  0  0  0  0  0
   -4.0536    0.9447   -0.4176 O   0  0  0  0  0  0  0  0  0  0  0  0
  2  1  1  1
  2  3  1  0
  3  4  1  0
  4  5  1  0
  5  6  2  0
  6  7  1  0
  7  8  1  0
  8  9  2  0
  9 10  1  0
 10 11  1  0
 10 12  2  0
 12 13  1  0
 13 14  2  0
  6 15  1  0
 15 16  1  1
 16 17  1  0
 17 18  1  0
 18 19  1  6
 15  2  1  0
 18  2  1  0
 14  5  1  0
 14  8  1  0
M  END
>  <zinc_id>  (1) 
ZINC000000007287

>  <smiles>  (1) 
C[C@@]12CCc3c(sc4cc(O)ccc34)[C@H]1CC[C@@H]2O

$$$$
