
     RDKit          3D

 20 21  0  0  0  0  0  0  0  0999 V2000
    4.5615    2.6865   -0.5441 C   0  0  0  0  0  0  0  0  0  0  0  0
    4.3130    1.3353   -0.7789 O   0  0  0  0  0  0  0  0  0  0  0  0
    3.1616    0.7184   -0.2619 C   0  0  0  0  0  0  0  0  0  0  0  0
    2.2760    1.4743    0.4856 C   0  0  0  0  0  0  0  0  0  0  0  0
    1.1255    0.9163    1.0188 C   0  0  0  0  0  0  0  0  0  0  0  0
    0.8672   -0.4180    0.7947 C   0  0  0  0  0  0  0  0  0  0  0  0
   -0.6282   -1.0782    1.5062 S   0  0  0  0  0  0  0  0  0  0  0  0
   -2.0144   -0.9327    0.3938 C   0  0  0  0  0  0  0  0  0  0  0  0
   -2.3114   -1.9321   -0.4984 C   0  0  0  0  0  0  0  0  0  0  0  0
   -3.3870   -1.7774   -1.3351 C   0  0  0  0  0  0  0  0  0  0  0  0
   -4.1521   -0.6338   -1.2745 C   0  0  0  0  0  0  0  0  0  0  0  0
   -3.8373    0.3563   -0.3727 C   0  0  0  0  0  0  0  0  0  0  0  0
   -4.6297    1.5470   -0.3059 N   0  0  0  0  0  0  0  0  0  0  0  0
   -2.7761    0.2259    0.4669 C   0  0  0  0  0  0  0  0  0  0  0  0
   -2.4237    1.2550    1.4262 C   0  0  0  0  0  0  0  0  0  0  0  0
   -2.1585    2.0762    2.1804 N   0  0  0  0  0  0  0  0  0  0  0  0
    1.7482   -1.1653    0.0525 C   0  0  0  0  0  0  0  0  0  0  0  0
    2.9081   -0.6153   -0.4886 C   0  0  0  0  0  0  0  0  0  0  0  0
    3.8202   -1.3336   -1.2414 O   0  0  0  0  0  0  0  0  0  0  0  0
    3.5372   -2.7047   -1.4610 C   0  0  0  0  0  0  0  0  0  0  0  0
  1  2  1  0
  2  3  1  0
  3  4  2  0
  4  5  1  0
  5  6  2  0
  6  7  1  0
  7  8  1  0
  8  9  2  0
  9 10  1  0
 10 11  2  0
 11 12  1  0
 12 13  1  0
 12 14  2  0
 14 15  1  0
 15 16  3  0
  6 17  1  0
 17 18  2  0
 18 19  1  0
 19 20  1  0
 18  3  1  0
 14  8  1  0
M  END
>  <zinc_id>  (1) 
ZINC000000020469

>  <smiles>  (1) 
COc1ccc(Sc2cccc(N)c2C#N)cc1OC

$$$$
