
     RDKit          3D

 20 23  0  0  0  0  0  0  0  0999 V2000
    0.6146    1.7236   -0.3018 O   0  0  0  0  0  0  0  0  0  0  0  0
    0.1677    0.5786   -0.0523 C   0  0  0  0  0  0  0  0  0  0  0  0
    1.1060   -0.4191    0.3206 N   0  0  0  0  0  0  0  0  0  0  0  0
    2.5011   -0.1701    0.4183 C   0  0  0  0  0  0  0  0  0  0  0  0
    2.9644    1.0662    0.1467 N   0  0  0  0  0  0  0  0  0  0  0  0
    4.2613    1.3901    0.2131 C   0  0  0  0  0  0  0  0  0  0  0  0
    5.1470    0.3797    0.5832 C   0  0  0  0  0  0  0  0  0  0  0  0
    4.6885   -0.9007    0.8670 C   0  0  0  0  0  0  0  0  0  0  0  0
    3.3409   -1.1794    0.7827 C   0  0  0  0  0  0  0  0  0  0  0  0
    2.8101   -2.4403    1.0529 O   0  0  0  0  0  0  0  0  0  0  0  0
   -1.2664    0.3236   -0.1530 C   0  0  0  0  0  0  0  0  0  0  0  0
   -1.4777   -0.7619   -1.1938 C   0  0  0  0  0  0  0  0  0  0  0  0
   -2.9456   -1.0671   -1.3882 C   0  0  0  0  0  0  0  0  0  0  0  0
   -3.5566   -1.5745   -0.0790 C   0  0  0  0  0  0  0  0  0  0  0  0
   -3.3028   -0.4920    0.9580 C   0  0  0  0  0  0  0  0  0  0  0  0
   -4.1050    0.7219    0.5239 C   0  0  0  0  0  0  0  0  0  0  0  0
   -3.4598    1.2294   -0.7555 C   0  0  0  0  0  0  0  0  0  0  0  0
   -3.6228    0.2014   -1.8544 C   0  0  0  0  0  0  0  0  0  0  0  0
   -2.0117    1.5828   -0.5133 C   0  0  0  0  0  0  0  0  0  0  0  0
   -1.8531   -0.1922    1.1423 C   0  0  0  0  0  0  0  0  0  0  0  0
  1  2  2  0
  2  3  1  0
  3  4  1  0
  4  5  2  0
  5  6  1  0
  6  7  2  0
  7  8  1  0
  8  9  2  0
  9 10  1  0
  2 11  1  0
 11 12  1  0
 12 13  1  0
 13 14  1  0
 14 15  1  0
 15 16  1  0
 16 17  1  0
 17 18  1  0
 17 19  1  0
 15 20  1  0
  9  4  1  0
 19 11  1  0
 20 11  1  0
 18 13  1  0
M  END
>  <zinc_id>  (1) 
ZINC000003905729

>  <smiles>  (1) 
O=C(Nc1ncccc1O)C12CC3CC(CC(C3)C1)C2

$$$$
