
     RDKit          3D

 21 23  0  0  0  0  0  0  0  0999 V2000
   -5.4479    3.1614    0.5431 C   0  0  0  0  0  0  0  0  0  0  0  0
   -4.1765    2.5377    0.4435 O   0  0  0  0  0  0  0  0  0  0  0  0
   -4.0136    1.1878    0.2084 C   0  0  0  0  0  0  0  0  0  0  0  0
   -5.0145    0.4787    0.0767 O   0  0  0  0  0  0  0  0  0  0  0  0
   -2.6599    0.6437    0.1233 C   0  0  0  0  0  0  0  0  0  0  0  0
   -1.5034    1.2866    0.2445 N   0  0  0  0  0  0  0  0  0  0  0  0
   -0.4785    0.4186    0.1003 C   0  0  0  0  0  0  0  0  0  0  0  0
   -0.9712   -0.8324   -0.1224 C   0  0  0  0  0  0  0  0  0  0  0  0
   -2.3442   -0.7010   -0.1097 C   0  0  0  0  0  0  0  0  0  0  0  0
   -3.3066   -1.7987   -0.3091 C   0  0  0  0  0  0  0  0  0  0  0  0
   -0.0689   -1.9599   -0.3129 C   0  0  0  0  0  0  0  0  0  0  0  0
   -0.5263   -3.0944   -0.6149 O   0  0  0  0  0  0  0  0  0  0  0  0
    1.4031   -1.7212   -0.1382 C   0  0  0  0  0  0  0  0  0  0  0  0
    1.5874   -0.3536   -1.0460 C   0  0  2  0  0  0  0  0  0  0  0  0
    3.1328   -0.1533   -0.6372 C   0  0  0  0  0  0  0  0  0  0  0  0
    3.4888   -0.2172    0.6430 C   0  0  0  0  0  0  0  0  0  0  0  0
    4.8359   -0.0356    0.9338 C   0  0  0  0  0  0  0  0  0  0  0  0
    5.7685    0.2008   -0.0553 C   0  0  0  0  0  0  0  0  0  0  0  0
    5.3164    0.2521   -1.3601 C   0  0  0  0  0  0  0  0  0  0  0  0
    3.9876    0.0775   -1.6960 C   0  0  0  0  0  0  0  0  0  0  0  0
    0.9910    0.6226    0.1471 C   0  0  0  0  0  0  0  0  0  0  0  0
  1  2  1  0
  2  3  1  0
  3  4  2  0
  3  5  1  0
  5  6  1  0
  6  7  1  0
  7  8  2  0
  8  9  1  0
  9 10  1  0
  8 11  1  0
 11 12  2  0
 11 13  1  0
 13 14  1  0
 14 15  1  1
 15 16  2  0
 16 17  1  0
 17 18  2  0
 18 19  1  0
 19 20  2  0
 14 21  1  0
  9  5  2  0
 20 15  1  0
 21  7  1  0
M  END
>  <zinc_id>  (1) 
ZINC000000427639

>  <smiles>  (1) 
COC(=O)c1[nH]c2c(c1C)C(=O)C[C@H](c1ccccc1)C2

$$$$
