
     RDKit          3D

 18 20  0  0  0  0  0  0  0  0999 V2000
    6.2028    0.4023    0.6202 C   0  0  0  0  0  0  0  0  0  0  0  0
    5.5386   -0.4926   -0.2415 O   0  0  0  0  0  0  0  0  0  0  0  0
    4.1680   -0.4622   -0.3266 C   0  0  0  0  0  0  0  0  0  0  0  0
    3.4631    0.4400    0.4292 C   0  0  0  0  0  0  0  0  0  0  0  0
    2.0756    0.5072    0.3759 C   0  0  0  0  0  0  0  0  0  0  0  0
    1.4007   -0.3474   -0.4503 C   0  0  0  0  0  0  0  0  0  0  0  0
   -0.0452   -0.2938   -0.5207 C   0  0  0  0  0  0  0  0  0  0  0  0
   -0.6304   -1.1498   -1.3409 C   0  0  0  0  0  0  0  0  0  0  0  0
   -2.4051   -1.1132   -1.4536 S   0  0  0  0  0  0  0  0  0  0  0  0
   -2.9694    0.1620   -0.3496 C   0  0  0  0  0  0  0  0  0  0  0  0
   -4.3219    0.4886   -0.1668 N   0  0  0  0  0  0  0  0  0  0  0  0
   -4.7411    1.0009    1.1230 C   0  0  0  0  0  0  0  0  0  0  0  0
   -4.5492    0.1625    2.3460 C   0  0  0  0  0  0  0  0  0  0  0  0
   -5.9203    0.1686    1.7117 C   0  0  0  0  0  0  0  0  0  0  0  0
   -2.1010    0.8283    0.3228 N   0  0  0  0  0  0  0  0  0  0  0  0
   -0.7370    0.6530    0.2766 N   0  0  0  0  0  0  0  0  0  0  0  0
    2.0963   -1.2501   -1.2074 C   0  0  0  0  0  0  0  0  0  0  0  0
    3.4755   -1.3100   -1.1482 C   0  0  0  0  0  0  0  0  0  0  0  0
  1  2  1  0
  2  3  1  0
  3  4  2  0
  4  5  1  0
  5  6  2  0
  6  7  1  0
  7  8  2  0
  8  9  1  0
  9 10  1  0
 10 11  1  0
 11 12  1  0
 12 13  1  0
 13 14  1  0
 10 15  2  0
 15 16  1  0
  6 17  1  0
 17 18  2  0
 18  3  1  0
 16  7  1  0
 14 12  1  0
M  END
>  <zinc_id>  (1) 
ZINC000003250410

>  <smiles>  (1) 
COc1ccc(C2=CSC(NC3CC3)=NN2)cc1

$$$$
