
     RDKit          3D

 31 34  0  0  0  0  0  0  0  0999 V2000
    0.5726    1.2831    1.4088 O   0  0  0  0  0  0  0  0  0  0  0  0
   -0.3141    0.7239    0.6794 C   0  0  0  0  0  0  0  0  0  0  0  0
    0.0957    0.4066   -0.7110 C   0  0  0  0  0  0  0  0  0  0  0  0
    1.4750    0.8087   -0.9095 N   0  0  0  0  0  0  0  0  0  0  0  0
    2.4869   -0.0085   -0.6724 N   0  0  0  0  0  0  0  0  0  0  0  0
    3.7870    0.3272   -0.8340 C   0  0  0  0  0  0  0  0  0  0  0  0
    4.8341   -0.6529   -0.5472 C   0  0  0  0  0  0  0  0  0  0  0  0
    4.4782   -1.9539   -0.1583 C   0  0  0  0  0  0  0  0  0  0  0  0
    5.4180   -2.9135    0.1368 C   0  0  0  0  0  0  0  0  0  0  0  0
    6.7475   -2.5698    0.0443 C   0  0  0  0  0  0  0  0  0  0  0  0
    7.1290   -1.2959   -0.3359 C   0  0  0  0  0  0  0  0  0  0  0  0
    8.8262   -0.8529   -0.4476 Cl  0  0  0  0  0  0  0  0  0  0  0  0
    6.1526   -0.3386   -0.6312 C   0  0  0  0  0  0  0  0  0  0  0  0
    4.0318    1.5982   -1.2716 C   0  0  0  0  0  0  0  0  0  0  0  0
    3.0110    2.4825   -1.5315 C   0  0  0  0  0  0  0  0  0  0  0  0
    1.7165    2.0585   -1.3400 C   0  0  0  0  0  0  0  0  0  0  0  0
    0.8098    2.8771   -1.5828 O   0  0  0  0  0  0  0  0  0  0  0  0
   -1.6033    0.4340    1.1889 N   0  0  0  0  0  0  0  0  0  0  0  0
   -1.9621    0.7605    2.5006 C   0  0  0  0  0  0  0  0  0  0  0  0
   -2.4918   -0.4059    3.2986 C   0  0  0  0  0  0  0  0  0  0  0  0
   -3.3743   -1.2110    2.3694 C   0  0  0  0  0  0  0  0  0  0  0  0
   -3.8224   -0.3362    1.2522 C   0  0  0  0  0  0  0  0  0  0  0  0
   -2.5592   -0.2638    0.1880 C   0  0  1  0  0  0  0  0  0  0  0  0
   -3.0728    1.1295   -0.4789 C   0  0  0  0  0  0  0  0  0  0  0  0
   -4.0548    0.7917   -1.5500 C   0  0  0  0  0  0  0  0  0  0  0  0
   -5.1483    0.1018   -1.0403 N   0  0  0  0  0  0  0  0  0  0  0  0
   -6.0567    0.7584   -0.1897 C   0  0  0  0  0  0  0  0  0  0  0  0
   -7.4748    0.2669   -0.3445 C   0  0  0  0  0  0  0  0  0  0  0  0
   -7.5566   -1.1196   -0.4663 O   0  0  0  0  0  0  0  0  0  0  0  0
   -6.7711   -1.6314   -1.4717 C   0  0  0  0  0  0  0  0  0  0  0  0
   -5.3097   -1.2548   -1.3035 C   0  0  0  0  0  0  0  0  0  0  0  0
  1  2  2  0
  2  3  1  0
  3  4  1  0
  4  5  1  0
  5  6  2  0
  6  7  1  0
  7  8  2  0
  8  9  1  0
  9 10  2  0
 10 11  1  0
 11 12  1  0
 11 13  2  0
  6 14  1  0
 14 15  2  0
 15 16  1  0
 16 17  2  0
  2 18  1  0
 18 19  1  0
 19 20  1  0
 20 21  1  0
 21 22  1  0
 22 23  1  0
 23 24  1  6
 24 25  1  0
 25 26  1  0
 26 27  1  0
 27 28  1  0
 28 29  1  0
 29 30  1  0
 30 31  1  0
 16  4  1  0
 23 18  1  0
 31 26  1  0
 13  7  1  0
M  END
>  <zinc_id>  (1) 
ZINC000000041042

>  <smiles>  (1) 
O=C(Cn1nc(-c2cccc(Cl)c2)ccc1=O)N1CCCC[C@H]1CCN1CCOCC1

$$$$
