
     RDKit          3D

 18 19  0  0  0  0  0  0  0  0999 V2000
    1.3452   -1.8393    2.0596 O   0  0  0  0  0  0  0  0  0  0  0  0
    1.0755   -1.1572    1.0425 C   0  0  0  0  0  0  0  0  0  0  0  0
   -0.2273   -1.2487    0.4952 N   0  0  0  0  0  0  0  0  0  0  0  0
   -1.1714   -2.0715    1.0753 N   0  0  0  0  0  0  0  0  0  0  0  0
   -2.5054   -2.0205    0.5866 C   0  0  0  0  0  0  0  0  0  0  0  0
   -2.9640   -0.8782    0.1518 C   0  0  0  0  0  0  0  0  0  0  0  0
   -2.1572    0.3483    0.1497 C   0  0  0  0  0  0  0  0  0  0  0  0
   -2.7422    1.4222   -0.7038 C   0  0  0  0  0  0  0  0  0  0  0  0
   -4.2106    1.6257   -0.5788 C   0  0  0  0  0  0  0  0  0  0  0  0
   -4.9472    0.5159    0.1319 C   0  0  0  0  0  0  0  0  0  0  0  0
   -4.3505   -0.8019   -0.3622 C   0  0  0  0  0  0  0  0  0  0  0  0
    2.0367   -0.2773    0.3985 C   0  0  0  0  0  0  0  0  0  0  0  0
    1.6989    0.4510   -0.7204 C   0  0  0  0  0  0  0  0  0  0  0  0
    2.5767    1.2973   -1.3636 C   0  0  0  0  0  0  0  0  0  0  0  0
    3.8709    1.4445   -0.8855 C   0  0  0  0  0  0  0  0  0  0  0  0
    5.1292    2.6037   -1.7372 Br  0  0  0  0  0  0  0  0  0  0  0  0
    4.2101    0.7148    0.2353 C   0  0  0  0  0  0  0  0  0  0  0  0
    3.3326   -0.1289    0.8759 C   0  0  0  0  0  0  0  0  0  0  0  0
  1  2  2  0
  2  3  1  0
  3  4  1  0
  4  5  1  0
  5  6  2  3
  6  7  1  0
  7  8  1  0
  8  9  1  0
  9 10  1  0
 10 11  1  0
  2 12  1  0
 12 13  2  0
 13 14  1  0
 14 15  2  0
 15 16  1  0
 15 17  1  0
 17 18  2  0
 11  6  1  0
 18 12  1  0
M  END
>  <zinc_id>  (1) 
ZINC000003075209

>  <smiles>  (1) 
O=C(NNC=C1CCCCC1)c1ccc(Br)cc1

$$$$
