
     RDKit          3D

 20 22  0  0  0  0  0  0  0  0999 V2000
   -3.4567   -3.2520    1.9290 C   0  0  0  0  0  0  0  0  0  0  0  0
   -2.7445   -2.1472    1.2279 C   0  0  0  0  0  0  0  0  0  0  0  0
   -3.4062   -1.2947    0.3665 C   0  0  0  0  0  0  0  0  0  0  0  0
   -2.7520   -0.2689   -0.2863 C   0  0  0  0  0  0  0  0  0  0  0  0
   -1.4014   -0.0532   -0.1027 C   0  0  0  0  0  0  0  0  0  0  0  0
   -0.7049    1.0324   -0.7925 C   0  0  0  0  0  0  0  0  0  0  0  0
   -1.2543    1.9422   -1.6704 C   0  0  0  0  0  0  0  0  0  0  0  0
   -2.5837    1.9951   -2.0647 O   0  0  0  0  0  0  0  0  0  0  0  0
   -0.2959    2.7680   -2.0818 O   0  0  0  0  0  0  0  0  0  0  0  0
    0.8091    2.4066   -1.4984 N   0  0  0  0  0  0  0  0  0  0  0  0
    0.5938    1.3505   -0.7051 N   0  0  0  0  0  4  0  0  0  0  0  0
    1.5433    0.6570    0.1045 C   0  0  0  0  0  0  0  0  0  0  0  0
    2.5174   -0.1584   -0.4638 C   0  0  0  0  0  0  0  0  0  0  0  0
    3.4449   -0.8381    0.2978 C   0  0  0  0  0  0  0  0  0  0  0  0
    3.4327   -0.7264    1.6734 C   0  0  0  0  0  0  0  0  0  0  0  0
    4.3865   -1.4182    2.5521 C   0  0  0  0  0  0  0  0  0  0  0  0
    2.4651    0.0849    2.2559 C   0  0  0  0  0  0  0  0  0  0  0  0
    1.5450    0.7576    1.4796 C   0  0  0  0  0  0  0  0  0  0  0  0
   -0.7421   -0.9061    0.7583 C   0  0  0  0  0  0  0  0  0  0  0  0
   -1.3960   -1.9311    1.4106 C   0  0  0  0  0  0  0  0  0  0  0  0
  1  2  1  0
  2  3  2  0
  3  4  1  0
  4  5  2  0
  5  6  1  0
  6  7  2  0
  7  8  1  0
  7  9  1  0
  9 10  1  0
 10 11  2  0
 11 12  1  0
 12 13  2  0
 13 14  1  0
 14 15  2  0
 15 16  1  0
 15 17  1  0
 17 18  2  0
  5 19  1  0
 19 20  2  0
 20  2  1  0
 11  6  1  0
 18 12  1  0
M  CHG  1  11   1
M  END
>  <zinc_id>  (1) 
ZINC000003198588

>  <smiles>  (1) 
Cc1ccc(-c2c(O)on[n+]2-c2ccc(C)cc2)cc1

$$$$
