
     RDKit          3D

 22 24  0  0  0  0  0  0  0  0999 V2000
   -3.6994    0.0957    0.0754 C   0  0  0  0  0  0  0  0  0  0  0  0
   -2.9671   -1.1965   -0.0409 C   0  0  0  0  0  0  0  0  0  0  0  0
   -3.6758   -2.3845   -0.1281 C   0  0  0  0  0  0  0  0  0  0  0  0
   -2.9912   -3.5743   -0.2339 C   0  0  0  0  0  0  0  0  0  0  0  0
   -1.6167   -3.6263   -0.2563 C   0  0  0  0  0  0  0  0  0  0  0  0
   -0.9453   -2.3967   -0.1653 C   0  0  0  0  0  0  0  0  0  0  0  0
    0.3795   -2.1528   -0.1624 N   0  0  0  0  0  0  0  0  0  0  0  0
    0.5407   -0.8369   -0.0573 C   0  0  0  0  0  0  0  0  0  0  0  0
    1.8135   -0.1284   -0.0164 C   0  0  0  0  0  0  0  0  0  0  0  0
    2.8227   -0.4510   -0.9081 C   0  0  0  0  0  0  0  0  0  0  0  0
    4.0404    0.1979   -0.8957 C   0  0  0  0  0  0  0  0  0  0  0  0
    4.3059    1.2011    0.0103 C   0  0  0  0  0  0  0  0  0  0  0  0
    5.5391    1.8683    0.0333 O   0  0  0  0  0  0  0  0  0  0  0  0
    3.3094    1.5319    0.9036 C   0  0  0  0  0  0  0  0  0  0  0  0
    2.0988    0.8783    0.8825 C   0  0  0  0  0  0  0  0  0  0  0  0
   -0.7202   -0.2021    0.0105 C   0  0  0  0  0  0  0  0  0  0  0  0
   -0.9822    1.0839    0.1177 N   0  0  0  0  0  0  0  0  0  0  0  0
   -1.3072    2.3632    0.2250 C   0  0  0  0  0  0  0  0  0  0  0  0
   -2.1416    2.7728    1.4482 C   0  0  0  0  0  0  0  0  0  0  0  0
   -2.0672    2.8345   -1.0429 C   0  0  0  0  0  0  0  0  0  0  0  0
   -0.1202    3.3670    0.2635 C   0  0  0  0  0  0  0  0  0  0  0  0
   -1.6161   -1.2449   -0.0628 N   0  0  0  0  0  0  0  0  0  0  0  0
  1  2  1  0
  2  3  2  0
  3  4  1  0
  4  5  2  0
  5  6  1  0
  6  7  2  0
  7  8  1  0
  8  9  1  0
  9 10  2  0
 10 11  1  0
 11 12  2  0
 12 13  1  0
 12 14  1  0
 14 15  2  0
  8 16  2  0
 16 17  1  0
 17 18  1  0
 18 19  1  0
 18 20  1  0
 18 21  1  0
 16 22  1  0
 22  2  1  0
 22  6  1  0
 15  9  1  0
M  END
>  <zinc_id>  (1) 
ZINC000000416281

>  <smiles>  (1) 
Cc1cccc2nc(-c3ccc(O)cc3)c(NC(C)(C)C)n12

$$$$
