
     RDKit          3D

 18 19  0  0  0  0  0  0  0  0999 V2000
   -1.1057   -2.7414    1.3533 C   0  0  0  0  0  0  0  0  0  0  0  0
   -1.9036   -1.5345    0.9156 C   0  0  0  0  0  0  0  0  0  0  0  0
   -3.5809   -1.2540    1.0056 S   0  0  0  0  0  0  0  0  0  0  0  0
   -3.6383    0.3008    0.3048 C   0  0  0  0  0  0  0  0  0  0  0  0
   -4.7879    1.1554    0.0658 N   0  0  0  0  0  0  0  0  0  0  0  0
   -2.3327    0.5677    0.0139 C   0  0  0  0  0  0  0  0  0  0  0  0
   -1.9588    1.8470   -0.6148 C   0  0  0  0  0  0  0  0  0  0  0  0
   -1.6743    2.8754   -1.0992 N   0  0  0  0  0  0  0  0  0  0  0  0
   -1.4237   -0.3905    0.3318 C   0  0  0  0  0  0  0  0  0  0  0  0
    0.0461   -0.2373    0.0812 C   0  0  0  0  0  0  0  0  0  0  0  0
    0.6939   -1.0181   -0.8552 C   0  0  0  0  0  0  0  0  0  0  0  0
    2.0374   -0.8568   -1.0871 C   0  0  0  0  0  0  0  0  0  0  0  0
    2.7707    0.0895   -0.3893 C   0  0  0  0  0  0  0  0  0  0  0  0
    4.2261    0.1962   -0.6834 C   0  0  0  0  0  0  0  0  0  0  0  0
    4.7064   -1.1397   -1.2208 C   0  0  0  0  0  0  0  0  0  0  0  0
    4.9891    0.5609    0.5647 C   0  0  0  0  0  0  0  0  0  0  0  0
    2.1365    0.8812    0.5515 C   0  0  0  0  0  0  0  0  0  0  0  0
    0.7998    0.6982    0.7617 C   0  0  0  0  0  0  0  0  0  0  0  0
  1  2  1  0
  2  3  1  0
  3  4  1  0
  4  5  1  0
  4  6  2  0
  6  7  1  0
  7  8  3  0
  6  9  1  0
  9 10  1  0
 10 11  2  0
 11 12  1  0
 12 13  2  0
 13 14  1  0
 14 15  1  0
 14 16  1  0
 13 17  1  0
 17 18  2  0
  9  2  2  0
 18 10  1  0
M  END
>  <zinc_id>  (1) 
ZINC000000034146

>  <smiles>  (1) 
Cc1sc(N)c(C#N)c1-c1ccc(C(C)C)cc1

$$$$
