
     RDKit          3D

 20 21  0  0  0  0  0  0  0  0999 V2000
    6.4551    1.2094    1.2535 C   0  0  0  0  0  0  0  0  0  0  0  0
    6.1250    0.5041   -0.0508 C   0  0  0  0  0  0  0  0  0  0  0  0
    4.6733    0.1421    0.0295 C   0  0  0  0  0  0  0  0  0  0  0  0
    3.6728    0.9672   -0.4040 C   0  0  0  0  0  0  0  0  0  0  0  0
    2.3314    0.6680   -0.3458 C   0  0  0  0  0  0  0  0  0  0  0  0
    1.9594   -0.5398    0.1822 C   0  0  0  0  0  0  0  0  0  0  0  0
    0.5754   -0.9704    0.2978 C   0  0  0  0  0  0  0  0  0  0  0  0
    0.3307   -2.0933    0.7947 O   0  0  0  0  0  0  0  0  0  0  0  0
   -0.5231   -0.1740   -0.1286 N   0  0  0  0  0  0  0  0  0  0  0  0
   -1.8687   -0.5783   -0.0228 C   0  0  0  0  0  0  0  0  0  0  0  0
   -2.1544   -1.6986    0.4706 O   0  0  0  0  0  0  0  0  0  0  0  0
   -2.9824    0.2712   -0.4741 C   0  0  0  0  0  0  0  0  0  0  0  0
   -2.7700    1.5108   -1.0260 C   0  0  0  0  0  0  0  0  0  0  0  0
   -3.8092    2.3083   -1.4494 C   0  0  0  0  0  0  0  0  0  0  0  0
   -5.0928    1.8655   -1.3224 C   0  0  0  0  0  0  0  0  0  0  0  0
   -5.3374    0.6150   -0.7675 C   0  0  0  0  0  0  0  0  0  0  0  0
   -4.2902   -0.1458   -0.3603 C   0  0  0  0  0  0  0  0  0  0  0  0
   -4.5199   -1.3951    0.1949 O   0  0  0  0  0  0  0  0  0  0  0  0
    2.9457   -1.3897    0.6263 C   0  0  0  0  0  0  0  0  0  0  0  0
    4.2794   -1.0767    0.5613 C   0  0  0  0  0  0  0  0  0  0  0  0
  1  2  1  0
  2  3  1  0
  3  4  2  0
  4  5  1  0
  5  6  2  0
  6  7  1  0
  7  8  2  0
  7  9  1  0
  9 10  1  0
 10 11  2  0
 10 12  1  0
 12 13  2  0
 13 14  1  0
 14 15  2  0
 15 16  1  0
 16 17  2  0
 17 18  1  0
  6 19  1  0
 19 20  2  0
 20  3  1  0
 17 12  1  0
M  END
>  <zinc_id>  (1) 
ZINC000000157026

>  <smiles>  (1) 
CCc1ccc(C(=O)NC(=O)c2ccccc2O)cc1

$$$$
