
     RDKit          3D

 22 25  0  0  0  0  0  0  0  0999 V2000
    4.9557    2.2713    0.2912 C   0  0  0  0  0  0  0  0  0  0  0  0
    5.3893    0.9494    0.0566 O   0  0  0  0  0  0  0  0  0  0  0  0
    4.4424    0.0529   -0.3966 C   0  0  0  0  0  0  0  0  0  0  0  0
    4.8420   -1.2404   -0.6320 C   0  0  0  0  0  0  0  0  0  0  0  0
    3.9895   -2.1929   -1.0771 C   0  0  0  0  0  0  0  0  0  0  0  0
    2.6690   -1.7993   -1.2896 C   0  0  0  0  0  0  0  0  0  0  0  0
    2.2286   -0.5362   -1.0716 C   0  0  0  0  0  0  0  0  0  0  0  0
    0.7172   -0.1404   -1.3337 C   0  0  1  0  0  0  0  0  0  0  0  0
    0.1131   -1.4760   -0.6232 N   0  0  0  0  0  0  0  0  0  0  0  0
   -1.1829   -1.3694   -0.1760 C   0  0  0  0  0  0  0  0  0  0  0  0
   -1.9125   -2.3835   -0.2836 O   0  0  0  0  0  0  0  0  0  0  0  0
   -1.6736   -0.0898    0.4079 C   0  0  0  0  0  0  0  0  0  0  0  0
   -0.7766    0.9070    0.4591 C   0  0  0  0  0  0  0  0  0  0  0  0
   -1.7064    2.1807    1.1836 S   0  0  0  0  0  0  0  0  0  0  0  0
   -3.1902    1.3794    1.3850 C   0  0  0  0  0  0  0  0  0  0  0  0
   -2.9319    0.1360    0.8839 C   0  0  0  0  0  0  0  0  0  0  0  0
   -4.1643   -0.7655    0.9753 C   0  0  0  0  0  0  0  0  0  0  0  0
   -5.2592   -0.0084    0.2713 C   0  0  0  0  0  0  0  0  0  0  0  0
   -5.6410    1.2471    1.0157 C   0  0  0  0  0  0  0  0  0  0  0  0
   -4.5594    1.7316    1.9356 C   0  0  0  0  0  0  0  0  0  0  0  0
    0.5533    0.7333   -0.0162 N   0  0  0  0  0  0  0  0  0  0  0  0
    3.0977    0.4130   -0.6234 C   0  0  0  0  0  0  0  0  0  0  0  0
  1  2  1  0
  2  3  1  0
  3  4  2  0
  4  5  1  0
  5  6  2  0
  6  7  1  0
  8  7  1  1
  8  9  1  0
  9 10  1  0
 10 11  2  0
 10 12  1  0
 12 13  2  0
 13 14  1  0
 14 15  1  0
 15 16  2  0
 16 17  1  0
 17 18  1  0
 18 19  1  0
 19 20  1  0
 13 21  1  0
  7 22  2  0
 22  3  1  0
 21  8  1  0
 16 12  1  0
 20 15  1  0
M  END
>  <zinc_id>  (1) 
ZINC000000565705

>  <smiles>  (1) 
COc1cccc([C@H]2NC(=O)c3c(sc4c3CCCC4)N2)c1

$$$$
