
     RDKit          3D

 18 19  0  0  0  0  0  0  0  0999 V2000
    6.9374   -0.5021   -0.6309 C   0  0  0  0  0  0  0  0  0  0  0  0
    5.7084    0.0398   -1.3262 C   0  0  0  0  0  0  0  0  0  0  0  0
    4.5292    0.0373   -0.3811 C   0  0  0  0  0  0  0  0  0  0  0  0
    4.1988   -1.3551    0.1188 C   0  0  0  0  0  0  0  0  0  0  0  0
    2.7706   -1.1846    1.2346 S   0  0  0  0  0  0  0  0  0  0  0  0
    1.3865   -0.6546    0.2149 C   0  0  0  0  0  0  0  0  0  0  0  0
    1.3537   -0.4181   -1.1058 N   0  0  0  0  0  0  0  0  0  0  0  0
    0.1375   -0.0470   -1.4505 N   0  0  0  0  0  0  0  0  0  0  0  0
   -0.6053   -0.0500   -0.3314 C   0  0  0  0  0  0  0  0  0  0  0  0
   -2.0045    0.2982   -0.2745 C   0  0  0  0  0  0  0  0  0  0  0  0
   -2.6773    0.2668    0.9265 C   0  0  0  0  0  0  0  0  0  0  0  0
   -4.0251    0.5994    0.9983 C   0  0  0  0  0  0  0  0  0  0  0  0
   -4.7302    0.9706   -0.1272 C   0  0  0  0  0  0  0  0  0  0  0  0
   -6.1256    1.3167   -0.0554 N   0  0  0  0  0  0  0  0  0  0  0  0
   -4.0459    0.9984   -1.3244 C   0  0  0  0  0  0  0  0  0  0  0  0
   -2.7047    0.6686   -1.4026 C   0  0  0  0  0  0  0  0  0  0  0  0
    0.1574   -0.4242    0.7041 N   0  0  0  0  0  0  0  0  0  0  0  0
   -0.2608   -0.5600    2.1114 C   0  0  0  0  0  0  0  0  0  0  0  0
  1  2  1  0
  2  3  1  0
  3  4  1  0
  4  5  1  0
  5  6  1  0
  6  7  2  0
  7  8  1  0
  8  9  2  0
  9 10  1  0
 10 11  2  0
 11 12  1  0
 12 13  2  0
 13 14  1  0
 13 15  1  0
 15 16  2  0
  9 17  1  0
 17 18  1  0
 17  6  1  0
 16 10  1  0
M  END
>  <zinc_id>  (1) 
ZINC000002159149

>  <smiles>  (1) 
CCCCSc1nnc(-c2ccc(N)cc2)n1C

$$$$
