
     RDKit          3D

 21 23  0  0  0  0  0  0  0  0999 V2000
    0.8870   -2.6929    0.8381 O   0  0  0  0  0  0  0  0  0  0  0  0
    0.0959   -1.7686    0.4136 C   0  0  0  0  0  0  0  0  0  0  0  0
   -1.2066   -1.5928    0.8847 N   0  0  0  0  0  0  0  0  0  0  0  0
   -1.6294   -0.1437    0.4727 C   0  0  2  0  0  0  0  0  0  0  0  0
   -2.8889   -0.6920   -0.5028 C   0  0  0  0  0  0  0  0  0  0  0  0
   -3.8076   -1.4025    0.4126 C   0  0  0  0  0  0  0  0  0  0  0  0
   -4.2321   -0.5210    1.5231 C   0  0  0  0  0  0  0  0  0  0  0  0
   -4.3345    0.9058    1.2584 C   0  0  0  0  0  0  0  0  0  0  0  0
   -4.1399    1.4378   -0.0791 C   0  0  0  0  0  0  0  0  0  0  0  0
   -3.4563    0.5528   -1.0738 C   0  0  0  0  0  0  0  0  0  0  0  0
   -0.6568    0.0033   -0.7820 C   0  0  0  0  0  0  0  0  0  0  0  0
   -0.9300    0.7665   -1.7436 O   0  0  0  0  0  0  0  0  0  0  0  0
    0.4410   -0.8306   -0.5745 N   0  0  0  0  0  0  0  0  0  0  0  0
    1.6483   -0.6961   -1.3346 C   0  0  0  0  0  0  0  0  0  0  0  0
    2.7041    0.1042   -0.7410 C   0  0  0  0  0  0  0  0  0  0  0  0
    3.9824   -0.4905   -0.7617 C   0  0  0  0  0  0  0  0  0  0  0  0
    5.1002    0.2054   -0.2873 C   0  0  0  0  0  0  0  0  0  0  0  0
    4.8790    1.4789    0.1889 C   0  0  0  0  0  0  0  0  0  0  0  0
    3.6409    2.0676    0.2124 C   0  0  0  0  0  0  0  0  0  0  0  0
    2.5577    1.3702   -0.2544 C   0  0  0  0  0  0  0  0  0  0  0  0
    1.3455    1.9379   -0.1911 F   0  0  0  0  0  0  0  0  0  0  0  0
  1  2  2  0
  2  3  1  0
  3  4  1  0
  4  5  1  6
  5  6  1  0
  6  7  1  0
  7  8  1  0
  8  9  1  0
  9 10  1  0
  4 11  1  0
 11 12  2  0
 11 13  1  0
 13 14  1  0
 14 15  1  0
 15 16  2  0
 16 17  1  0
 17 18  2  0
 18 19  1  0
 19 20  2  0
 20 21  1  0
 13  2  1  0
 20 15  1  0
 10  5  1  0
M  END
>  <zinc_id>  (1) 
ZINC000003572943

>  <smiles>  (1) 
O=C1N[C@H](C2CCCCC2)C(=O)N1Cc1ccccc1F

$$$$
