
     RDKit          3D

 20 20  0  0  0  0  0  0  0  0999 V2000
    4.8801    0.1626   -1.9339 C   0  0  0  0  0  0  0  0  0  0  0  0
    4.8429    1.1344   -0.7816 C   0  0  0  0  0  0  0  0  0  0  0  0
    5.9140    2.1946   -0.9875 C   0  0  0  0  0  0  0  0  0  0  0  0
    5.1195    0.3750    0.5101 C   0  0  0  0  0  0  0  0  0  0  0  0
    3.4808    1.7675   -0.6278 C   0  0  0  0  0  0  0  0  0  0  0  0
    2.4744    0.7321   -0.3822 C   0  0  0  0  0  0  0  0  0  0  0  0
    2.8284   -0.4868   -0.3275 O   0  0  0  0  0  0  0  0  0  0  0  0
    1.1106    1.0558   -0.2030 N   0  0  0  0  0  0  0  0  0  0  0  0
    0.1755    0.0286    0.0309 C   0  0  0  0  0  0  0  0  0  0  0  0
    0.6678   -1.5120    0.0931 S   0  0  0  0  0  0  0  0  0  0  0  0
   -1.1879    0.3323    0.2113 N   0  0  0  0  0  0  0  0  0  0  0  0
   -2.1195   -0.7065    0.4460 C   0  0  0  0  0  0  0  0  0  0  0  0
   -1.7838   -2.0382    0.5156 C   0  0  0  0  0  0  0  0  0  0  0  0
   -2.7429   -3.0044    0.7479 C   0  0  0  0  0  0  0  0  0  0  0  0
   -4.0713   -2.6706    0.9186 C   0  0  0  0  0  0  0  0  0  0  0  0
   -4.3885   -1.3309    0.8455 C   0  0  0  0  0  0  0  0  0  0  0  0
   -3.4417   -0.3530    0.6140 C   0  0  0  0  0  0  0  0  0  0  0  0
   -3.8167    1.0150    0.5477 N   0  0  0  0  0  4  0  0  0  0  0  0
   -4.8240    1.3832    1.1771 O   0  0  0  0  0  0  0  0  0  0  0  0
   -3.1177    1.9213   -0.1727 O   0  0  0  0  0  1  0  0  0  0  0  0
  1  2  1  0
  2  3  1  0
  2  4  1  0
  2  5  1  0
  5  6  1  0
  6  7  2  0
  6  8  1  0
  8  9  1  0
  9 10  2  0
  9 11  1  0
 11 12  1  0
 12 13  2  0
 13 14  1  0
 14 15  2  0
 15 16  1  0
 16 17  2  0
 17 18  1  0
 18 19  2  0
 18 20  1  0
 17 12  1  0
M  CHG  2  18   1  20  -1
M  END
>  <zinc_id>  (1) 
ZINC000004367667

>  <smiles>  (1) 
CC(C)(C)CC(=O)NC(=S)Nc1ccccc1[N+](=O)[O-]

$$$$
