
     RDKit          3D

 21 22  0  0  0  0  0  0  0  0999 V2000
    4.9295    2.2493    1.3778 C   0  0  0  0  0  0  0  0  0  0  0  0
    5.1827    0.9628    0.8488 O   0  0  0  0  0  0  0  0  0  0  0  0
    4.1734    0.0717    0.5185 C   0  0  0  0  0  0  0  0  0  0  0  0
    2.8217    0.3702    0.6806 C   0  0  0  0  0  0  0  0  0  0  0  0
    1.8359   -0.5214    0.3493 C   0  0  0  0  0  0  0  0  0  0  0  0
    0.4141   -0.2363    0.5081 C   0  0  0  0  0  0  0  0  0  0  0  0
   -0.0493    1.0705    1.0516 C   0  0  0  0  0  0  0  0  0  0  0  0
   -0.4960   -1.0923    0.1890 N   0  0  0  0  0  0  0  0  0  0  0  0
   -1.8566   -0.8105    0.3446 N   0  0  0  0  0  0  0  0  0  0  0  0
   -2.4022    0.2520   -0.4184 C   0  0  0  0  0  0  0  0  0  0  0  0
   -1.6568    0.8979   -1.1995 O   0  0  0  0  0  0  0  0  0  0  0  0
   -3.8051    0.6360   -0.3391 C   0  0  0  0  0  0  0  0  0  0  0  0
   -4.4971    1.6091   -0.9813 C   0  0  0  0  0  0  0  0  0  0  0  0
   -5.7996    1.5417   -0.5392 C   0  0  0  0  0  0  0  0  0  0  0  0
   -5.8733    0.5688    0.3282 O   0  0  0  0  0  0  0  0  0  0  0  0
   -4.7200    0.0072    0.4768 C   0  0  0  0  0  0  0  0  0  0  0  0
   -4.4227   -1.1466    1.3923 C   0  0  0  0  0  0  0  0  0  0  0  0
    2.2195   -1.7429   -0.1572 C   0  0  0  0  0  0  0  0  0  0  0  0
    3.5599   -2.0811   -0.3350 C   0  0  0  0  0  0  0  0  0  0  0  0
    4.5400   -1.1558    0.0100 C   0  0  0  0  0  0  0  0  0  0  0  0
    5.9022   -1.4502   -0.1507 O   0  0  0  0  0  0  0  0  0  0  0  0
  1  2  1  0
  2  3  1  0
  3  4  2  0
  4  5  1  0
  5  6  1  0
  6  7  1  0
  6  8  2  0
  8  9  1  0
  9 10  1  0
 10 11  2  0
 10 12  1  0
 12 13  1  0
 13 14  2  0
 14 15  1  0
 15 16  1  0
 16 17  1  0
  5 18  2  0
 18 19  1  0
 19 20  2  0
 20 21  1  0
 20  3  1  0
 16 12  2  0
M  END
>  <zinc_id>  (1) 
ZINC000000232436

>  <smiles>  (1) 
COc1cc(/C(C)=N/NC(=O)c2ccoc2C)ccc1O

$$$$
