
     RDKit          3D

 21 23  0  0  0  0  0  0  0  0999 V2000
    5.9582    0.1409    0.8747 C   0  0  0  0  0  0  0  0  0  0  0  0
    4.5151    0.0174    0.4963 C   0  0  0  0  0  0  0  0  0  0  0  0
    3.5792   -0.1389    1.4995 C   0  0  0  0  0  0  0  0  0  0  0  0
    2.2334   -0.2522    1.1643 C   0  0  0  0  0  0  0  0  0  0  0  0
    1.1059   -0.3934    1.8772 N   0  0  0  0  0  0  0  0  0  0  0  0
    0.0231   -0.4409    1.0627 C   0  0  0  0  0  0  0  0  0  0  0  0
   -1.6453   -0.5876    1.6967 S   0  0  0  0  0  0  0  0  0  0  0  0
   -2.8475   -0.5624    0.4072 C   0  0  0  0  0  0  0  0  0  0  0  0
   -3.3682    0.6212   -0.1159 C   0  0  0  0  0  0  0  0  0  0  0  0
   -3.0117    1.9395    0.2388 N   0  0  0  0  0  4  0  0  0  0  0  0
   -3.1046    2.9024   -0.5723 O   0  0  0  0  0  0  0  0  0  0  0  0
   -2.5374    2.2280    1.4911 O   0  0  0  0  0  1  0  0  0  0  0  0
   -4.2886    0.3285   -1.0576 N   0  0  0  0  0  0  0  0  0  0  0  0
   -4.3563   -1.0258   -1.1374 C   0  0  0  0  0  0  0  0  0  0  0  0
   -3.4883   -1.5385   -0.2551 N   0  0  0  0  0  0  0  0  0  0  0  0
   -3.2716   -2.9549   -0.0383 C   0  0  0  0  0  0  0  0  0  0  0  0
    0.4866   -0.3273   -0.1739 N   0  0  0  0  0  0  0  0  0  0  0  0
    1.8424   -0.2081   -0.1516 C   0  0  0  0  0  0  0  0  0  0  0  0
    2.8127   -0.0491   -1.1389 C   0  0  0  0  0  0  0  0  0  0  0  0
    4.1478    0.0644   -0.8349 C   0  0  0  0  0  0  0  0  0  0  0  0
    5.2153    0.2367   -1.8637 C   0  0  0  0  0  0  0  0  0  0  0  0
  1  2  1  0
  2  3  2  0
  3  4  1  0
  4  5  1  0
  5  6  2  0
  6  7  1  0
  7  8  1  0
  8  9  2  0
  9 10  1  0
 10 11  2  0
 10 12  1  0
  9 13  1  0
 13 14  2  0
 14 15  1  0
 15 16  1  0
  6 17  1  0
 17 18  1  0
 18 19  1  0
 19 20  2  0
 20 21  1  0
 20  2  1  0
 18  4  2  0
 15  8  1  0
M  CHG  2  10   1  12  -1
M  END
>  <zinc_id>  (1) 
ZINC000000033273

>  <smiles>  (1) 
Cc1cc2nc(Sc3c([N+](=O)[O-])ncn3C)[nH]c2cc1C

$$$$
