
     RDKit          3D

 20 21  0  0  0  0  0  0  0  0999 V2000
    3.7012   -1.3758   -0.3257 C   0  0  0  0  0  0  0  0  0  0  0  0
    4.7546   -0.7553    0.5693 C   0  0  0  0  0  0  0  0  0  0  0  0
    5.9451   -0.4350   -0.3069 C   0  0  0  0  0  0  0  0  0  0  0  0
    4.1742    0.5193    1.1407 C   0  0  0  0  0  0  0  0  0  0  0  0
    3.8023    1.4943    0.0591 C   0  0  0  0  0  0  0  0  0  0  0  0
    2.8510    0.9971   -0.8305 O   0  0  0  0  0  0  0  0  0  0  0  0
    1.5831    0.5871   -0.4639 C   0  0  0  0  0  0  0  0  0  0  0  0
    0.7390    0.1149   -1.4443 C   0  0  0  0  0  0  0  0  0  0  0  0
   -0.5529   -0.3132   -1.1340 C   0  0  0  0  0  0  0  0  0  0  0  0
   -1.0007   -0.2697    0.1524 C   0  0  0  0  0  0  0  0  0  0  0  0
   -2.3807   -0.7314    0.4563 C   0  0  2  0  0  0  0  0  0  0  0  0
   -2.3641   -2.0859    1.1370 C   0  0  0  0  0  0  0  0  0  0  0  0
   -3.1540   -0.7467   -0.7499 N   0  0  0  0  0  0  0  0  0  0  0  0
   -4.2101    0.1756   -0.5976 C   0  0  0  0  0  0  0  0  0  0  0  0
   -5.0856    0.4211   -1.4512 O   0  0  0  0  0  0  0  0  0  0  0  0
   -4.1260    0.7927    0.6935 N   0  0  0  0  0  0  0  0  0  0  0  0
   -3.0003    0.2440    1.3510 C   0  0  0  0  0  0  0  0  0  0  0  0
   -2.6114    0.5473    2.4981 O   0  0  0  0  0  0  0  0  0  0  0  0
   -0.1753    0.1969    1.1401 C   0  0  0  0  0  0  0  0  0  0  0  0
    1.1108    0.6227    0.8291 C   0  0  0  0  0  0  0  0  0  0  0  0
  1  2  1  0
  2  3  1  0
  2  4  1  0
  4  5  1  0
  5  6  1  0
  6  7  1  0
  7  8  2  0
  8  9  1  0
  9 10  2  0
 10 11  1  0
 11 12  1  1
 11 13  1  0
 13 14  1  0
 14 15  2  0
 14 16  1  0
 16 17  1  0
 17 18  2  0
 10 19  1  0
 19 20  2  0
 20  7  1  0
 17 11  1  0
M  END
>  <zinc_id>  (1) 
ZINC000000181419

>  <smiles>  (1) 
CC(C)CCOc1ccc([C@]2(C)NC(=O)NC2=O)cc1

$$$$
