
     RDKit          3D

 21 22  0  0  0  0  0  0  0  0999 V2000
    2.1519    4.1423   -0.3426 C   0  0  0  0  0  0  0  0  0  0  0  0
    2.5585    3.2628   -1.5025 C   0  0  0  0  0  0  0  0  0  0  0  0
    2.3977    1.9179   -1.0868 O   0  0  0  0  0  0  0  0  0  0  0  0
    1.1967    1.3748   -0.6825 C   0  0  0  0  0  0  0  0  0  0  0  0
    0.1885    2.1106   -0.6818 O   0  0  0  0  0  0  0  0  0  0  0  0
    1.0534   -0.0050   -0.2606 C   0  0  0  0  0  0  0  0  0  0  0  0
    2.1109   -0.9213   -0.2202 C   0  0  0  0  0  0  0  0  0  0  0  0
    3.5250   -0.6936   -0.5792 C   0  0  0  0  0  0  0  0  0  0  0  0
    1.5945   -2.1148    0.2264 C   0  0  0  0  0  0  0  0  0  0  0  0
    2.3035   -3.3644    0.4340 C   0  0  0  0  0  0  0  0  0  0  0  0
    2.8659   -4.3634    0.5988 N   0  0  0  0  0  0  0  0  0  0  0  0
    0.2649   -1.9092    0.4446 C   0  0  0  0  0  0  0  0  0  0  0  0
   -0.6400   -2.9116    0.9177 N   0  0  0  0  0  0  0  0  0  0  0  0
   -0.0609   -0.6283    0.1484 N   0  0  0  0  0  0  0  0  0  0  0  0
   -1.3702   -0.0756    0.2637 C   0  0  0  0  0  0  0  0  0  0  0  0
   -2.4316   -0.6322   -0.4202 C   0  0  0  0  0  0  0  0  0  0  0  0
   -3.7136   -0.1492   -0.3524 C   0  0  0  0  0  0  0  0  0  0  0  0
   -3.9844    0.9443    0.4291 C   0  0  0  0  0  0  0  0  0  0  0  0
   -5.3799    1.4808    0.5113 C   0  0  0  0  0  0  0  0  0  0  0  0
   -2.9514    1.5212    1.1219 C   0  0  0  0  0  0  0  0  0  0  0  0
   -1.6795    1.0141    1.0330 C   0  0  0  0  0  0  0  0  0  0  0  0
  1  2  1  0
  2  3  1  0
  3  4  1  0
  4  5  2  0
  4  6  1  0
  6  7  2  0
  7  8  1  0
  7  9  1  0
  9 10  1  0
 10 11  3  0
  9 12  2  0
 12 13  1  0
 12 14  1  0
 14 15  1  0
 15 16  2  0
 16 17  1  0
 17 18  2  0
 18 19  1  0
 18 20  1  0
 20 21  2  0
 14  6  1  0
 21 15  1  0
M  END
>  <zinc_id>  (1) 
ZINC000000132311

>  <smiles>  (1) 
CCOC(=O)c1c(C)c(C#N)c(N)n1-c1ccc(C)cc1

$$$$
