
     RDKit          3D

 21 23  0  0  0  0  0  0  0  0999 V2000
    3.2321    1.2100   -1.5212 C   0  0  0  0  0  0  0  0  0  0  0  0
    3.4418    1.1152    0.0890 C   0  0  2  0  0  0  0  0  0  0  0  0
    4.2387   -0.3206   -0.0044 C   0  0  0  0  0  0  0  0  0  0  0  0
    3.6225   -1.3075    0.8767 C   0  0  0  0  0  0  0  0  0  0  0  0
    2.9647   -0.8253    2.1070 C   0  0  0  0  0  0  0  0  0  0  0  0
    1.8788    0.2198    1.8247 C   0  0  0  0  0  0  0  0  0  0  0  0
    1.9974    0.4845    0.3800 C   0  0  2  0  0  0  0  0  0  0  0  0
    1.8890   -0.7187   -0.4398 N   0  0  0  0  0  0  0  0  0  0  0  0
    0.4919   -0.8732   -0.6760 C   0  0  0  0  0  0  0  0  0  0  0  0
   -0.1037   -1.9799   -0.9648 O   0  0  0  0  0  0  0  0  0  0  0  0
   -0.1160    0.3678   -0.5529 N   0  0  0  0  0  0  0  0  0  0  0  0
   -1.4462    0.8219   -1.0287 C   0  0  0  0  0  0  0  0  0  0  0  0
   -2.4556    0.0915   -0.1712 C   0  0  0  0  0  0  0  0  0  0  0  0
   -2.4881   -1.2782   -0.4263 C   0  0  0  0  0  0  0  0  0  0  0  0
   -3.4145   -2.0946    0.0740 C   0  0  0  0  0  0  0  0  0  0  0  0
   -4.4125   -1.5163    0.8909 C   0  0  0  0  0  0  0  0  0  0  0  0
   -4.4095   -0.1869    1.1631 C   0  0  0  0  0  0  0  0  0  0  0  0
   -3.3816    0.5863    0.6002 C   0  0  0  0  0  0  0  0  0  0  0  0
   -3.3808    2.3253    0.9593 Cl  0  0  0  0  0  0  0  0  0  0  0  0
    0.9504    1.3349   -0.2107 C   0  0  0  0  0  0  0  0  0  0  0  0
    0.9012    2.5442   -0.4175 O   0  0  0  0  0  0  0  0  0  0  0  0
  2  1  1  6
  2  3  1  0
  3  4  1  0
  4  5  1  0
  5  6  1  0
  7  6  1  1
  7  8  1  0
  8  9  1  0
  9 10  2  0
  9 11  1  0
 11 12  1  0
 12 13  1  0
 13 14  2  0
 14 15  1  0
 15 16  2  0
 16 17  1  0
 17 18  2  0
 18 19  1  0
 11 20  1  0
 20 21  2  0
  7  2  1  0
 18 13  1  0
 20  7  1  0
M  END
>  <zinc_id>  (1) 
ZINC000003396910

>  <smiles>  (1) 
C[C@@H]1CCCC[C@]12NC(=O)N(Cc1ccccc1Cl)C2=O

$$$$
