
     RDKit          3D

 21 23  0  0  0  0  0  0  0  0999 V2000
    3.4638    3.1143   -1.1227 C   0  0  0  0  0  0  0  0  0  0  0  0
    3.1460    1.7164   -0.6508 C   0  0  0  0  0  0  0  0  0  0  0  0
    3.9912    1.0791    0.2307 C   0  0  0  0  0  0  0  0  0  0  0  0
    3.6995   -0.1951    0.6635 C   0  0  0  0  0  0  0  0  0  0  0  0
    2.5290   -0.8259    0.1872 C   0  0  0  0  0  0  0  0  0  0  0  0
    2.3092   -2.2167    0.6616 C   0  0  0  0  0  0  0  0  0  0  0  0
    1.6694   -0.2364   -0.6796 C   0  0  0  0  0  0  0  0  0  0  0  0
    0.4372   -0.8358   -1.1436 C   0  0  0  0  0  0  0  0  0  0  0  0
   -0.7463   -0.6707   -0.3889 N   0  0  0  0  0  0  0  0  0  0  0  0
   -1.3541   -1.3645    0.5247 C   0  0  0  0  0  0  0  0  0  0  0  0
   -0.8215   -2.8183    1.0256 C   0  0  1  0  0  0  0  0  0  0  0  0
   -0.8342   -2.4369    2.6468 C   0  0  0  0  0  0  0  0  0  0  0  0
   -2.2095   -3.4646    1.0549 O   0  0  0  0  0  0  0  0  0  0  0  0
   -2.4563   -0.8075    0.9968 N   0  0  0  0  0  0  0  0  0  0  0  0
   -2.5945    0.3577    0.3392 C   0  0  0  0  0  0  0  0  0  0  0  0
   -3.5202    1.3902    0.3654 C   0  0  0  0  0  0  0  0  0  0  0  0
   -3.4161    2.5138   -0.4514 C   0  0  0  0  0  0  0  0  0  0  0  0
   -2.3512    2.5927   -1.3109 C   0  0  0  0  0  0  0  0  0  0  0  0
   -1.4367    1.5803   -1.3393 C   0  0  0  0  0  0  0  0  0  0  0  0
   -1.5368    0.4578   -0.5287 C   0  0  0  0  0  0  0  0  0  0  0  0
    2.0321    1.0701   -1.0804 C   0  0  0  0  0  0  0  0  0  0  0  0
  1  2  1  0
  2  3  2  0
  3  4  1  0
  4  5  2  0
  5  6  1  0
  5  7  1  0
  7  8  1  0
  8  9  1  0
  9 10  1  0
 10 11  1  0
 11 12  1  1
 11 13  1  0
 10 14  2  0
 14 15  1  0
 15 16  2  0
 16 17  1  0
 17 18  2  0
 18 19  1  0
 19 20  2  0
  7 21  2  0
 21  2  1  0
 20  9  1  0
 20 15  1  0
M  END
>  <zinc_id>  (1) 
ZINC000000572493

>  <smiles>  (1) 
Cc1ccc(C)c(Cn2c([C@@H](C)O)nc3ccccc32)c1

$$$$
