
     RDKit          3D

 22 24  0  0  0  0  0  0  0  0999 V2000
   -2.3116    3.0170    1.9960 C   0  0  0  0  0  0  0  0  0  0  0  0
   -2.2710    1.7592    1.2109 C   0  0  0  0  0  0  0  0  0  0  0  0
   -1.1598    1.1767    0.7879 N   0  0  0  0  0  0  0  0  0  0  0  0
   -1.0746    0.0557    0.0856 C   0  0  0  0  0  0  0  0  0  0  0  0
    0.2014   -0.4080   -0.2725 N   0  0  0  0  0  0  0  0  0  0  0  0
    1.4037    0.2639    0.0801 C   0  0  0  0  0  0  0  0  0  0  0  0
    1.2817    1.4317    0.8136 C   0  0  0  0  0  0  0  0  0  0  0  0
    2.4293    2.0920    1.1621 C   0  0  0  0  0  0  0  0  0  0  0  0
    3.6519    1.5985    0.7882 C   0  0  0  0  0  0  0  0  0  0  0  0
    3.7894    0.4429    0.0614 C   0  0  0  0  0  0  0  0  0  0  0  0
    5.0736   -0.0655   -0.3251 N   0  0  0  0  0  4  0  0  0  0  0  0
    5.1410   -1.1060   -0.9762 O   0  0  0  0  0  0  0  0  0  0  0  0
    6.1824    0.6346    0.0501 O   0  0  0  0  0  1  0  0  0  0  0  0
    2.6385   -0.2263   -0.2923 C   0  0  0  0  0  0  0  0  0  0  0  0
   -2.2569   -0.6168   -0.2685 C   0  0  0  0  0  0  0  0  0  0  0  0
   -2.3645   -1.7662   -0.9781 C   0  0  0  0  0  0  0  0  0  0  0  0
   -1.1964   -2.5712   -1.5427 C   0  0  0  0  0  0  0  0  0  0  0  0
   -3.6286   -2.2401   -1.2042 C   0  0  0  0  0  0  0  0  0  0  0  0
   -4.0740   -3.4700   -1.9455 C   0  0  0  0  0  0  0  0  0  0  0  0
   -4.6149   -1.0854   -0.4318 S   0  0  0  0  0  0  0  0  0  0  0  0
   -3.4118   -0.0342    0.1569 C   0  0  0  0  0  0  0  0  0  0  0  0
   -3.4287    1.1176    0.8747 N   0  0  0  0  0  0  0  0  0  0  0  0
  1  2  1  0
  2  3  2  0
  3  4  1  0
  4  5  1  0
  5  6  1  0
  6  7  2  0
  7  8  1  0
  8  9  2  0
  9 10  1  0
 10 11  1  0
 11 12  2  0
 11 13  1  0
 10 14  2  0
  4 15  2  0
 15 16  1  0
 16 17  1  0
 16 18  2  0
 18 19  1  0
 18 20  1  0
 20 21  1  0
 21 22  2  0
 22  2  1  0
 14  6  1  0
 21 15  1  0
M  CHG  2  11   1  13  -1
M  END
>  <zinc_id>  (1) 
ZINC000000215530

>  <smiles>  (1) 
Cc1nc(Nc2cccc([N+](=O)[O-])c2)c2c(C)c(C)sc2n1

$$$$
