
     RDKit          3D

 20 22  0  0  0  0  0  0  0  0999 V2000
    0.9049    3.5937    0.1825 N   0  0  0  0  0  0  0  0  0  0  0  0
    1.4899    2.3227    0.5625 C   0  0  0  0  0  0  0  0  0  0  0  0
    3.0450    2.0012    1.1833 S   0  0  0  0  0  0  0  0  0  0  0  0
    2.9262    0.3146    1.3537 C   0  0  0  0  0  0  0  0  0  0  0  0
    1.6604    0.0430    0.9164 C   0  0  0  0  0  0  0  0  0  0  0  0
    0.9118    1.0809    0.5051 C   0  0  0  0  0  0  0  0  0  0  0  0
   -0.4802    0.9197    0.0066 C   0  0  0  0  0  0  0  0  0  0  0  0
   -1.1319    1.9153   -0.3632 O   0  0  0  0  0  0  0  0  0  0  0  0
   -1.1219   -0.3400   -0.0723 N   0  0  0  0  0  0  0  0  0  0  0  0
   -2.4589   -0.4659   -0.5549 C   0  0  0  0  0  0  0  0  0  0  0  0
   -3.2110    0.5942   -0.9702 C   0  0  0  0  0  0  0  0  0  0  0  0
   -4.4850    0.4045   -1.4212 C   0  0  0  0  0  0  0  0  0  0  0  0
   -5.0428   -0.8588   -1.4685 C   0  0  0  0  0  0  0  0  0  0  0  0
   -4.2940   -1.9251   -1.0536 C   0  0  0  0  0  0  0  0  0  0  0  0
   -3.0242   -1.7282   -0.6051 C   0  0  0  0  0  0  0  0  0  0  0  0
    1.1334   -1.3823    0.9013 C   0  0  0  0  0  0  0  0  0  0  0  0
    1.8760   -2.2008   -0.1176 C   0  0  0  0  0  0  0  0  0  0  0  0
    3.3284   -1.7745   -0.2030 C   0  0  0  0  0  0  0  0  0  0  0  0
    3.9521   -1.9337    1.1742 C   0  0  0  0  0  0  0  0  0  0  0  0
    4.0217   -0.5804    1.8762 C   0  0  0  0  0  0  0  0  0  0  0  0
  1  2  1  0
  2  3  1  0
  3  4  1  0
  4  5  2  0
  5  6  1  0
  6  7  1  0
  7  8  2  0
  7  9  1  0
  9 10  1  0
 10 11  2  0
 11 12  1  0
 12 13  2  0
 13 14  1  0
 14 15  2  0
  5 16  1  0
 16 17  1  0
 17 18  1  0
 18 19  1  0
 19 20  1  0
  6  2  2  0
 15 10  1  0
 20  4  1  0
M  END
>  <zinc_id>  (1) 
ZINC000000130306

>  <smiles>  (1) 
Nc1sc2c(c1C(=O)Nc1ccccc1)CCCCC2

$$$$
