
     RDKit          3D

 21 22  0  0  0  0  0  0  0  0999 V2000
   -2.0007    3.3960    1.4517 C   0  0  0  0  0  0  0  0  0  0  0  0
   -2.5947    2.0948    1.6117 O   0  0  0  0  0  0  0  0  0  0  0  0
   -2.1182    1.0464    0.7589 C   0  0  0  0  0  0  0  0  0  0  0  0
   -1.0999    1.2635   -0.1111 C   0  0  0  0  0  0  0  0  0  0  0  0
   -0.7624    0.2174   -0.9307 C   0  0  0  0  0  0  0  0  0  0  0  0
    0.6480    0.1885   -1.6776 C   0  0  0  0  0  0  0  0  0  0  0  0
    1.4346    0.5666   -0.5821 N   0  0  0  0  0  0  0  0  0  0  0  0
    2.7128    0.4889   -0.0864 C   0  0  0  0  0  0  0  0  0  0  0  0
    3.8809    0.7758   -0.7612 C   0  0  0  0  0  0  0  0  0  0  0  0
    5.0847    0.6386   -0.1081 C   0  0  0  0  0  0  0  0  0  0  0  0
    5.2310    0.2328    1.1807 C   0  0  0  0  0  0  0  0  0  0  0  0
    4.0424   -0.0556    1.8531 C   0  0  0  0  0  0  0  0  0  0  0  0
    2.8347    0.0580    1.2806 C   0  0  0  0  0  0  0  0  0  0  0  0
   -1.3489   -1.0014   -0.9776 C   0  0  0  0  0  0  0  0  0  0  0  0
   -1.0308   -1.8893   -2.0547 N   0  0  0  0  0  4  0  0  0  0  0  0
   -0.4830   -1.3724   -3.0707 O   0  0  0  0  0  0  0  0  0  0  0  0
   -1.2758   -3.2143   -2.0948 O   0  0  0  0  0  1  0  0  0  0  0  0
   -2.3992   -1.2332   -0.0733 C   0  0  0  0  0  0  0  0  0  0  0  0
   -2.7255   -0.2071    0.7559 C   0  0  0  0  0  0  0  0  0  0  0  0
   -3.7093   -0.3428    1.7613 O   0  0  0  0  0  0  0  0  0  0  0  0
   -4.3209   -1.6509    1.8744 C   0  0  0  0  0  0  0  0  0  0  0  0
  1  2  1  0
  2  3  1  0
  3  4  2  0
  4  5  1  0
  5  6  1  0
  6  7  1  0
  7  8  1  0
  8  9  2  0
  9 10  1  0
 10 11  2  0
 11 12  1  0
 12 13  2  0
  5 14  2  0
 14 15  1  0
 15 16  2  0
 15 17  1  0
 14 18  1  0
 18 19  2  0
 19 20  1  0
 20 21  1  0
 19  3  1  0
 13  8  1  0
M  CHG  2  15   1  17  -1
M  END
>  <zinc_id>  (1) 
ZINC000000263280

>  <smiles>  (1) 
COc1cc(CNc2ccccc2)c([N+](=O)[O-])cc1OC

$$$$
