
     RDKit          3D

 19 20  0  0  0  0  0  0  0  0999 V2000
    2.0646    1.0513   -1.2976 C   0  0  0  0  0  0  0  0  0  0  0  0
    3.1219    0.5694   -0.4019 C   0  0  0  0  0  0  0  0  0  0  0  0
    3.9738    1.6361    0.1967 C   0  0  0  0  0  0  0  0  0  0  0  0
    3.4649   -0.7582   -0.3255 C   0  0  0  0  0  0  0  0  0  0  0  0
    2.3844   -1.8668    0.1359 C   0  0  1  0  0  0  0  0  0  0  0  0
    2.1117   -1.1920    1.5281 N   0  0  0  0  0  0  0  0  0  0  0  0
    0.7280   -1.1059    1.6456 C   0  0  0  0  0  0  0  0  0  0  0  0
    0.1229   -0.9305    2.7514 O   0  0  0  0  0  0  0  0  0  0  0  0
    0.0750   -1.2338    0.4108 N   0  0  0  0  0  0  0  0  0  0  0  0
   -1.3881   -1.2017    0.2095 C   0  0  0  0  0  0  0  0  0  0  0  0
   -1.8598    0.1630   -0.0232 C   0  0  0  0  0  0  0  0  0  0  0  0
   -1.0600    1.2795   -0.0457 C   0  0  0  0  0  0  0  0  0  0  0  0
   -1.5530    2.5353   -0.2640 C   0  0  0  0  0  0  0  0  0  0  0  0
   -2.9188    2.7157   -0.4749 C   0  0  0  0  0  0  0  0  0  0  0  0
   -3.7441    1.6202   -0.4584 C   0  0  0  0  0  0  0  0  0  0  0  0
   -3.2241    0.3753   -0.2377 C   0  0  0  0  0  0  0  0  0  0  0  0
   -4.3018   -0.9904   -0.2239 Cl  0  0  0  0  0  0  0  0  0  0  0  0
    1.0631   -1.4131   -0.5773 C   0  0  0  0  0  0  0  0  0  0  0  0
    0.9395   -1.2532   -1.7965 O   0  0  0  0  0  0  0  0  0  0  0  0
  1  2  1  0
  2  3  1  0
  2  4  1  0
  5  4  1  6
  5  6  1  0
  6  7  1  0
  7  8  2  0
  7  9  1  0
  9 10  1  0
 10 11  1  0
 11 12  2  0
 12 13  1  0
 13 14  2  0
 14 15  1  0
 15 16  2  0
 16 17  1  0
  9 18  1  0
 18 19  2  0
 18  5  1  0
 16 11  1  0
M  END
>  <zinc_id>  (1) 
ZINC000003487567

>  <smiles>  (1) 
CC(C)C[C@H]1NC(=O)N(Cc2ccccc2Cl)C1=O

$$$$
