
     RDKit          3D

 21 23  0  0  0  0  0  0  0  0999 V2000
    0.7938   -2.6325    2.3617 C   0  0  0  0  0  0  0  0  0  0  0  0
    0.0969   -1.5473    1.6305 C   0  0  0  0  0  0  0  0  0  0  0  0
   -1.2662   -1.5121    1.4337 C   0  0  0  0  0  0  0  0  0  0  0  0
   -1.5751   -0.3959    0.7350 N   0  0  0  0  0  0  0  0  0  0  0  0
   -2.8902   -0.0218    0.3436 C   0  0  0  0  0  0  0  0  0  0  0  0
   -3.8816   -0.9898    0.2630 C   0  0  0  0  0  0  0  0  0  0  0  0
   -5.1770   -0.7011   -0.1089 C   0  0  0  0  0  0  0  0  0  0  0  0
   -5.4624    0.6292   -0.4080 C   0  0  0  0  0  0  0  0  0  0  0  0
   -4.4957    1.6127   -0.3361 C   0  0  0  0  0  0  0  0  0  0  0  0
   -3.2195    1.2927    0.0363 C   0  0  0  0  0  0  0  0  0  0  0  0
   -0.4107    0.2489    0.5057 C   0  0  0  0  0  0  0  0  0  0  0  0
   -0.3853    1.5538   -0.2106 C   0  0  0  0  0  0  0  0  0  0  0  0
    0.6538   -0.4265    1.0403 C   0  0  0  0  0  0  0  0  0  0  0  0
    2.0508   -0.0970    1.0879 C   0  0  0  0  0  0  0  0  0  0  0  0
    2.8088    0.0240    0.0167 C   0  0  0  0  0  0  0  0  0  0  0  0
    4.2235    0.3641    0.0240 N   0  0  0  0  0  0  0  0  0  0  0  0
    4.6692    0.3401   -1.2987 C   0  0  0  0  0  0  0  0  0  0  0  0
    6.1893    0.6535   -1.8218 S   0  0  0  0  0  0  0  0  0  0  0  0
    3.5889   -0.0040   -2.1521 N   0  0  0  0  0  0  0  0  0  0  0  0
    2.4137   -0.2086   -1.3615 C   0  0  0  0  0  0  0  0  0  0  0  0
    1.2749   -0.5278   -1.7808 O   0  0  0  0  0  0  0  0  0  0  0  0
  1  2  1  0
  2  3  2  0
  3  4  1  0
  4  5  1  0
  5  6  2  0
  6  7  1  0
  7  8  2  0
  8  9  1  0
  9 10  2  0
  4 11  1  0
 11 12  1  0
 11 13  2  0
 13 14  1  0
 14 15  2  0
 15 16  1  0
 16 17  1  0
 17 18  2  0
 17 19  1  0
 19 20  1  0
 20 21  2  0
 13  2  1  0
 20 15  1  0
 10  5  1  0
M  END
>  <zinc_id>  (1) 
ZINC000000831904

>  <smiles>  (1) 
Cc1cn(-c2ccccc2)c(C)c1/C=C1/NC(=S)NC1=O

$$$$
