
     RDKit          3D

 21 22  0  0  0  0  0  0  0  0999 V2000
   -5.2377   -0.0482   -0.9200 C   0  0  0  0  0  0  0  0  0  0  0  0
   -4.3063   -1.2452   -1.0238 C   0  0  0  0  0  0  0  0  0  0  0  0
   -3.0490   -0.9239   -0.1884 C   0  0  0  0  0  0  0  0  0  0  0  0
   -3.1480   -1.0070    1.1601 C   0  0  0  0  0  0  0  0  0  0  0  0
   -4.3843   -1.3907    1.9558 C   0  0  0  0  0  0  0  0  0  0  0  0
   -1.6261   -0.5980    1.7034 S   0  0  0  0  0  0  0  0  0  0  0  0
   -0.8256   -0.3074    0.1400 C   0  0  0  0  0  0  0  0  0  0  0  0
    0.4888    0.0660    0.1201 N   0  0  0  0  0  0  0  0  0  0  0  0
    1.5930    0.4087   -0.5095 C   0  0  0  0  0  0  0  0  0  0  0  0
    1.5794    0.4645   -1.7555 O   0  0  0  0  0  0  0  0  0  0  0  0
    2.8657    0.7344    0.2141 C   0  0  0  0  0  0  0  0  0  0  0  0
    3.9556    1.0848   -0.5457 C   0  0  0  0  0  0  0  0  0  0  0  0
    5.1286    1.3832    0.1400 C   0  0  0  0  0  0  0  0  0  0  0  0
    5.2083    1.3335    1.5203 C   0  0  0  0  0  0  0  0  0  0  0  0
    4.0991    0.9786    2.2589 C   0  0  0  0  0  0  0  0  0  0  0  0
    2.9445    0.6850    1.5838 C   0  0  0  0  0  0  0  0  0  0  0  0
    1.7959    0.3237    2.2353 F   0  0  0  0  0  0  0  0  0  0  0  0
   -1.8499   -0.5625   -0.7237 C   0  0  0  0  0  0  0  0  0  0  0  0
   -1.6989   -0.4654   -2.2086 C   0  0  0  0  0  0  0  0  0  0  0  0
   -2.8439   -0.7504   -3.0562 N   0  0  0  0  0  0  0  0  0  0  0  0
   -0.6892   -0.1639   -2.8129 O   0  0  0  0  0  0  0  0  0  0  0  0
  1  2  1  0
  2  3  1  0
  3  4  2  0
  4  5  1  0
  4  6  1  0
  6  7  1  0
  7  8  1  0
  8  9  1  0
  9 10  2  0
  9 11  1  0
 11 12  2  0
 12 13  1  0
 13 14  2  0
 14 15  1  0
 15 16  2  0
 16 17  1  0
  7 18  2  0
 18 19  1  0
 19 20  1  0
 19 21  2  0
 18  3  1  0
 16 11  1  0
M  END
>  <zinc_id>  (1) 
ZINC000002760792

>  <smiles>  (1) 
CCc1c(C)sc(NC(=O)c2ccccc2F)c1C(N)=O

$$$$
