
     RDKit          3D

 18 19  0  0  0  0  0  0  0  0999 V2000
   -0.7033   -2.0726    0.7132 O   0  0  0  0  0  0  0  0  0  0  0  0
   -0.8600   -1.0453    0.0133 C   0  0  0  0  0  0  0  0  0  0  0  0
    0.2150   -0.6497   -0.8241 N   0  0  0  0  0  0  0  0  0  0  0  0
    1.4141   -1.3568   -0.8920 N   0  0  0  0  0  0  0  0  0  0  0  0
    2.5673   -0.8704   -0.2252 C   0  0  0  0  0  0  0  0  0  0  0  0
    2.5412   -0.6983    1.0664 C   0  0  0  0  0  0  0  0  0  0  0  0
    3.6308   -0.2008    1.9636 C   0  0  0  0  0  0  0  0  0  0  0  0
    4.8198    0.2053    1.1123 C   0  0  0  0  0  0  0  0  0  0  0  0
    4.4391    1.3820    0.2219 C   0  0  0  0  0  0  0  0  0  0  0  0
    3.9553    0.8858   -1.1124 C   0  0  0  0  0  0  0  0  0  0  0  0
    3.7205   -0.6090   -1.1343 C   0  0  0  0  0  0  0  0  0  0  0  0
   -2.0770   -0.2638    0.0282 C   0  0  0  0  0  0  0  0  0  0  0  0
   -2.2371    0.9029   -0.6866 C   0  0  0  0  0  0  0  0  0  0  0  0
   -3.4046    1.6262   -0.6639 C   0  0  0  0  0  0  0  0  0  0  0  0
   -4.4967    1.2219    0.0849 C   0  0  0  0  0  0  0  0  0  0  0  0
   -5.9867    2.1530    0.1030 Cl  0  0  0  0  0  0  0  0  0  0  0  0
   -4.3563    0.0551    0.8083 C   0  0  0  0  0  0  0  0  0  0  0  0
   -3.1814   -0.6656    0.7803 C   0  0  0  0  0  0  0  0  0  0  0  0
  1  2  2  0
  2  3  1  0
  3  4  1  0
  4  5  1  0
  5  6  2  0
  6  7  1  0
  7  8  1  0
  8  9  1  0
  9 10  1  0
 10 11  1  0
  2 12  1  0
 12 13  2  0
 13 14  1  0
 14 15  2  0
 15 16  1  0
 15 17  1  0
 17 18  2  0
 11  5  1  0
 18 12  1  0
M  END
>  <zinc_id>  (1) 
ZINC000002790737

>  <smiles>  (1) 
O=C(NNC1=CCCCCC1)c1ccc(Cl)cc1

$$$$
