
     RDKit          3D

 21 24  0  0  0  0  0  0  0  0999 V2000
   -3.6393   -1.5197    0.8278 C   0  0  0  0  0  0  0  0  0  0  0  0
   -2.4490   -0.6473    0.8168 C   0  0  0  0  0  0  0  0  0  0  0  0
   -2.1704    0.0998    2.0663 C   0  0  0  0  0  0  0  0  0  0  0  0
   -2.7718    0.5172   -0.3274 C   0  0  2  0  0  0  0  0  0  0  0  0
   -2.6445   -0.5098   -1.5906 C   0  0  0  0  0  0  0  0  0  0  0  0
   -1.8850   -1.6389   -1.1239 C   0  0  0  0  0  0  0  0  0  0  0  0
   -1.2386   -1.2255    0.1454 C   0  0  2  0  0  0  0  0  0  0  0  0
   -0.5878   -2.2566    0.9474 C   0  0  0  0  0  0  0  0  0  0  0  0
   -0.4637    0.0037   -0.1019 C   0  0  0  0  0  0  0  0  0  0  0  0
   -1.2670    1.0289   -0.3829 C   0  0  0  0  0  0  0  0  0  0  0  0
   -0.5211    2.1448   -0.6062 C   0  0  0  0  0  0  0  0  0  0  0  0
   -1.0216    3.4840   -0.9458 C   0  0  0  0  0  0  0  0  0  0  0  0
    0.0520    4.3559   -1.0950 O   0  0  0  0  0  0  0  0  0  0  0  0
    0.7735    1.7696   -0.4518 N   0  0  0  0  0  0  0  0  0  0  0  0
    0.7936    0.4594   -0.1441 N   0  0  0  0  0  0  0  0  0  0  0  0
    1.9856   -0.2845    0.0911 C   0  0  0  0  0  0  0  0  0  0  0  0
    2.0478   -1.6514   -0.0820 C   0  0  0  0  0  0  0  0  0  0  0  0
    3.1953   -2.3866    0.1418 C   0  0  0  0  0  0  0  0  0  0  0  0
    4.3381   -1.7236    0.5595 C   0  0  0  0  0  0  0  0  0  0  0  0
    4.3218   -0.3579    0.7456 C   0  0  0  0  0  0  0  0  0  0  0  0
    3.1520    0.3386    0.5100 C   0  0  0  0  0  0  0  0  0  0  0  0
  1  2  1  0
  2  3  1  0
  2  4  1  0
  4  5  1  6
  5  6  1  0
  6  7  1  0
  7  8  1  1
  7  9  1  0
  9 10  2  0
 10 11  1  0
 11 12  1  0
 12 13  1  0
 11 14  2  0
 14 15  1  0
 15 16  1  0
 16 17  2  0
 17 18  1  0
 18 19  2  0
 19 20  1  0
 20 21  2  0
  7  2  1  0
 15  9  1  0
 21 16  1  0
 10  4  1  0
M  END
>  <zinc_id>  (1) 
ZINC000003166448

>  <smiles>  (1) 
CC1(C)[C@@H]2CC[C@@]1(C)c1c2c(CO)nn1-c1ccccc1

$$$$
