
     RDKit          3D

 21 23  0  0  0  0  0  0  0  0999 V2000
    0.0892    2.4287   -0.0384 C   0  0  0  0  0  0  0  0  0  0  0  0
   -0.9377    1.3973    0.2964 C   0  0  0  0  0  0  0  0  0  0  0  0
   -2.1043    1.5439   -0.1123 C   0  0  0  0  0  0  0  0  0  0  0  0
   -3.2843    0.5152    0.1787 C   0  0  1  0  0  0  0  0  0  0  0  0
   -3.8032    0.4347   -1.3604 C   0  0  0  0  0  0  0  0  0  0  0  0
   -2.3241   -0.7967    0.0477 C   0  0  1  0  0  0  0  0  0  0  0  0
   -3.3194   -1.9067    0.1785 C   0  0  0  0  0  0  0  0  0  0  0  0
   -2.7691   -3.1577    0.1024 O   0  0  0  0  0  0  0  0  0  0  0  0
   -1.5655   -0.7033   -1.0870 C   0  0  0  0  0  0  0  0  0  0  0  0
   -0.3039   -0.2819   -1.2408 O   0  0  0  0  0  0  0  0  0  0  0  0
    0.2733   -0.8331    0.0132 C   0  0  1  0  0  0  0  0  0  0  0  0
    1.6853   -0.1885   -0.1335 C   0  0  0  0  0  0  0  0  0  0  0  0
    2.2972   -0.2917   -1.3613 C   0  0  0  0  0  0  0  0  0  0  0  0
    3.5774    0.2696   -1.5621 C   0  0  0  0  0  0  0  0  0  0  0  0
    4.2200    0.9210   -0.5369 C   0  0  0  0  0  0  0  0  0  0  0  0
    5.4691    1.4947   -0.6534 O   0  0  0  0  0  0  0  0  0  0  0  0
    3.6014    1.0181    0.6823 C   0  0  0  0  0  0  0  0  0  0  0  0
    2.3518    0.4545    0.8305 C   0  0  0  0  0  0  0  0  0  0  0  0
   -0.3147    0.2619    1.1473 C   0  0  2  0  0  0  0  0  0  0  0  0
   -1.7330   -0.5523    1.5114 C   0  0  2  0  0  0  0  0  0  0  0  0
   -1.1055   -2.0277    1.7089 C   0  0  0  0  0  0  0  0  0  0  0  0
  1  2  1  0
  2  3  2  0
  3  4  1  0
  4  5  1  6
  4  6  1  0
  6  7  1  1
  7  8  1  0
  6  9  1  0
  9 10  1  0
 10 11  1  0
 11 12  1  6
 12 13  2  0
 13 14  1  0
 14 15  2  0
 15 16  1  0
 15 17  1  0
 17 18  2  0
 11 19  1  0
 19 20  1  0
 20 21  1  6
 19  2  1  6
 20  6  1  0
 18 12  1  0
M  END
>  <zinc_id>  (1) 
ZINC000000519451

>  <smiles>  (1) 
CC1=C[C@@H](C)[C@@]2(CO)CO[C@@H](c3ccc(O)cc3)[C@@H]1[C@@H]2C

$$$$
