
     RDKit          3D

 22 24  0  0  0  0  0  0  0  0999 V2000
    5.2224    0.7024    0.0138 C   0  0  0  0  0  0  0  0  0  0  0  0
    4.2059   -0.2575    0.1663 O   0  0  0  0  0  0  0  0  0  0  0  0
    2.8698   -0.0288   -0.1217 C   0  0  0  0  0  0  0  0  0  0  0  0
    2.3940    1.1736   -0.5916 C   0  0  0  0  0  0  0  0  0  0  0  0
    1.0105    1.3076   -0.8561 C   0  0  0  0  0  0  0  0  0  0  0  0
    0.1817    0.2935   -0.6597 C   0  0  0  0  0  0  0  0  0  0  0  0
    0.6493   -0.9202   -0.1854 C   0  0  0  0  0  0  0  0  0  0  0  0
    1.9838   -1.0646    0.0766 C   0  0  0  0  0  0  0  0  0  0  0  0
    2.5162   -2.2838    0.5631 O   0  0  0  0  0  0  0  0  0  0  0  0
    1.6135   -3.3712    0.7757 C   0  0  0  0  0  0  0  0  0  0  0  0
   -1.3284    0.3600   -1.0585 C   0  0  1  0  0  0  0  0  0  0  0  0
   -1.9501   -0.4925    0.0931 C   0  0  0  0  0  0  0  0  0  0  0  0
   -1.5125   -1.7638    0.1375 C   0  0  0  0  0  0  0  0  0  0  0  0
   -2.0026   -2.6344    1.1208 C   0  0  0  0  0  0  0  0  0  0  0  0
   -2.9241   -2.1691    2.0233 C   0  0  0  0  0  0  0  0  0  0  0  0
   -3.3410   -0.8622    1.9379 C   0  0  0  0  0  0  0  0  0  0  0  0
   -2.8435   -0.0102    0.9540 C   0  0  0  0  0  0  0  0  0  0  0  0
   -3.2972    1.3970    0.8679 C   0  0  0  0  0  0  0  0  0  0  0  0
   -1.6932    1.8225   -0.4788 C   0  0  0  0  0  0  0  0  0  0  0  0
   -0.8832    2.7175   -1.3781 C   0  0  0  0  0  0  0  0  0  0  0  0
   -1.4161    3.4620   -2.1572 O   0  0  0  0  0  0  0  0  0  0  0  0
    0.5450    2.6220   -1.2428 N   0  0  0  0  0  0  0  0  0  0  0  0
  1  2  1  0
  2  3  1  0
  3  4  2  0
  4  5  1  0
  5  6  2  0
  6  7  1  0
  7  8  2  0
  8  9  1  0
  9 10  1  0
  6 11  1  0
 11 12  1  1
 12 13  2  0
 13 14  1  0
 14 15  2  0
 15 16  1  0
 16 17  2  0
 17 18  1  0
 11 19  1  0
 19 20  1  0
 20 21  2  0
 20 22  1  0
  8  3  1  0
 17 12  1  0
 22  5  1  0
M  END
>  <zinc_id>  (1) 
ZINC000000621386

>  <smiles>  (1) 
COc1cc2c(cc1OC)[C@@H](c1ccccc1C)CC(=O)N2

$$$$
