
     RDKit          3D

 20 21  0  0  0  0  0  0  0  0999 V2000
    6.6022    0.7041   -0.2158 C   0  0  0  0  0  0  0  0  0  0  0  0
    5.1370    0.3941   -0.1336 C   0  0  0  0  0  0  0  0  0  0  0  0
    4.1813    1.3832   -0.2246 C   0  0  0  0  0  0  0  0  0  0  0  0
    2.8156    1.0761   -0.1457 C   0  0  0  0  0  0  0  0  0  0  0  0
    2.4419   -0.2323    0.0245 C   0  0  0  0  0  0  0  0  0  0  0  0
    1.0307   -0.6620    0.1196 C   0  0  0  0  0  0  0  0  0  0  0  0
    0.8174   -1.8674    0.2725 O   0  0  0  0  0  0  0  0  0  0  0  0
   -0.0363    0.1195    0.0570 N   0  0  0  0  0  0  0  0  0  0  0  0
   -1.3623    0.3360    0.0709 C   0  0  0  0  0  0  0  0  0  0  0  0
   -1.8118    2.0230   -0.1204 S   0  0  0  0  0  0  0  0  0  0  0  0
   -3.4871    1.8891   -0.0533 C   0  0  0  0  0  0  0  0  0  0  0  0
   -4.5324    2.9777   -0.1538 C   0  0  0  0  0  0  0  0  0  0  0  0
   -3.6738    0.5540    0.1146 C   0  0  0  0  0  0  0  0  0  0  0  0
   -5.1352    0.0769    0.2169 C   0  0  0  0  0  0  0  0  0  0  0  0
   -2.5814   -0.2550    0.1797 C   0  0  0  0  0  0  0  0  0  0  0  0
   -2.7387   -1.6904    0.3589 C   0  0  0  0  0  0  0  0  0  0  0  0
   -4.0320   -2.2599    0.4673 N   0  0  0  0  0  0  0  0  0  0  0  0
   -1.8032   -2.4710    0.4254 O   0  0  0  0  0  0  0  0  0  0  0  0
    3.4082   -1.1925    0.1116 C   0  0  0  0  0  0  0  0  0  0  0  0
    4.7598   -0.9032    0.0354 C   0  0  0  0  0  0  0  0  0  0  0  0
  1  2  1  0
  2  3  2  0
  3  4  1  0
  4  5  2  0
  5  6  1  0
  6  7  2  0
  6  8  1  0
  8  9  1  0
  9 10  1  0
 10 11  1  0
 11 12  1  0
 11 13  2  0
 13 14  1  0
 13 15  1  0
 15 16  1  0
 16 17  1  0
 16 18  2  0
  5 19  1  0
 19 20  2  0
 20  2  1  0
 15  9  2  0
M  END
>  <zinc_id>  (1) 
ZINC000000038430

>  <smiles>  (1) 
Cc1ccc(C(=O)Nc2sc(C)c(C)c2C(N)=O)cc1

$$$$
