
     RDKit          3D

 21 23  0  0  0  0  0  0  0  0999 V2000
   -0.8948   -3.6025   -0.5913 N   0  0  0  0  0  0  0  0  0  0  0  0
   -1.5294   -2.3566   -0.2198 C   0  0  0  0  0  0  0  0  0  0  0  0
   -3.1822   -2.0001   -0.0111 S   0  0  0  0  0  0  0  0  0  0  0  0
   -3.0588   -0.3573    0.4119 C   0  0  0  0  0  0  0  0  0  0  0  0
   -1.7146   -0.1286    0.3785 C   0  0  0  0  0  0  0  0  0  0  0  0
   -0.9198   -1.1602    0.0521 C   0  0  0  0  0  0  0  0  0  0  0  0
    0.5604   -1.0337   -0.0178 C   0  0  0  0  0  0  0  0  0  0  0  0
    1.2891   -1.9850   -0.3185 O   0  0  0  0  0  0  0  0  0  0  0  0
    1.2312    0.1963    0.2587 N   0  0  0  0  0  0  0  0  0  0  0  0
    2.6417    0.3276    0.1949 C   0  0  0  0  0  0  0  0  0  0  0  0
    3.4489   -0.7366   -0.1409 C   0  0  0  0  0  0  0  0  0  0  0  0
    4.8253   -0.6135   -0.2046 C   0  0  0  0  0  0  0  0  0  0  0  0
    5.3930    0.6021    0.0751 C   0  0  0  0  0  0  0  0  0  0  0  0
    4.6342    1.6812    0.4114 C   0  0  0  0  0  0  0  0  0  0  0  0
    3.2423    1.5351    0.4702 C   0  0  0  0  0  0  0  0  0  0  0  0
   -1.0334    1.1924    0.6781 C   0  0  0  0  0  0  0  0  0  0  0  0
   -0.8322    1.9081   -0.6357 C   0  0  0  0  0  0  0  0  0  0  0  0
   -2.2002    2.2252   -1.2130 C   0  0  0  0  0  0  0  0  0  0  0  0
   -3.1554    2.3751   -0.0417 C   0  0  0  0  0  0  0  0  0  0  0  0
   -4.4141    1.5736   -0.2247 C   0  0  0  0  0  0  0  0  0  0  0  0
   -4.3313    0.3576    0.6883 C   0  0  0  0  0  0  0  0  0  0  0  0
  1  2  1  0
  2  3  1  0
  3  4  1  0
  4  5  2  0
  5  6  1  0
  6  7  1  0
  7  8  2  0
  7  9  1  0
  9 10  1  0
 10 11  2  0
 11 12  1  0
 12 13  2  0
 13 14  1  0
 14 15  2  0
  5 16  1  0
 16 17  1  0
 17 18  1  0
 18 19  1  0
 19 20  1  0
 20 21  1  0
  6  2  2  0
 15 10  1  0
 21  4  1  0
M  END
>  <zinc_id>  (1) 
ZINC000002558512

>  <smiles>  (1) 
Nc1sc2c(c1C(=O)Nc1ccccc1)CCCCCC2

$$$$
