
     RDKit          3D

 21 23  0  0  0  0  0  0  0  0999 V2000
   -3.9922    3.1823   -1.0090 C   0  0  0  0  0  0  0  0  0  0  0  0
   -3.1504    2.0063   -0.5872 C   0  0  0  0  0  0  0  0  0  0  0  0
   -2.7385    1.8453    0.7198 C   0  0  0  0  0  0  0  0  0  0  0  0
   -1.9623    0.7843    1.1517 C   0  0  0  0  0  0  0  0  0  0  0  0
   -1.6142    0.6503    2.6001 C   0  0  0  0  0  0  0  0  0  0  0  0
   -1.5887   -0.1581    0.1892 C   0  0  0  0  0  0  0  0  0  0  0  0
   -1.9800   -0.0471   -1.1156 C   0  0  0  0  0  0  0  0  0  0  0  0
   -2.7614    1.0467   -1.4968 C   0  0  0  0  0  0  0  0  0  0  0  0
   -1.6572   -1.2494   -1.8471 N   0  0  0  0  0  0  0  0  0  0  0  0
   -1.0611   -2.1259   -0.9307 C   0  0  0  0  0  0  0  0  0  0  0  0
   -0.8815   -3.3804   -1.0193 O   0  0  0  0  0  0  0  0  0  0  0  0
   -0.6372   -1.2903    0.2593 C   0  0  2  0  0  0  0  0  0  0  0  0
   -0.8364   -2.0208    1.4365 O   0  0  0  0  0  0  0  0  0  0  0  0
    0.7740   -0.9909   -0.0155 C   0  0  0  0  0  0  0  0  0  0  0  0
    1.5921   -0.1001    0.7057 C   0  0  0  0  0  0  0  0  0  0  0  0
    1.2782    0.5610    1.7057 O   0  0  0  0  0  0  0  0  0  0  0  0
    2.9982    0.0965    0.2476 C   0  0  0  0  0  0  0  0  0  0  0  0
    3.6305   -0.4857   -0.8129 C   0  0  0  0  0  0  0  0  0  0  0  0
    4.8981   -0.1558   -1.0310 C   0  0  0  0  0  0  0  0  0  0  0  0
    5.4839    0.7404   -0.1844 C   0  0  0  0  0  0  0  0  0  0  0  0
    4.2062    1.0913    0.9065 S   0  0  0  0  0  0  0  0  0  0  0  0
  1  2  1  0
  2  3  2  0
  3  4  1  0
  4  5  1  0
  4  6  2  0
  6  7  1  0
  7  8  2  0
  7  9  1  0
  9 10  1  0
 10 11  2  0
 10 12  1  0
 12 13  1  1
 12 14  1  0
 14 15  1  0
 15 16  2  0
 15 17  1  0
 17 18  2  0
 18 19  1  0
 19 20  2  0
 20 21  1  0
  8  2  1  0
 21 17  1  0
 12  6  1  0
M  END
>  <zinc_id>  (1) 
ZINC000000565333

>  <smiles>  (1) 
Cc1cc(C)c2c(c1)NC(=O)[C@@]2(O)CC(=O)c1cccs1

$$$$
