
     RDKit          3D

 21 23  0  0  0  0  0  0  0  0999 V2000
    6.4965   -0.4837   -0.4608 C   0  0  0  0  0  0  0  0  0  0  0  0
    5.0141   -0.4122   -0.3228 C   0  0  0  0  0  0  0  0  0  0  0  0
    4.3495   -1.2888    0.5082 C   0  0  0  0  0  0  0  0  0  0  0  0
    2.9624   -1.2391    0.6520 C   0  0  0  0  0  0  0  0  0  0  0  0
    2.2073   -0.3107   -0.0327 C   0  0  0  0  0  0  0  0  0  0  0  0
    0.7566   -0.2689    0.1263 C   0  0  0  0  0  0  0  0  0  0  0  0
    0.1270   -1.1578    0.9628 C   0  0  0  0  0  0  0  0  0  0  0  0
   -1.2398   -1.1261    1.1191 C   0  0  0  0  0  0  0  0  0  0  0  0
   -1.8938   -1.9216    1.8800 N   0  0  0  0  0  0  0  0  0  0  0  0
   -3.2723   -1.8207    1.9792 O   0  0  0  0  0  0  0  0  0  0  0  0
   -1.9338   -0.1728    0.4052 C   0  0  0  0  0  0  0  0  0  0  0  0
   -3.3065   -0.0638    0.4969 C   0  0  0  0  0  0  0  0  0  0  0  0
   -4.0302    0.8781   -0.2033 C   0  0  0  0  0  0  0  0  0  0  0  0
   -5.5055    1.0026   -0.1111 C   0  0  0  0  0  0  0  0  0  0  0  0
   -3.3542    1.7357   -1.0197 C   0  0  0  0  0  0  0  0  0  0  0  0
   -1.9949    1.6530   -1.1318 C   0  0  0  0  0  0  0  0  0  0  0  0
   -1.2852    2.5916   -2.0212 C   0  0  0  0  0  0  0  0  0  0  0  0
   -1.2686    0.7201   -0.4395 C   0  0  0  0  0  0  0  0  0  0  0  0
    0.0306    0.6093   -0.5198 O   0  0  0  0  0  0  0  0  0  0  0  0
    2.8818    0.5598   -0.8598 C   0  0  0  0  0  0  0  0  0  0  0  0
    4.2589    0.5160   -1.0072 C   0  0  0  0  0  0  0  0  0  0  0  0
  1  2  1  0
  2  3  2  0
  3  4  1  0
  4  5  2  0
  5  6  1  0
  6  7  2  0
  7  8  1  0
  8  9  2  0
  9 10  1  0
  8 11  1  0
 11 12  2  0
 12 13  1  0
 13 14  1  0
 13 15  2  0
 15 16  1  0
 16 17  1  0
 16 18  2  0
 18 19  1  0
  5 20  1  0
 20 21  2  0
 21  2  1  0
 19  6  1  0
 18 11  1  0
M  END
>  <zinc_id>  (1) 
ZINC000001993830

>  <smiles>  (1) 
Cc1ccc(-c2c/c(=N/O)c3cc(C)cc(C)c3o2)cc1

$$$$
