
     RDKit          3D

 23 25  0  0  0  0  0  0  0  0999 V2000
    0.2275    3.4290    1.5307 C   0  0  0  0  0  0  0  0  0  0  0  0
    0.8080    2.5472    0.7105 C   0  0  0  0  0  0  0  0  0  0  0  0
    0.0242    2.0072   -0.4570 C   0  0  0  0  0  0  0  0  0  0  0  0
    0.9106    2.2039   -1.6842 C   0  0  0  0  0  0  0  0  0  0  0  0
   -1.2779    2.7293   -0.5896 C   0  0  0  0  0  0  0  0  0  0  0  0
   -0.1523    0.5562   -0.2010 C   0  0  0  0  0  0  0  0  0  0  0  0
    0.9791   -0.2203   -0.0795 C   0  0  0  0  0  0  0  0  0  0  0  0
    0.8330   -1.5718    0.1587 C   0  0  0  0  0  0  0  0  0  0  0  0
   -0.4375   -2.0911    0.2657 C   0  0  0  0  0  0  0  0  0  0  0  0
   -0.6022   -3.4445    0.5046 O   0  0  0  0  0  0  0  0  0  0  0  0
   -1.5621   -1.2925    0.1403 C   0  0  0  0  0  0  0  0  0  0  0  0
   -2.8353   -1.8053    0.2463 C   0  0  0  0  0  0  0  0  0  0  0  0
   -3.8963   -0.9351    0.1075 C   0  0  0  0  0  0  0  0  0  0  0  0
   -3.7269    0.4129   -0.1304 C   0  0  0  0  0  0  0  0  0  0  0  0
   -4.7220    1.1949   -0.2545 O   0  0  0  0  0  0  0  0  0  0  0  0
   -2.4963    0.8560   -0.2236 O   0  0  0  0  0  0  0  0  0  0  0  0
   -1.4370    0.0656   -0.0988 C   0  0  0  0  0  0  0  0  0  0  0  0
    1.9918   -2.4455    0.2968 C   0  0  0  0  0  0  0  0  0  0  0  0
    3.1982   -1.8915    0.1845 C   0  0  0  0  0  0  0  0  0  0  0  0
    3.4283   -0.4672   -0.0675 C   0  0  0  0  0  0  0  0  0  0  0  0
    4.2057    0.0852    1.1288 C   0  0  0  0  0  0  0  0  0  0  0  0
    4.2726   -0.2227   -1.3014 C   0  0  0  0  0  0  0  0  0  0  0  0
    2.2666    0.3000   -0.1869 O   0  0  0  0  0  0  0  0  0  0  0  0
  1  2  2  0
  2  3  1  0
  3  4  1  0
  3  5  1  0
  3  6  1  0
  6  7  2  0
  7  8  1  0
  8  9  2  0
  9 10  1  0
  9 11  1  0
 11 12  1  0
 12 13  2  0
 13 14  1  0
 14 15  2  0
 14 16  1  0
 16 17  1  0
  8 18  1  0
 18 19  2  0
 19 20  1  0
 20 21  1  0
 20 22  1  0
 20 23  1  0
 17  6  1  0
 23  7  1  0
 17 11  2  0
M  END
>  <zinc_id>  (1) 
ZINC000003641076

>  <smiles>  (1) 
C=CC(C)(C)c1c2c(c(O)c3ccc(=O)oc13)C=CC(C)(C)O2

$$$$
