
     RDKit          3D

 17 18  0  0  0  0  0  0  0  0999 V2000
    4.6346    1.9506    0.2579 C   0  0  0  0  0  0  0  0  0  0  0  0
    3.4713    1.9322   -0.7118 C   0  0  0  0  0  0  0  0  0  0  0  0
    3.9085    1.8169   -2.1486 C   0  0  0  0  0  0  0  0  0  0  0  0
    2.5610    0.8118   -0.3121 C   0  0  0  0  0  0  0  0  0  0  0  0
    2.6874   -0.4601   -0.8287 C   0  0  0  0  0  0  0  0  0  0  0  0
    1.8658   -1.5003   -0.4770 C   0  0  0  0  0  0  0  0  0  0  0  0
    0.8586   -1.2370    0.4514 C   0  0  0  0  0  0  0  0  0  0  0  0
   -0.0778   -2.2971    0.8968 C   0  0  0  0  0  0  0  0  0  0  0  0
   -1.5557   -2.4385   -0.1015 S   0  0  0  0  0  0  0  0  0  0  0  0
   -2.5283   -0.9421    0.1093 C   0  0  0  0  0  0  0  0  0  0  0  0
   -3.4688   -0.6817    1.0108 N   0  0  0  0  0  0  0  0  0  0  0  0
   -4.0582    0.4315    1.0086 N   0  0  0  0  0  0  0  0  0  0  0  0
   -3.7428    1.3526    0.1048 C   0  0  0  0  0  0  0  0  0  0  0  0
   -4.2784    2.6686   -0.0816 N   0  0  0  0  0  0  0  0  0  0  0  0
   -2.5246    0.5360   -0.7767 S   0  0  0  0  0  0  0  0  0  0  0  0
    0.6952    0.0189    0.9938 C   0  0  0  0  0  0  0  0  0  0  0  0
    1.5520    1.0356    0.6047 C   0  0  0  0  0  0  0  0  0  0  0  0
  1  2  1  0
  2  3  1  0
  2  4  1  0
  4  5  2  0
  5  6  1  0
  6  7  2  0
  7  8  1  0
  8  9  1  0
  9 10  1  0
 10 11  2  0
 11 12  1  0
 12 13  2  0
 13 14  1  0
 13 15  1  0
  7 16  1  0
 16 17  2  0
 17  4  1  0
 15 10  1  0
M  END
>  <zinc_id>  (1) 
ZINC000000269608

>  <smiles>  (1) 
CC(C)c1ccc(CSc2nnc(N)s2)cc1

$$$$
