
     RDKit          3D

 22 24  0  0  0  0  0  0  0  0999 V2000
   -5.1037    1.7149    0.9748 C   0  0  0  0  0  0  0  0  0  0  0  0
   -5.2630    0.3978    0.4423 O   0  0  0  0  0  0  0  0  0  0  0  0
   -4.1544   -0.3588    0.1013 C   0  0  0  0  0  0  0  0  0  0  0  0
   -4.3054   -1.6080   -0.4037 C   0  0  0  0  0  0  0  0  0  0  0  0
   -3.2400   -2.4059   -0.7602 C   0  0  0  0  0  0  0  0  0  0  0  0
   -1.9752   -1.9291   -0.6027 C   0  0  0  0  0  0  0  0  0  0  0  0
   -1.7641   -0.6699   -0.0954 C   0  0  0  0  0  0  0  0  0  0  0  0
   -0.4020   -0.1900    0.0605 C   0  0  0  0  0  0  0  0  0  0  0  0
    0.6500   -0.8901   -0.2557 O   0  0  0  0  0  0  0  0  0  0  0  0
    1.8811   -0.4626   -0.1174 C   0  0  0  0  0  0  0  0  0  0  0  0
    2.9688   -1.2439   -0.4678 C   0  0  0  0  0  0  0  0  0  0  0  0
    2.7857   -2.6044   -1.0171 C   0  0  0  0  0  0  0  0  0  0  0  0
    4.2253   -0.7447   -0.3009 C   0  0  0  0  0  0  0  0  0  0  0  0
    4.4725    0.5246    0.2093 C   0  0  0  0  0  0  0  0  0  0  0  0
    5.8772    0.9700    0.3499 C   0  0  0  0  0  0  0  0  0  0  0  0
    3.3882    1.2968    0.5559 C   0  0  0  0  0  0  0  0  0  0  0  0
    2.1149    0.7977    0.3896 C   0  0  0  0  0  0  0  0  0  0  0  0
    1.0350    1.5973    0.7471 C   0  0  0  0  0  0  0  0  0  0  0  0
    1.1968    2.7502    1.2125 O   0  0  0  0  0  0  0  0  0  0  0  0
   -0.2152    1.0878    0.5760 C   0  0  0  0  0  0  0  0  0  0  0  0
   -1.3281    1.8657    0.9256 O   0  0  0  0  0  0  0  0  0  0  0  0
   -2.8444    0.1046    0.2520 C   0  0  0  0  0  0  0  0  0  0  0  0
  1  2  1  0
  2  3  1  0
  3  4  2  0
  4  5  1  0
  5  6  2  0
  6  7  1  0
  7  8  1  0
  8  9  1  0
  9 10  1  0
 10 11  2  0
 11 12  1  0
 11 13  1  0
 13 14  2  0
 14 15  1  0
 14 16  1  0
 16 17  2  0
 17 18  1  0
 18 19  2  0
 18 20  1  0
 20 21  1  0
  7 22  2  0
 22  3  1  0
 20  8  2  0
 17 10  1  0
M  END
>  <zinc_id>  (1) 
ZINC000001961565

>  <smiles>  (1) 
COc1cccc(-c2oc3c(C)cc(C)cc3c(=O)c2O)c1

$$$$
