
     RDKit          3D

 18 19  0  0  0  0  0  0  0  0999 V2000
    0.0003   -0.4621   -0.8944 O   0  0  0  0  0  0  0  0  0  0  0  0
   -0.8069   -0.2041    0.0403 C   0  0  0  0  0  0  0  0  0  0  0  0
   -0.2402   -0.2197    1.3539 N   0  0  0  0  0  0  0  0  0  0  0  0
    1.1322   -0.5000    1.5592 N   0  0  0  0  0  0  0  0  0  0  0  0
    2.1356    0.3868    1.0974 C   0  0  0  0  0  0  0  0  0  0  0  0
    3.1620    0.0400    0.3664 C   0  0  0  0  0  0  0  0  0  0  0  0
    3.3488   -1.3579   -0.0423 C   0  0  0  0  0  0  0  0  0  0  0  0
    4.7856   -1.6538   -0.3016 C   0  0  0  0  0  0  0  0  0  0  0  0
    5.5773   -0.7307   -0.8086 C   0  0  0  0  0  0  0  0  0  0  0  0
    5.0357    0.6111   -1.1304 C   0  0  0  0  0  0  0  0  0  0  0  0
    4.1345    1.1096   -0.0230 C   0  0  0  0  0  0  0  0  0  0  0  0
   -2.2247    0.0905   -0.1773 C   0  0  0  0  0  0  0  0  0  0  0  0
   -3.0162    0.7324    0.7007 C   0  0  0  0  0  0  0  0  0  0  0  0
   -4.3610    1.0175    0.5351 C   0  0  0  0  0  0  0  0  0  0  0  0
   -4.9793    0.6021   -0.6605 C   0  0  0  0  0  0  0  0  0  0  0  0
   -6.6726    0.9132   -0.9556 Cl  0  0  0  0  0  0  0  0  0  0  0  0
   -4.1773   -0.0444   -1.5489 C   0  0  0  0  0  0  0  0  0  0  0  0
   -2.8338   -0.3307   -1.3834 C   0  0  0  0  0  0  0  0  0  0  0  0
  1  2  2  0
  2  3  1  0
  3  4  1  0
  4  5  1  0
  5  6  2  0
  6  7  1  0
  7  8  1  0
  8  9  2  0
  9 10  1  0
 10 11  1  0
  2 12  1  0
 12 13  2  0
 13 14  1  0
 14 15  2  0
 15 16  1  0
 15 17  1  0
 17 18  2  0
 11  6  1  0
 18 12  1  0
M  END
>  <zinc_id>  (1) 
ZINC000003573684

>  <smiles>  (1) 
O=C(NN/C=C1\CC=CCC1)c1ccc(Cl)cc1

$$$$
