
     RDKit          3D

 19 20  0  0  0  0  0  0  0  0999 V2000
   -0.4517    0.8920    0.3457 O   0  0  0  0  0  0  0  0  0  0  0  0
   -0.0858    0.4268   -0.7721 C   0  0  0  0  0  0  0  0  0  0  0  0
   -1.0508    0.2092   -1.8974 C   0  0  0  0  0  0  0  0  0  0  0  0
   -2.3727    0.6106   -1.4638 N   0  0  0  0  0  0  0  0  0  0  0  0
   -3.0266    0.0058   -0.3677 C   0  0  0  0  0  0  0  0  0  0  0  0
   -2.4556   -1.0055    0.3604 C   0  0  0  0  0  0  0  0  0  0  0  0
   -3.0727   -1.6004    1.4201 C   0  0  0  0  0  0  0  0  0  0  0  0
   -4.3345   -1.1727    1.7883 C   0  0  0  0  0  0  0  0  0  0  0  0
   -4.9352   -0.1512    1.0688 C   0  0  0  0  0  0  0  0  0  0  0  0
   -4.2826    0.4295    0.0011 C   0  0  0  0  0  0  0  0  0  0  0  0
   -5.0944    1.7115   -0.8636 Cl  0  0  0  0  0  0  0  0  0  0  0  0
    1.2973    0.1214   -0.8999 N   0  0  0  0  0  0  0  0  0  0  0  0
    2.1741    0.3288    0.1497 N   0  0  0  0  0  0  0  0  0  0  0  0
    3.4389    0.3952    0.0558 C   0  0  0  0  0  0  0  0  0  0  0  0
    4.2027    0.2594   -1.2160 C   0  0  0  0  0  0  0  0  0  0  0  0
    5.5241   -0.4096   -0.8481 C   0  0  0  0  0  0  0  0  0  0  0  0
    5.3258   -1.3783    0.2795 C   0  0  0  0  0  0  0  0  0  0  0  0
    4.9594   -0.7018    1.5695 C   0  0  0  0  0  0  0  0  0  0  0  0
    4.2402    0.6244    1.2897 C   0  0  0  0  0  0  0  0  0  0  0  0
  1  2  2  0
  2  3  1  0
  3  4  1  0
  4  5  1  0
  5  6  2  0
  6  7  1  0
  7  8  2  0
  8  9  1  0
  9 10  2  0
 10 11  1  0
  2 12  1  0
 12 13  1  0
 13 14  2  3
 14 15  1  0
 15 16  1  0
 16 17  1  0
 17 18  1  0
 18 19  1  0
 10  5  1  0
 19 14  1  0
M  END
>  <zinc_id>  (1) 
ZINC000000583790

>  <smiles>  (1) 
O=C(CNc1ccccc1Cl)NN=C1CCCCC1

$$$$
