
     RDKit          3D

 20 22  0  0  0  0  0  0  0  0999 V2000
    4.9118   -0.2229   -1.5424 C   0  0  0  0  0  0  0  0  0  0  0  0
    3.9272   -0.3109   -0.3761 C   0  0  0  0  0  0  0  0  0  0  0  0
    3.8614    1.0514    0.2836 C   0  0  0  0  0  0  0  0  0  0  0  0
    2.8998    0.9715    1.4253 C   0  0  0  0  0  0  0  0  0  0  0  0
    1.5623    0.6013    1.0331 N   0  0  0  0  0  0  0  0  0  0  0  0
    1.2162   -0.7734    1.0048 C   0  0  0  0  0  0  0  0  0  0  0  0
    2.0947   -1.6103    1.3242 O   0  0  0  0  0  0  0  0  0  0  0  0
   -0.1473   -1.1585    0.6055 C   0  0  0  0  0  0  0  0  0  0  0  0
   -0.5051   -2.4740    0.5702 C   0  0  0  0  0  0  0  0  0  0  0  0
   -1.7620   -2.8650    0.2041 C   0  0  0  0  0  0  0  0  0  0  0  0
   -2.7162   -1.9437   -0.1435 C   0  0  0  0  0  0  0  0  0  0  0  0
   -2.3678   -0.5955   -0.1130 C   0  0  0  0  0  0  0  0  0  0  0  0
   -3.3135    0.3303   -0.4583 C   0  0  0  0  0  0  0  0  0  0  0  0
   -4.6274   -0.0810   -0.8408 N   0  0  0  0  0  0  0  0  0  0  0  0
   -2.9929    1.6839   -0.4366 C   0  0  0  0  0  0  0  0  0  0  0  0
   -1.7147    2.0598   -0.0631 C   0  0  0  0  0  0  0  0  0  0  0  0
   -0.7556    1.1488    0.2854 C   0  0  0  0  0  0  0  0  0  0  0  0
   -1.0844   -0.2067    0.2614 C   0  0  0  0  0  0  0  0  0  0  0  0
    0.6005    1.5866    0.6795 C   0  0  0  0  0  0  0  0  0  0  0  0
    0.9129    2.8082    0.7061 O   0  0  0  0  0  0  0  0  0  0  0  0
  1  2  1  0
  2  3  1  0
  3  4  1  0
  4  5  1  0
  5  6  1  0
  6  7  2  0
  6  8  1  0
  8  9  1  0
  9 10  2  0
 10 11  1  0
 11 12  2  0
 12 13  1  0
 13 14  1  0
 13 15  2  0
 15 16  1  0
 16 17  2  0
 17 18  1  0
 17 19  1  0
 19 20  2  0
 19  5  1  0
 18  8  2  0
 18 12  1  0
M  END
>  <zinc_id>  (1) 
ZINC000004300899

>  <smiles>  (1) 
CCCCN1C(=O)c2cccc3c(N)ccc(c23)C1=O

$$$$
