
     RDKit          3D

 22 24  0  0  0  0  0  0  0  0999 V2000
   -5.1109    1.1578   -0.5412 C   0  0  0  0  0  0  0  0  0  0  0  0
   -4.6357    1.1235    0.7948 O   0  0  0  0  0  0  0  0  0  0  0  0
   -3.3608    0.6398    1.0651 C   0  0  0  0  0  0  0  0  0  0  0  0
   -2.8476    0.5831    2.3408 C   0  0  0  0  0  0  0  0  0  0  0  0
   -1.5824    0.0989    2.5733 C   0  0  0  0  0  0  0  0  0  0  0  0
   -0.7840   -0.3466    1.5362 C   0  0  0  0  0  0  0  0  0  0  0  0
   -1.2539   -0.3002    0.3212 C   0  0  0  0  0  0  0  0  0  0  0  0
   -0.5313   -0.7565   -1.0252 C   0  0  1  0  0  0  0  0  0  0  0  0
   -0.7985    0.3690   -1.9499 N   0  0  0  0  0  0  0  0  0  0  0  0
    0.1039    1.3168   -2.4016 C   0  0  0  0  0  0  0  0  0  0  0  0
   -0.3340    2.2264   -3.1987 O   0  0  0  0  0  0  0  0  0  0  0  0
    1.4717    1.2960   -2.0048 N   0  0  0  0  0  0  0  0  0  0  0  0
    1.7873    0.2287   -1.1222 C   0  0  0  0  0  0  0  0  0  0  0  0
    1.0003   -0.6794   -0.6616 C   0  0  0  0  0  0  0  0  0  0  0  0
    1.4953   -1.7251    0.2367 C   0  0  0  0  0  0  0  0  0  0  0  0
    0.9843   -2.8292   -0.0027 O   0  0  0  0  0  0  0  0  0  0  0  0
    2.4777   -1.3390    1.2455 C   0  0  0  0  0  0  0  0  0  0  0  0
    3.3562   -0.1937    0.8012 C   0  0  0  0  0  0  0  0  0  0  0  0
    3.0437    1.1015    1.5169 C   0  0  0  0  0  0  0  0  0  0  0  0
    4.7852   -0.5936    1.0850 C   0  0  0  0  0  0  0  0  0  0  0  0
    3.2388    0.0876   -0.6604 C   0  0  0  0  0  0  0  0  0  0  0  0
   -2.5054    0.1740    0.0515 C   0  0  0  0  0  0  0  0  0  0  0  0
  1  2  1  0
  2  3  1  0
  3  4  2  0
  4  5  1  0
  5  6  2  0
  6  7  1  0
  8  7  1  1
  8  9  1  0
  9 10  1  0
 10 11  2  0
 10 12  1  0
 12 13  1  0
 13 14  2  0
 14 15  1  0
 15 16  2  0
 15 17  1  0
 17 18  1  0
 18 19  1  0
 18 20  1  0
 18 21  1  0
  7 22  2  0
 22  3  1  0
 14  8  1  0
 21 13  1  0
M  END
>  <zinc_id>  (1) 
ZINC000000390467

>  <smiles>  (1) 
COc1cccc([C@H]2NC(=O)NC3=C2C(=O)CC(C)(C)C3)c1

$$$$
