
     RDKit          3D

 20 21  0  0  0  0  0  0  0  0999 V2000
   -0.3962   -1.2885    1.0660 O   0  0  0  0  0  0  0  0  0  0  0  0
    0.0511   -0.3248    0.3991 C   0  0  0  0  0  0  0  0  0  0  0  0
   -0.8787    0.5423   -0.1907 N   0  0  0  0  0  0  0  0  0  0  0  0
   -2.2917    0.4066   -0.0864 C   0  0  0  0  0  0  0  0  0  0  0  0
   -3.1756    1.5392   -0.8593 S   0  0  0  0  0  0  0  0  0  0  0  0
   -2.9381   -0.6079    0.6202 N   0  0  0  0  0  0  0  0  0  0  0  0
   -4.3637   -0.7175    0.7048 C   0  0  0  0  0  0  0  0  0  0  0  0
   -5.0656    0.4493    1.2915 C   0  0  0  0  0  0  0  0  0  0  0  0
   -6.2269    0.7714    0.3739 C   0  0  0  0  0  0  0  0  0  0  0  0
   -5.8008    0.1939   -0.9567 C   0  0  0  0  0  0  0  0  0  0  0  0
   -4.9779   -1.0022   -0.5957 C   0  0  0  0  0  0  0  0  0  0  0  0
    1.4997   -0.1921    0.2965 C   0  0  0  0  0  0  0  0  0  0  0  0
    2.3502   -1.0889    0.9075 C   0  0  0  0  0  0  0  0  0  0  0  0
    3.7243   -0.9852    0.8255 C   0  0  0  0  0  0  0  0  0  0  0  0
    4.3228    0.0347    0.1187 C   0  0  0  0  0  0  0  0  0  0  0  0
    5.7448    0.1476    0.0301 N   0  0  0  0  0  4  0  0  0  0  0  0
    6.2376    1.0894   -0.6221 O   0  0  0  0  0  0  0  0  0  0  0  0
    6.5995   -0.7290    0.6271 O   0  0  0  0  0  1  0  0  0  0  0  0
    3.4797    0.9346   -0.4944 C   0  0  0  0  0  0  0  0  0  0  0  0
    2.1054    0.8272   -0.4099 C   0  0  0  0  0  0  0  0  0  0  0  0
  1  2  2  0
  2  3  1  0
  3  4  1  0
  4  5  2  0
  4  6  1  0
  6  7  1  0
  7  8  1  0
  8  9  1  0
  9 10  1  0
 10 11  1  0
  2 12  1  0
 12 13  2  0
 13 14  1  0
 14 15  2  0
 15 16  1  0
 16 17  2  0
 16 18  1  0
 15 19  1  0
 19 20  2  0
 11  7  1  0
 20 12  1  0
M  CHG  2  16   1  18  -1
M  END
>  <zinc_id>  (1) 
ZINC000003070606

>  <smiles>  (1) 
O=C(NC(=S)NC1CCCC1)c1ccc([N+](=O)[O-])cc1

$$$$
