
     RDKit          3D

 19 21  0  0  0  0  0  0  0  0999 V2000
    0.4915    1.4669    0.5493 C   0  0  0  0  0  0  0  0  0  0  0  0
    0.3225    0.1230   -0.3583 C   0  0  2  0  0  0  0  0  0  0  0  0
   -1.2475    0.0459   -0.2256 C   0  0  0  0  0  0  0  0  0  0  0  0
   -2.2044    0.9970   -0.4491 C   0  0  0  0  0  0  0  0  0  0  0  0
   -3.5284    0.6532   -0.3021 C   0  0  0  0  0  0  0  0  0  0  0  0
   -4.5597    1.5939   -0.5200 O   0  0  0  0  0  0  0  0  0  0  0  0
   -3.8388   -0.6396    0.0659 C   0  0  0  0  0  0  0  0  0  0  0  0
   -5.1889   -0.9447    0.2028 O   0  0  0  0  0  0  0  0  0  0  0  0
   -2.8530   -1.5920    0.2895 C   0  0  0  0  0  0  0  0  0  0  0  0
   -1.5280   -1.2185    0.1346 C   0  0  0  0  0  0  0  0  0  0  0  0
   -0.3813   -1.9822    0.3038 O   0  0  0  0  0  0  0  0  0  0  0  0
    0.5519   -0.9140    0.9906 C   0  0  1  0  0  0  0  0  0  0  0  0
    1.9138   -1.6074    0.3283 C   0  0  0  0  0  0  0  0  0  0  0  0
    2.8146   -0.4325    0.1717 C   0  0  0  0  0  0  0  0  0  0  0  0
    2.8458    0.3429   -0.9686 C   0  0  0  0  0  0  0  0  0  0  0  0
    3.6812    1.4300   -1.1097 C   0  0  0  0  0  0  0  0  0  0  0  0
    4.5314    1.7659   -0.0632 C   0  0  0  0  0  0  0  0  0  0  0  0
    4.5178    1.0049    1.0872 C   0  0  0  0  0  0  0  0  0  0  0  0
    3.6595   -0.0927    1.2025 C   0  0  0  0  0  0  0  0  0  0  0  0
  2  1  1  1
  2  3  1  0
  3  4  2  0
  4  5  1  0
  5  6  1  0
  5  7  2  0
  7  8  1  0
  7  9  1  0
  9 10  2  0
 10 11  1  0
 11 12  1  0
 12 13  1  6
 13 14  1  0
 14 15  2  0
 15 16  1  0
 16 17  2  0
 17 18  1  0
 18 19  2  0
 12  2  1  0
 19 14  1  0
 10  3  1  0
M  END
>  <zinc_id>  (1) 
ZINC000000005140

>  <smiles>  (1) 
C[C@@H]1c2cc(O)c(O)cc2O[C@H]1Cc1ccccc1

$$$$
