
     RDKit          3D

 21 24  0  0  0  0  0  0  0  0999 V2000
    0.5013    2.5018    1.4300 O   0  0  0  0  0  0  0  0  0  0  0  0
   -0.3639    1.5772    1.3015 C   0  0  0  0  0  0  0  0  0  0  0  0
   -1.6068    1.7847    0.3684 C   0  0  1  0  0  0  0  0  0  0  0  0
   -1.0955    0.6896   -0.8472 C   0  0  2  0  0  0  0  0  0  0  0  0
   -2.2628    1.1586   -1.7917 C   0  0  0  0  0  0  0  0  0  0  0  0
   -3.3455    0.7713   -1.3444 C   0  0  0  0  0  0  0  0  0  0  0  0
   -3.2733   -0.0644   -0.0188 C   0  0  1  0  0  0  0  0  0  0  0  0
   -1.7850   -0.6395   -0.3572 C   0  0  0  0  0  0  0  0  0  0  0  0
   -2.6886    0.9138    1.1484 C   0  0  1  0  0  0  0  0  0  0  0  0
   -1.7717   -0.0443    1.9871 C   0  0  0  0  0  0  0  0  0  0  0  0
   -2.3525   -0.9543    2.6121 O   0  0  0  0  0  0  0  0  0  0  0  0
   -0.4411    0.3272    1.8611 N   0  0  0  0  0  0  0  0  0  0  0  0
    0.6661   -0.4997    2.2729 C   0  0  0  0  0  0  0  0  0  0  0  0
    1.1593   -1.3820    1.2744 N   0  0  0  0  0  0  0  0  0  0  0  0
    1.8171   -0.9630    0.0963 C   0  0  0  0  0  0  0  0  0  0  0  0
    2.1180   -1.9648   -0.8374 C   0  0  0  0  0  0  0  0  0  0  0  0
    2.7681   -1.5796   -1.9773 C   0  0  0  0  0  0  0  0  0  0  0  0
    3.1390   -0.2847   -2.2574 C   0  0  0  0  0  0  0  0  0  0  0  0
    3.7952    0.1021   -3.4085 O   0  0  0  0  0  0  0  0  0  0  0  0
    2.8357    0.6872   -1.3293 C   0  0  0  0  0  0  0  0  0  0  0  0
    2.1869    0.3281   -0.1830 C   0  0  0  0  0  0  0  0  0  0  0  0
  1  2  2  0
  3  2  1  1
  3  4  1  0
  4  5  1  6
  5  6  2  0
  7  6  1  6
  7  8  1  0
  7  9  1  0
  9 10  1  1
 10 11  2  0
 10 12  1  0
 12 13  1  0
 13 14  1  0
 14 15  1  0
 15 16  2  0
 16 17  1  0
 17 18  2  0
 18 19  1  0
 18 20  1  0
 20 21  2  0
 12  2  1  0
 21 15  1  0
  9  3  1  0
  8  4  1  0
M  END
>  <zinc_id>  (1) 
ZINC000000088772

>  <smiles>  (1) 
O=C1[C@H]2[C@@H]3C=C[C@@H](C3)[C@H]2C(=O)N1CNc1ccc(O)cc1

$$$$
