
     RDKit          3D

 19 20  0  0  0  0  0  0  0  0999 V2000
    3.9374    0.3587   -1.2106 C   0  0  0  0  0  0  0  0  0  0  0  0
    3.8867    1.2453   -0.0197 C   0  0  0  0  0  0  0  0  0  0  0  0
    5.1276    1.7593    0.5398 C   0  0  0  0  0  0  0  0  0  0  0  0
    2.6344    1.4520    0.6965 C   0  0  0  0  0  0  0  0  0  0  0  0
    2.2457   -0.1096    1.2763 C   0  0  2  0  0  0  0  0  0  0  0  0
    2.2475   -0.6408   -0.2202 N   0  0  0  0  0  0  0  0  0  0  0  0
    1.0410   -1.3293   -0.3469 C   0  0  0  0  0  0  0  0  0  0  0  0
    0.8272   -2.2548   -1.2036 O   0  0  0  0  0  0  0  0  0  0  0  0
    0.0937   -0.8394    0.6413 N   0  0  0  0  0  0  0  0  0  0  0  0
   -1.2595   -1.3642    0.5341 C   0  0  0  0  0  0  0  0  0  0  0  0
   -2.1932   -0.3988   -0.1476 C   0  0  0  0  0  0  0  0  0  0  0  0
   -2.6969    0.6650    0.6169 C   0  0  0  0  0  0  0  0  0  0  0  0
   -3.7215    1.4443    0.2136 C   0  0  0  0  0  0  0  0  0  0  0  0
   -4.3105    1.1736   -1.0306 C   0  0  0  0  0  0  0  0  0  0  0  0
   -3.8583    0.1254   -1.8549 C   0  0  0  0  0  0  0  0  0  0  0  0
   -2.7525   -0.6635   -1.3545 C   0  0  0  0  0  0  0  0  0  0  0  0
   -2.1587   -1.9020   -2.4984 Cl  0  0  0  0  0  0  0  0  0  0  0  0
    0.7095    0.1573    1.3766 C   0  0  0  0  0  0  0  0  0  0  0  0
    0.2005    1.1213    2.0266 O   0  0  0  0  0  0  0  0  0  0  0  0
  1  2  1  0
  2  3  1  0
  2  4  1  0
  5  4  1  6
  5  6  1  0
  6  7  1  0
  7  8  2  0
  7  9  1  0
  9 10  1  0
 10 11  1  0
 11 12  2  0
 12 13  1  0
 13 14  2  0
 14 15  1  0
 15 16  2  0
 16 17  1  0
  9 18  1  0
 18 19  2  0
 18  5  1  0
 16 11  1  0
M  END
>  <zinc_id>  (1) 
ZINC000003487565

>  <smiles>  (1) 
CC(C)C[C@@H]1NC(=O)N(Cc2ccccc2Cl)C1=O

$$$$
