
     RDKit          3D

 21 23  0  0  0  0  0  0  0  0999 V2000
    1.9412    1.1130    2.1125 C   0  0  0  0  0  0  0  0  0  0  0  0
    2.8947    1.3358    0.7717 C   0  0  1  0  0  0  0  0  0  0  0  0
    3.9187    0.1158    1.2471 C   0  0  0  0  0  0  0  0  0  0  0  0
    4.9727    0.2423    0.1488 C   0  0  0  0  0  0  0  0  0  0  0  0
    4.2785    0.0586   -1.1961 C   0  0  0  0  0  0  0  0  0  0  0  0
    2.9477   -0.5682   -0.9065 C   0  0  0  0  0  0  0  0  0  0  0  0
    2.0133    0.3794   -0.2061 C   0  0  2  0  0  0  0  0  0  0  0  0
    1.5079    1.2924   -1.2129 N   0  0  0  0  0  0  0  0  0  0  0  0
    0.2423    0.7372   -1.5707 C   0  0  0  0  0  0  0  0  0  0  0  0
   -0.4050    1.0292   -2.6226 O   0  0  0  0  0  0  0  0  0  0  0  0
   -0.1442   -0.1928   -0.5395 N   0  0  0  0  0  0  0  0  0  0  0  0
   -1.4218   -0.9076   -0.6040 C   0  0  0  0  0  0  0  0  0  0  0  0
   -2.5194    0.0747    0.1075 C   0  0  0  0  0  0  0  0  0  0  0  0
   -2.1625    0.3004    1.3618 C   0  0  0  0  0  0  0  0  0  0  0  0
   -3.3072    0.8244    2.0984 C   0  0  0  0  0  0  0  0  0  0  0  0
   -4.5152    0.9807    1.4700 C   0  0  0  0  0  0  0  0  0  0  0  0
   -4.6610    0.6942    0.0850 C   0  0  0  0  0  0  0  0  0  0  0  0
   -3.5064    0.2150   -0.5272 C   0  0  0  0  0  0  0  0  0  0  0  0
   -3.6702    0.0838   -1.9390 F   0  0  0  0  0  0  0  0  0  0  0  0
    0.8699   -0.2128    0.3999 C   0  0  0  0  0  0  0  0  0  0  0  0
    0.7259   -0.7138    1.5218 O   0  0  0  0  0  0  0  0  0  0  0  0
  2  1  1  1
  2  3  1  0
  3  4  1  0
  4  5  1  0
  5  6  1  0
  7  6  1  6
  7  8  1  0
  8  9  1  0
  9 10  2  0
  9 11  1  0
 11 12  1  0
 12 13  1  0
 13 14  2  0
 14 15  1  0
 15 16  2  0
 16 17  1  0
 17 18  2  0
 18 19  1  0
 11 20  1  0
 20 21  2  0
  7  2  1  0
 18 13  1  0
 20  7  1  0
M  END
>  <zinc_id>  (1) 
ZINC000003355401

>  <smiles>  (1) 
C[C@H]1CCCC[C@]12NC(=O)N(Cc1ccccc1F)C2=O

$$$$
