
     RDKit          3D

 22 24  0  0  0  0  0  0  0  0999 V2000
   -3.5552    2.6418    1.5569 C   0  0  0  0  0  0  0  0  0  0  0  0
   -2.6769    1.5455    1.4226 O   0  0  0  0  0  0  0  0  0  0  0  0
   -3.0658    0.8195    0.2913 C   0  0  0  0  0  0  0  0  0  0  0  0
   -4.4820    0.3221    0.4420 C   0  0  0  0  0  0  0  0  0  0  0  0
   -2.9048    1.6506   -0.9583 C   0  0  0  0  0  0  0  0  0  0  0  0
   -2.1422   -0.3496    0.1501 C   0  0  0  0  0  0  0  0  0  0  0  0
   -0.7898   -0.1139    0.0039 C   0  0  0  0  0  0  0  0  0  0  0  0
    0.0958   -1.1604   -0.1290 C   0  0  0  0  0  0  0  0  0  0  0  0
    1.5338   -0.9217   -0.2845 C   0  0  0  0  0  0  0  0  0  0  0  0
    2.4292   -1.9615   -0.4188 C   0  0  0  0  0  0  0  0  0  0  0  0
    3.7676   -1.6758   -0.5610 C   0  0  0  0  0  0  0  0  0  0  0  0
    4.2345   -0.3774   -0.5726 C   0  0  0  0  0  0  0  0  0  0  0  0
    3.3176    0.6373   -0.4368 C   0  0  0  0  0  0  0  0  0  0  0  0
    3.8066    1.9345   -0.4511 C   0  0  0  0  0  0  0  0  0  0  0  0
    2.9188    2.9836   -0.3177 C   0  0  0  0  0  0  0  0  0  0  0  0
    1.5600    2.7402   -0.1719 C   0  0  0  0  0  0  0  0  0  0  0  0
    1.1128    1.4349   -0.1625 C   0  0  0  0  0  0  0  0  0  0  0  0
    1.9699    0.3834   -0.2925 C   0  0  0  0  0  0  0  0  0  0  0  0
   -0.4334   -2.3979   -0.1074 N   0  0  0  0  0  0  0  0  0  0  0  0
   -1.7600   -2.6053    0.0367 C   0  0  0  0  0  0  0  0  0  0  0  0
   -2.2949   -3.9324    0.0561 N   0  0  0  0  0  0  0  0  0  0  0  0
   -2.6416   -1.5975    0.1681 N   0  0  0  0  0  0  0  0  0  0  0  0
  1  2  1  0
  2  3  1  0
  3  4  1  0
  3  5  1  0
  3  6  1  0
  6  7  2  0
  7  8  1  0
  8  9  1  0
  9 10  2  0
 10 11  1  0
 11 12  2  0
 12 13  1  0
 13 14  2  0
 14 15  1  0
 15 16  2  0
 16 17  1  0
 17 18  2  0
  8 19  2  0
 19 20  1  0
 20 21  1  0
 20 22  2  0
 22  6  1  0
 18  9  1  0
 18 13  1  0
M  END
>  <zinc_id>  (1) 
ZINC000000275194

>  <smiles>  (1) 
COC(C)(C)c1cc(-c2cccc3ccccc23)nc(N)n1

$$$$
