
     RDKit          3D

 20 21  0  0  0  0  0  0  0  0999 V2000
   -0.8700    1.0728   -3.5421 C   0  0  0  0  0  0  0  0  0  0  0  0
   -1.8160    0.5930   -2.4708 C   0  0  0  0  0  0  0  0  0  0  0  0
   -3.4966    0.3724   -2.5330 S   0  0  0  0  0  0  0  0  0  0  0  0
   -3.7603   -0.1836   -0.9510 C   0  0  0  0  0  0  0  0  0  0  0  0
   -5.0095   -0.5610   -0.3272 N   0  0  0  0  0  0  0  0  0  0  0  0
   -2.4995   -0.1845   -0.3980 C   0  0  0  0  0  0  0  0  0  0  0  0
   -2.3201   -0.6181    1.0221 C   0  0  0  0  0  0  0  0  0  0  0  0
   -1.0278   -0.6439    1.6318 N   0  0  0  0  0  0  0  0  0  0  0  0
   -3.2794   -0.9736    1.7366 O   0  0  0  0  0  0  0  0  0  0  0  0
   -1.4852    0.2199   -1.1874 C   0  0  0  0  0  0  0  0  0  0  0  0
   -0.0663    0.3024   -0.7188 C   0  0  0  0  0  0  0  0  0  0  0  0
    0.3370    1.3326    0.0970 C   0  0  0  0  0  0  0  0  0  0  0  0
    1.6724    1.4285    0.5154 C   0  0  0  0  0  0  0  0  0  0  0  0
    2.6210    0.5101    0.1329 C   0  0  0  0  0  0  0  0  0  0  0  0
    4.0475    0.6326    0.6221 C   0  0  0  0  0  0  0  0  0  0  0  0
    4.2312   -0.2347    1.8619 C   0  0  0  0  0  0  0  0  0  0  0  0
    3.8959   -1.6555    1.3719 C   0  0  0  0  0  0  0  0  0  0  0  0
    5.7350   -0.2876    2.1192 C   0  0  0  0  0  0  0  0  0  0  0  0
    2.2041   -0.5156   -0.6840 C   0  0  0  0  0  0  0  0  0  0  0  0
    0.8866   -0.6061   -1.0932 C   0  0  0  0  0  0  0  0  0  0  0  0
  1  2  1  0
  2  3  1  0
  3  4  1  0
  4  5  1  0
  4  6  2  0
  6  7  1  0
  7  8  1  0
  7  9  2  0
  6 10  1  0
 10 11  1  0
 11 12  2  0
 12 13  1  0
 13 14  2  0
 14 15  1  0
 15 16  1  0
 16 17  1  0
 16 18  1  0
 14 19  1  0
 19 20  2  0
 10  2  2  0
 20 11  1  0
M  END
>  <zinc_id>  (1) 
ZINC000002584877

>  <smiles>  (1) 
Cc1sc(N)c(C(N)=O)c1-c1ccc(CC(C)C)cc1

$$$$
