
     RDKit          3D

 22 24  0  0  0  0  0  0  0  0999 V2000
   -3.2985   -2.5254    0.0816 C   0  0  0  0  0  0  0  0  0  0  0  0
   -3.2457   -1.0426   -0.0539 C   0  0  0  0  0  0  0  0  0  0  0  0
   -2.2133   -0.4269   -0.6275 C   0  0  0  0  0  0  0  0  0  0  0  0
   -1.1097   -1.2647   -1.1311 C   0  0  0  0  0  0  0  0  0  0  0  0
    0.1964   -0.9834   -0.5213 C   0  0  0  0  0  0  0  0  0  0  0  0
    1.1676   -0.2716   -1.2074 C   0  0  0  0  0  0  0  0  0  0  0  0
    2.4003    0.0179   -0.6865 C   0  0  0  0  0  0  0  0  0  0  0  0
    3.3797    0.7225   -1.3486 C   0  0  0  0  0  0  0  0  0  0  0  0
    4.6171    0.9910   -0.7758 C   0  0  0  0  0  0  0  0  0  0  0  0
    4.8115    0.5025    0.5169 C   0  0  0  0  0  0  0  0  0  0  0  0
    5.8951    0.6883    1.1302 O   0  0  0  0  0  0  0  0  0  0  0  0
    3.8762   -0.1668    1.1409 O   0  0  0  0  0  0  0  0  0  0  0  0
    2.7100   -0.4158    0.5920 C   0  0  0  0  0  0  0  0  0  0  0  0
    1.7575   -1.1190    1.2764 C   0  0  0  0  0  0  0  0  0  0  0  0
    0.5166   -1.4081    0.7471 C   0  0  0  0  0  0  0  0  0  0  0  0
   -0.4053   -2.1299    1.5030 O   0  0  0  0  0  0  0  0  0  0  0  0
   -2.1348    1.0416   -0.7752 C   0  0  0  0  0  0  0  0  0  0  0  0
   -3.3065    1.7805   -0.2255 C   0  0  0  0  0  0  0  0  0  0  0  0
   -3.0770    2.2574    1.2122 C   0  0  0  0  0  0  0  0  0  0  0  0
   -3.5156    3.0378   -1.0630 C   0  0  0  0  0  0  0  0  0  0  0  0
   -4.5987    1.0023   -0.2778 C   0  0  0  0  0  0  0  0  0  0  0  0
   -4.4229   -0.2874    0.4933 C   0  0  0  0  0  0  0  0  0  0  0  0
  1  2  1  0
  2  3  2  0
  3  4  1  0
  4  5  1  0
  5  6  2  0
  6  7  1  0
  7  8  1  0
  8  9  2  0
  9 10  1  0
 10 11  2  0
 10 12  1  0
 12 13  1  0
 13 14  1  0
 14 15  2  0
 15 16  1  0
  3 17  1  0
 17 18  1  0
 18 19  1  0
 18 20  1  0
 18 21  1  0
 21 22  1  0
 22  2  1  0
 15  5  1  0
 13  7  2  0
M  END
>  <zinc_id>  (1) 
ZINC000000315507

>  <smiles>  (1) 
CC1=C(Cc2cc3ccc(=O)oc3cc2O)CC(C)(C)CC1

$$$$
