
     RDKit          3D

 23 27  0  0  0  0  0  0  0  0999 V2000
    2.1417    1.8629   -1.6668 O   0  0  0  0  0  0  0  0  0  0  0  0
    1.4539    0.9170   -1.2183 C   0  0  0  0  0  0  0  0  0  0  0  0
    0.1082    0.9312   -1.4897 N   0  0  0  0  0  0  0  0  0  0  0  0
   -0.6418   -0.4583   -1.6868 C   0  0  2  0  0  0  0  0  0  0  0  0
   -2.0208    0.1292   -1.1327 C   0  0  0  0  0  0  0  0  0  0  0  0
   -2.4629    1.3305   -1.5511 C   0  0  0  0  0  0  0  0  0  0  0  0
   -3.6688    1.7899   -1.0675 C   0  0  0  0  0  0  0  0  0  0  0  0
   -4.4314    1.0670   -0.1769 C   0  0  0  0  0  0  0  0  0  0  0  0
   -3.9424   -0.1562    0.2254 C   0  0  0  0  0  0  0  0  0  0  0  0
   -2.7467   -0.6149   -0.2522 C   0  0  0  0  0  0  0  0  0  0  0  0
   -4.8795   -0.6826    1.1111 O   0  0  0  0  0  0  0  0  0  0  0  0
   -6.1408   -0.0291    0.8974 C   0  0  0  0  0  0  0  0  0  0  0  0
   -5.6585    1.2560    0.4757 O   0  0  0  0  0  0  0  0  0  0  0  0
   -0.1830   -1.0469   -0.3223 N   0  0  0  0  0  0  0  0  0  0  0  0
    1.1791   -1.1368   -0.0048 C   0  0  0  0  0  0  0  0  0  0  0  0
    2.1699   -2.2337    0.8663 S   0  0  0  0  0  0  0  0  0  0  0  0
    3.6765   -1.4553    0.6793 C   0  0  0  0  0  0  0  0  0  0  0  0
    3.3577   -0.3569   -0.0617 C   0  0  0  0  0  0  0  0  0  0  0  0
    2.0440   -0.1978   -0.4164 C   0  0  0  0  0  0  0  0  0  0  0  0
    4.5787    0.4986   -0.3504 C   0  0  0  0  0  0  0  0  0  0  0  0
    5.3455    0.7691    0.9252 C   0  0  0  0  0  0  0  0  0  0  0  0
    5.6231   -0.4576    1.7256 C   0  0  0  0  0  0  0  0  0  0  0  0
    5.0984   -1.7252    1.1241 C   0  0  0  0  0  0  0  0  0  0  0  0
  1  2  2  0
  2  3  1  0
  3  4  1  0
  4  5  1  1
  5  6  2  0
  6  7  1  0
  7  8  2  0
  8  9  1  0
  9 10  2  0
  9 11  1  0
 11 12  1  0
 12 13  1  0
  4 14  1  0
 14 15  1  0
 15 16  1  0
 16 17  1  0
 17 18  2  0
 18 19  1  0
 18 20  1  0
 20 21  1  0
 21 22  1  0
 22 23  1  0
 19  2  1  0
 10  5  1  0
 19 15  2  0
 13  8  1  0
 23 17  1  0
M  END
>  <zinc_id>  (1) 
ZINC000000565651

>  <smiles>  (1) 
O=C1N[C@H](c2ccc3c(c2)OCO3)Nc2sc3c(c21)CCCC3

$$$$
