
     RDKit          3D

 21 24  0  0  0  0  0  0  0  0999 V2000
    4.4333   -1.8842    0.4781 C   0  0  0  0  0  0  0  0  0  0  0  0
    3.0348   -2.4117    0.1664 C   0  0  0  0  0  0  0  0  0  0  0  0
    2.0977   -1.2753    0.0127 C   0  0  0  0  0  0  0  0  0  0  0  0
    0.7717   -1.5974   -0.2762 C   0  0  0  0  0  0  0  0  0  0  0  0
    0.3334   -2.9065   -0.4162 O   0  0  0  0  0  0  0  0  0  0  0  0
   -0.1184   -0.6058   -0.4254 N   0  0  0  0  0  0  0  0  0  0  0  0
   -1.4418   -0.5365   -0.6993 C   0  0  0  0  0  0  0  0  0  0  0  0
   -1.8569    0.7742   -0.7375 C   0  0  0  0  0  0  0  0  0  0  0  0
   -0.7307    1.5267   -0.4744 C   0  0  0  0  0  0  0  0  0  0  0  0
   -0.3978    2.8584   -0.3555 C   0  0  0  0  0  0  0  0  0  0  0  0
    0.8817    3.2888   -0.0723 C   0  0  0  0  0  0  0  0  0  0  0  0
    1.9112    2.3699    0.1087 C   0  0  0  0  0  0  0  0  0  0  0  0
    1.5838    1.0285   -0.0093 C   0  0  0  0  0  0  0  0  0  0  0  0
    2.5166    0.0253    0.1484 C   0  0  0  0  0  0  0  0  0  0  0  0
    3.7009    0.2742    0.4050 O   0  0  0  0  0  0  0  0  0  0  0  0
    0.3022    0.6338   -0.2917 C   0  0  0  0  0  0  0  0  0  0  0  0
   -3.2094    1.2555   -1.0024 C   0  0  0  0  0  0  0  0  0  0  0  0
   -4.2716    0.1158   -0.4879 C   0  0  2  0  0  0  0  0  0  0  0  0
   -3.4551   -0.2655    0.8913 C   0  0  0  0  0  0  0  0  0  0  0  0
   -3.6614   -1.0647   -1.4470 C   0  0  0  0  0  0  0  0  0  0  0  0
   -2.4243   -1.6034   -0.9435 C   0  0  0  0  0  0  0  0  0  0  0  0
  1  2  1  0
  2  3  1  0
  3  4  2  0
  4  5  1  0
  4  6  1  0
  6  7  1  0
  7  8  2  0
  8  9  1  0
  9 10  1  0
 10 11  2  0
 11 12  1  0
 12 13  2  0
 13 14  1  0
 14 15  2  0
 13 16  1  0
  8 17  1  0
 17 18  1  0
 18 19  1  1
 18 20  1  0
 20 21  1  0
 14  3  1  0
 16  6  1  0
 21  7  1  0
 16  9  2  0
M  END
>  <zinc_id>  (1) 
ZINC000003957585

>  <smiles>  (1) 
CCc1c(O)n2c3c(c4cccc(c1=O)c42)C[C@H](C)CC3

$$$$
