
     RDKit          3D

 20 22  0  0  0  0  0  0  0  0999 V2000
   -2.0987   -1.5244   -0.6380 C   0  0  0  0  0  0  0  0  0  0  0  0
   -3.0607   -0.5783    0.0151 C   0  0  0  0  0  0  0  0  0  0  0  0
   -4.4259   -1.1062    0.2170 C   0  0  0  0  0  0  0  0  0  0  0  0
   -3.3192    0.6282   -1.0627 C   0  0  1  0  0  0  0  0  0  0  0  0
   -3.7230    1.7824    0.0347 C   0  0  0  0  0  0  0  0  0  0  0  0
   -3.7633    1.0645    1.3102 C   0  0  0  0  0  0  0  0  0  0  0  0
   -2.5648    0.1512    1.0929 C   0  0  1  0  0  0  0  0  0  0  0  0
   -2.0381   -0.3850    2.3209 C   0  0  0  0  0  0  0  0  0  0  0  0
   -1.4889    1.2605    0.5122 C   0  0  1  0  0  0  0  0  0  0  0  0
   -0.2690    0.3032    0.6489 O   0  0  0  0  0  0  0  0  0  0  0  0
    0.9303    0.8283    0.2570 C   0  0  0  0  0  0  0  0  0  0  0  0
    0.9211    2.0125   -0.1666 O   0  0  0  0  0  0  0  0  0  0  0  0
    2.2033    0.0859    0.3076 C   0  0  0  0  0  0  0  0  0  0  0  0
    2.3102   -1.2029    0.7522 C   0  0  0  0  0  0  0  0  0  0  0  0
    3.5269   -1.8563    0.7805 C   0  0  0  0  0  0  0  0  0  0  0  0
    4.6862   -1.2507    0.3664 C   0  0  0  0  0  0  0  0  0  0  0  0
    5.9246   -1.8613    0.3756 O   0  0  0  0  0  0  0  0  0  0  0  0
    4.5915    0.0500   -0.0846 C   0  0  0  0  0  0  0  0  0  0  0  0
    3.3659    0.6902   -0.1066 C   0  0  0  0  0  0  0  0  0  0  0  0
   -1.7087    0.9081   -1.0893 C   0  0  0  0  0  0  0  0  0  0  0  0
  1  2  1  0
  2  3  1  0
  2  4  1  0
  4  5  1  1
  5  6  1  0
  6  7  1  0
  7  8  1  1
  7  9  1  0
  9 10  1  1
 10 11  1  0
 11 12  2  0
 11 13  1  0
 13 14  2  0
 14 15  1  0
 15 16  2  0
 16 17  1  0
 16 18  1  0
 18 19  2  0
  9 20  1  0
  7  2  1  0
 19 13  1  0
 20  4  1  0
M  END
>  <zinc_id>  (1) 
ZINC000002146356

>  <smiles>  (1) 
CC1(C)[C@H]2CC[C@]1(C)[C@@H](OC(=O)c1ccc(O)cc1)C2

$$$$
