
     RDKit          3D

 22 24  0  0  0  0  0  0  0  0999 V2000
    5.3561    1.7987   -0.8361 C   0  0  0  0  0  0  0  0  0  0  0  0
    4.9787    1.0034    0.1433 C   0  0  0  0  0  0  0  0  0  0  0  0
    4.6084   -0.4206   -0.1731 C   0  0  0  0  0  0  0  0  0  0  0  0
    3.1790   -0.6343    0.2498 C   0  0  0  0  0  0  0  0  0  0  0  0
    2.9055   -1.3178    1.4172 C   0  0  0  0  0  0  0  0  0  0  0  0
    1.6148   -1.5308    1.8465 C   0  0  0  0  0  0  0  0  0  0  0  0
    0.5677   -1.0359    1.0687 C   0  0  0  0  0  0  0  0  0  0  0  0
    0.8592   -0.3540   -0.0969 C   0  0  0  0  0  0  0  0  0  0  0  0
    2.1582   -0.1387   -0.5310 C   0  0  0  0  0  0  0  0  0  0  0  0
    2.4399    0.5460   -1.7023 O   0  0  0  0  0  0  0  0  0  0  0  0
   -0.3929    0.0624   -0.7231 C   0  0  0  0  0  0  0  0  0  0  0  0
   -0.6223    0.7687   -1.8994 C   0  0  0  0  0  0  0  0  0  0  0  0
   -1.9249    1.0322   -2.2653 C   0  0  0  0  0  0  0  0  0  0  0  0
   -2.9771    0.6081   -1.4860 C   0  0  0  0  0  0  0  0  0  0  0  0
   -4.3130    0.8378   -1.7913 O   0  0  0  0  0  0  0  0  0  0  0  0
   -2.7119   -0.0878   -0.3290 C   0  0  0  0  0  0  0  0  0  0  0  0
   -3.8132   -0.5610    0.5577 C   0  0  0  0  0  0  0  0  0  0  0  0
   -4.3105    0.6328    1.3345 C   0  0  0  0  0  0  0  0  0  0  0  0
   -3.7624    1.8465    1.1657 C   0  0  0  0  0  0  0  0  0  0  0  0
   -1.4267   -0.3791    0.0827 C   0  0  0  0  0  0  0  0  0  0  0  0
   -0.8797   -1.0808    1.2299 C   0  0  0  0  0  0  0  0  0  0  0  0
   -1.5330   -1.5958    2.1334 O   0  0  0  0  0  0  0  0  0  0  0  0
  1  2  2  0
  2  3  1  0
  3  4  1  0
  4  5  2  0
  5  6  1  0
  6  7  2  0
  7  8  1  0
  8  9  2  0
  9 10  1  0
  8 11  1  0
 11 12  2  0
 12 13  1  0
 13 14  2  0
 14 15  1  0
 14 16  1  0
 16 17  1  0
 17 18  1  0
 18 19  2  0
 16 20  2  0
 20 21  1  0
 21 22  2  0
  9  4  1  0
 20 11  1  0
 21  7  1  0
M  END
>  <zinc_id>  (1) 
ZINC000000019492

>  <smiles>  (1) 
C=CCc1ccc2c(c1O)-c1ccc(O)c(CC=C)c1C2=O

$$$$
