
     RDKit          3D

 21 24  0  0  0  0  0  0  0  0999 V2000
    0.5229   -3.9200   -0.0222 C   0  0  0  0  0  0  0  0  0  0  0  0
   -0.2290   -2.6560   -0.1212 C   0  0  0  0  0  0  0  0  0  0  0  0
    0.3658   -1.4813   -0.0023 N   0  0  0  0  0  0  0  0  0  0  0  0
   -0.2409   -0.3044   -0.0793 C   0  0  0  0  0  0  0  0  0  0  0  0
    0.5571    0.8441    0.0723 N   0  0  0  0  0  0  0  0  0  0  0  0
    1.9375    0.8508    0.2975 C   0  0  0  0  0  0  0  0  0  0  0  0
    2.5900    2.0609    0.4267 C   0  0  0  0  0  0  0  0  0  0  0  0
    3.9673    2.1191    0.6524 C   0  0  0  0  0  0  0  0  0  0  0  0
    4.7175    0.9671    0.7529 C   0  0  0  0  0  0  0  0  0  0  0  0
    4.0713   -0.2445    0.6247 C   0  0  0  0  0  0  0  0  0  0  0  0
    4.8350   -1.4217    0.7270 O   0  0  0  0  0  0  0  0  0  0  0  0
    2.7114   -0.2904    0.4022 C   0  0  0  0  0  0  0  0  0  0  0  0
   -1.6302   -0.2304   -0.3044 C   0  0  0  0  0  0  0  0  0  0  0  0
   -2.4192    0.8821   -0.4123 C   0  0  0  0  0  0  0  0  0  0  0  0
   -3.7481    0.6724   -0.6322 C   0  0  0  0  0  0  0  0  0  0  0  0
   -3.8751   -1.0257   -0.6849 S   0  0  0  0  0  0  0  0  0  0  0  0
   -2.2433   -1.4385   -0.4269 C   0  0  0  0  0  0  0  0  0  0  0  0
   -1.5655   -2.6256   -0.3385 N   0  0  0  0  0  0  0  0  0  0  0  0
   -4.4991    1.9907   -0.7208 C   0  0  0  0  0  0  0  0  0  0  0  0
   -3.5775    2.8464    0.1573 C   0  0  0  0  0  0  0  0  0  0  0  0
   -2.2478    2.4049   -0.3680 C   0  0  0  0  0  0  0  0  0  0  0  0
  1  2  1  0
  2  3  2  0
  3  4  1  0
  4  5  1  0
  5  6  1  0
  6  7  2  0
  7  8  1  0
  8  9  2  0
  9 10  1  0
 10 11  1  0
 10 12  2  0
  4 13  2  0
 13 14  1  0
 14 15  2  0
 15 16  1  0
 16 17  1  0
 17 18  2  0
 15 19  1  0
 19 20  1  0
 20 21  1  0
 18  2  1  0
 12  6  1  0
 17 13  1  0
 21 14  1  0
M  END
>  <zinc_id>  (1) 
ZINC000003418718

>  <smiles>  (1) 
Cc1nc(Nc2cccc(O)c2)c2c3c(sc2n1)CCC3

$$$$
