
     RDKit          3D

 22 25  0  0  0  0  0  0  0  0999 V2000
   -3.9601    3.4906   -0.5942 C   0  0  0  0  0  0  0  0  0  0  0  0
   -3.8314    2.3576    0.2357 O   0  0  0  0  0  0  0  0  0  0  0  0
   -2.9000    1.3834   -0.0448 C   0  0  0  0  0  0  0  0  0  0  0  0
   -2.1285    1.4440   -1.0315 O   0  0  0  0  0  0  0  0  0  0  0  0
   -2.8419    0.2284    0.8911 C   0  0  0  0  0  0  0  0  0  0  0  0
   -1.7380   -0.7124    0.4313 C   0  0  0  0  0  0  0  0  0  0  0  0
   -2.0695   -1.1431   -0.8792 C   0  0  0  0  0  0  0  0  0  0  0  0
   -1.0781   -2.2738   -1.4736 C   0  0  2  0  0  0  0  0  0  0  0  0
   -1.0330   -3.2645   -0.2404 C   0  0  0  0  0  0  0  0  0  0  0  0
   -0.5115   -2.8261    1.1791 C   0  0  2  0  0  0  0  0  0  0  0  0
   -1.5715   -1.6403    1.4677 C   0  0  0  0  0  0  0  0  0  0  0  0
    0.7731   -1.8860    0.8363 C   0  0  0  0  0  0  0  0  0  0  0  0
    0.4932   -0.8403   -0.0731 C   0  0  0  0  0  0  0  0  0  0  0  0
    1.7415   -0.0186   -0.1666 C   0  0  0  0  0  0  0  0  0  0  0  0
    2.2145    0.6536    0.9653 C   0  0  0  0  0  0  0  0  0  0  0  0
    3.3520    1.4207    0.8917 C   0  0  0  0  0  0  0  0  0  0  0  0
    4.0356    1.5336   -0.2957 C   0  0  0  0  0  0  0  0  0  0  0  0
    5.2034    2.3319   -0.3600 N   0  0  0  0  0  0  0  0  0  0  0  0
    3.5894    0.8788   -1.4259 C   0  0  0  0  0  0  0  0  0  0  0  0
    2.4621    0.1315   -1.3130 C   0  0  0  0  0  0  0  0  0  0  0  0
    0.3108   -1.4656   -1.3481 C   0  0  0  0  0  0  0  0  0  0  0  0
   -0.5121    0.2168    0.3534 C   0  0  0  0  0  0  0  0  0  0  0  0
  1  2  1  0
  2  3  1  0
  3  4  2  0
  3  5  1  0
  5  6  1  0
  6  7  1  0
  8  7  1  1
  8  9  1  0
 10  9  1  6
 10 11  1  0
 10 12  1  0
 12 13  1  0
 13 14  1  0
 14 15  2  0
 15 16  1  0
 16 17  2  0
 17 18  1  0
 17 19  1  0
 19 20  2  0
 13 21  1  0
 13 22  1  0
 11  6  1  0
 20 14  1  0
 22  6  1  0
 21  8  1  0
M  END
>  <zinc_id>  (1) 
ZINC000000226062

>  <smiles>  (1) 
COC(=O)CC12C[C@@H]3C[C@H](C1)CC(c1ccc(N)cc1)(C3)C2

$$$$
