
     RDKit          3D

 18 19  0  0  0  0  0  0  0  0999 V2000
   -2.1460   -2.4439    1.0079 C   0  0  0  0  0  0  0  0  0  0  0  0
   -1.6104   -1.4405    0.2857 C   0  0  0  0  0  0  0  0  0  0  0  0
   -0.3425   -1.6998   -0.2498 N   0  0  0  0  0  0  0  0  0  0  0  0
    0.7503   -0.8391   -0.2550 N   0  0  0  0  0  0  0  0  0  0  0  0
    1.9356   -1.1763    0.4211 C   0  0  0  0  0  0  0  0  0  0  0  0
    2.0497   -2.2499    1.0442 O   0  0  0  0  0  0  0  0  0  0  0  0
    3.1106   -0.2643    0.4241 C   0  0  0  0  0  0  0  0  0  0  0  0
    3.2134    0.9544   -0.1805 C   0  0  0  0  0  0  0  0  0  0  0  0
    4.3762    1.6084   -0.0451 C   0  0  0  0  0  0  0  0  0  0  0  0
    5.3604    1.0156    0.6791 C   0  0  0  0  0  0  0  0  0  0  0  0
    4.6343   -0.4530    1.1569 S   0  0  0  0  0  0  0  0  0  0  0  0
   -2.3712   -0.2103    0.1287 C   0  0  0  0  0  0  0  0  0  0  0  0
   -3.6346    0.0138    0.6773 C   0  0  0  0  0  0  0  0  0  0  0  0
   -4.0285    1.2830    0.3157 C   0  0  0  0  0  0  0  0  0  0  0  0
   -5.3087    1.9376    0.6817 C   0  0  0  0  0  0  0  0  0  0  0  0
   -3.0885    1.8175   -0.4040 O   0  0  0  0  0  0  0  0  0  0  0  0
   -2.0830    0.9540   -0.5365 C   0  0  0  0  0  0  0  0  0  0  0  0
   -0.8172    1.1926   -1.2921 C   0  0  0  0  0  0  0  0  0  0  0  0
  1  2  2  0
  2  3  1  0
  3  4  1  0
  4  5  1  0
  5  6  2  0
  5  7  1  0
  7  8  2  0
  8  9  1  0
  9 10  2  0
 10 11  1  0
  2 12  1  0
 12 13  1  0
 13 14  2  0
 14 15  1  0
 14 16  1  0
 16 17  1  0
 17 18  1  0
 11  7  1  0
 17 12  2  0
M  END
>  <zinc_id>  (1) 
ZINC000002777400

>  <smiles>  (1) 
C=C(NNC(=O)c1cccs1)c1cc(C)oc1C

$$$$
