
     RDKit          3D

 21 23  0  0  0  0  0  0  0  0999 V2000
   -5.3162    1.0571    1.8949 C   0  0  0  0  0  0  0  0  0  0  0  0
   -4.8093    1.1166    0.4568 C   0  0  0  0  0  0  0  0  0  0  0  0
   -3.5615    0.5059    0.4259 O   0  0  0  0  0  0  0  0  0  0  0  0
   -2.7747    0.3621   -0.7122 C   0  0  0  0  0  0  0  0  0  0  0  0
   -3.2039    0.8059   -1.7850 O   0  0  0  0  0  0  0  0  0  0  0  0
   -1.4880   -0.3102   -0.5468 C   0  0  0  0  0  0  0  0  0  0  0  0
   -1.2280   -1.6744   -0.6619 C   0  0  0  0  0  0  0  0  0  0  0  0
   -2.2276   -2.7198   -0.9798 C   0  0  0  0  0  0  0  0  0  0  0  0
    0.0913   -1.8947   -0.4356 N   0  0  0  0  0  0  0  0  0  0  0  0
    0.7556   -3.1851   -0.4642 C   0  0  0  0  0  0  0  0  0  0  0  0
    0.7101   -0.7287   -0.1760 C   0  0  0  0  0  0  0  0  0  0  0  0
   -0.2631    0.2512   -0.2441 C   0  0  0  0  0  0  0  0  0  0  0  0
    0.0985    1.5617   -0.0165 C   0  0  0  0  0  0  0  0  0  0  0  0
    1.4195    1.9198    0.2801 C   0  0  0  0  0  0  0  0  0  0  0  0
    1.7074    3.2619    0.4975 O   0  0  0  0  0  0  0  0  0  0  0  0
    2.3790    0.9260    0.3439 C   0  0  0  0  0  0  0  0  0  0  0  0
    3.6845    1.2637    0.6350 C   0  0  0  0  0  0  0  0  0  0  0  0
    4.6626    0.2697    0.7023 C   0  0  0  0  0  0  0  0  0  0  0  0
    4.3297   -1.0444    0.4797 C   0  0  0  0  0  0  0  0  0  0  0  0
    3.0153   -1.3475    0.1911 C   0  0  0  0  0  0  0  0  0  0  0  0
    2.0188   -0.3968    0.1150 C   0  0  0  0  0  0  0  0  0  0  0  0
  1  2  1  0
  2  3  1  0
  3  4  1  0
  4  5  2  0
  4  6  1  0
  6  7  2  0
  7  8  1  0
  7  9  1  0
  9 10  1  0
  9 11  1  0
 11 12  2  0
 12 13  1  0
 13 14  2  0
 14 15  1  0
 14 16  1  0
 16 17  2  0
 17 18  1  0
 18 19  2  0
 19 20  1  0
 20 21  2  0
 12  6  1  0
 21 16  1  0
 21 11  1  0
M  END
>  <zinc_id>  (1) 
ZINC000000280652

>  <smiles>  (1) 
CCOC(=O)c1c(C)n(C)c2c1cc(O)c1ccccc12

$$$$
