
     RDKit          3D

 20 22  0  0  0  0  0  0  0  0999 V2000
    1.0022   -2.0655    3.1184 N   0  0  0  0  0  0  0  0  0  0  0  0
    0.3733   -1.4265    2.3778 C   0  0  0  0  0  0  0  0  0  0  0  0
   -0.4056   -0.6425    1.4312 C   0  0  0  0  0  0  0  0  0  0  0  0
   -1.0537    0.3501    1.9220 C   0  0  0  0  0  0  0  0  0  0  0  0
   -1.0008    0.6623    3.3600 N   0  0  0  0  0  0  0  0  0  0  0  0
   -1.8574    1.2257    1.1962 O   0  0  0  0  0  0  0  0  0  0  0  0
   -1.9041    0.9277   -0.1572 C   0  0  0  0  0  0  0  0  0  0  0  0
   -1.2909   -0.0430   -0.7405 C   0  0  0  0  0  0  0  0  0  0  0  0
   -1.4864   -0.1850   -2.2507 C   0  0  0  0  0  0  0  0  0  0  0  0
   -2.9442   -0.2335   -2.4805 C   0  0  0  0  0  0  0  0  0  0  0  0
   -3.6843    0.9106   -1.8788 C   0  0  0  0  0  0  0  0  0  0  0  0
   -2.7407    1.7919   -1.0904 C   0  0  0  0  0  0  0  0  0  0  0  0
   -0.4154   -1.0136   -0.0120 C   0  0  1  0  0  0  0  0  0  0  0  0
    1.0420   -0.7453   -0.4794 C   0  0  0  0  0  0  0  0  0  0  0  0
    1.7919   -1.5334   -1.2591 C   0  0  0  0  0  0  0  0  0  0  0  0
    3.0756   -1.1840   -1.6049 C   0  0  0  0  0  0  0  0  0  0  0  0
    3.6148   -0.0195   -1.1575 C   0  0  0  0  0  0  0  0  0  0  0  0
    2.8806    0.8228   -0.3529 C   0  0  0  0  0  0  0  0  0  0  0  0
    3.4287    1.9797    0.0863 F   0  0  0  0  0  0  0  0  0  0  0  0
    1.5743    0.4208   -0.0281 C   0  0  0  0  0  0  0  0  0  0  0  0
  1  2  3  0
  2  3  1  0
  3  4  2  0
  4  5  1  0
  4  6  1  0
  6  7  1  0
  7  8  2  0
  8  9  1  0
  9 10  1  0
 10 11  1  0
 11 12  1  0
  8 13  1  0
 13 14  1  1
 14 15  2  0
 15 16  1  0
 16 17  2  0
 17 18  1  0
 18 19  1  0
 18 20  2  0
 13  3  1  0
 20 14  1  0
 12  7  1  0
M  END
>  <zinc_id>  (1) 
ZINC000002360726

>  <smiles>  (1) 
N#CC1=C(N)OC2=C(CCCC2)[C@@H]1c1cccc(F)c1

$$$$
