
     RDKit          3D

 21 24  0  0  0  0  0  0  0  0999 V2000
   -5.8179    0.2058    1.6301 O   0  0  0  0  0  0  0  0  0  0  0  0
   -5.2312   -0.1616    0.6305 N   0  0  0  0  0  4  0  0  0  0  0  0
   -5.9490   -0.7751   -0.3761 O   0  0  0  0  0  1  0  0  0  0  0  0
   -3.8266    0.0224    0.5105 C   0  0  0  0  0  0  0  0  0  0  0  0
   -3.1920   -0.5134   -0.6125 C   0  0  0  0  0  0  0  0  0  0  0  0
   -1.8390   -0.3645   -0.7212 C   0  0  0  0  0  0  0  0  0  0  0  0
   -1.0637    0.3050    0.2326 C   0  0  0  0  0  0  0  0  0  0  0  0
    0.3114    0.3233   -0.0175 N   0  0  0  0  0  0  0  0  0  0  0  0
    1.2516    1.2485   -0.0024 N   0  0  0  0  0  0  0  0  0  0  0  0
    2.4709    0.7808   -0.3714 C   0  0  0  0  0  0  0  0  0  0  0  0
    3.7197    1.3915   -0.5523 C   0  0  0  0  0  0  0  0  0  0  0  0
    4.4630    2.4622   -0.0264 C   0  0  0  0  0  0  0  0  0  0  0  0
    5.6930    1.4273    0.1112 C   0  0  0  0  0  0  0  0  0  0  0  0
    4.8875    0.5934   -0.9459 C   0  0  0  0  0  0  0  0  0  0  0  0
    2.2429   -0.6073   -0.6437 C   0  0  0  0  0  0  0  0  0  0  0  0
    0.9569   -0.8423   -0.4296 C   0  0  0  0  0  0  0  0  0  0  0  0
    0.7124   -2.2465   -0.6860 N   0  0  0  0  0  0  0  0  0  0  0  0
    2.0281   -2.9167   -0.5154 C   0  0  0  0  0  0  0  0  0  0  0  0
    2.9901   -1.8252   -1.0382 C   0  0  0  0  0  0  0  0  0  0  0  0
   -1.6980    0.8198    1.3033 C   0  0  0  0  0  0  0  0  0  0  0  0
   -3.1101    0.6726    1.4482 C   0  0  0  0  0  0  0  0  0  0  0  0
  1  2  2  0
  2  3  1  0
  2  4  1  0
  4  5  2  0
  5  6  1  0
  6  7  2  0
  7  8  1  0
  8  9  1  0
  9 10  2  0
 10 11  1  0
 11 12  1  0
 12 13  1  0
 13 14  1  0
 10 15  1  0
 15 16  2  0
 16 17  1  0
 17 18  1  0
 18 19  1  0
  7 20  1  0
 20 21  2  0
 21  4  1  0
 16  8  1  0
 14 11  1  0
 19 15  1  0
M  CHG  2   2   1   3  -1
M  END
>  <zinc_id>  (1) 
ZINC000003701869

>  <smiles>  (1) 
O=[N+]([O-])c1ccc(-n2nc(C3CCC3)c3c2NCC3)cc1

$$$$
