
     RDKit          3D

 21 23  0  0  0  0  0  0  0  0999 V2000
   -0.1800    0.7266   -2.0451 C   0  0  0  0  0  0  0  0  0  0  0  0
   -0.6869    0.3994   -0.8804 C   0  0  0  0  0  0  0  0  0  0  0  0
   -2.0680    0.7510   -0.5948 C   0  0  0  0  0  0  0  0  0  0  0  0
   -2.8919    1.4092   -1.4898 C   0  0  0  0  0  0  0  0  0  0  0  0
   -4.1944    1.7145   -1.1633 C   0  0  0  0  0  0  0  0  0  0  0  0
   -4.7154    1.3730    0.0619 C   0  0  0  0  0  0  0  0  0  0  0  0
   -6.1091    1.6985    0.4023 C   0  0  0  0  0  0  0  0  0  0  0  0
   -3.8825    0.7192    0.9408 C   0  0  0  0  0  0  0  0  0  0  0  0
   -2.5817    0.4074    0.6317 C   0  0  0  0  0  0  0  0  0  0  0  0
   -1.7520   -0.2819    1.5904 N   0  0  0  0  0  0  0  0  0  0  0  0
   -0.4041   -0.6275    1.3191 C   0  0  0  0  0  0  0  0  0  0  0  0
    0.3108   -1.2367    2.1785 O   0  0  0  0  0  0  0  0  0  0  0  0
    0.1439   -0.2812    0.0560 N   0  0  0  0  0  0  0  0  0  0  0  0
    1.4966   -0.6400   -0.2062 C   0  0  0  0  0  0  0  0  0  0  0  0
    1.9150   -1.9057   -0.5204 C   0  0  0  0  0  0  0  0  0  0  0  0
    3.2711   -2.0931   -0.7435 C   0  0  0  0  0  0  0  0  0  0  0  0
    4.1791   -1.0740   -0.6608 C   0  0  0  0  0  0  0  0  0  0  0  0
    5.5199   -1.3539   -0.9008 O   0  0  0  0  0  0  0  0  0  0  0  0
    6.4958   -0.3280   -0.8335 C   0  0  0  0  0  0  0  0  0  0  0  0
    3.7298    0.2065   -0.3399 C   0  0  0  0  0  0  0  0  0  0  0  0
    2.4040    0.4168   -0.1154 C   0  0  0  0  0  0  0  0  0  0  0  0
  1  2  2  0
  2  3  1  0
  3  4  2  0
  4  5  1  0
  5  6  2  0
  6  7  1  0
  6  8  1  0
  8  9  2  0
  9 10  1  0
 10 11  1  0
 11 12  2  0
 11 13  1  0
 13 14  1  0
 14 15  2  0
 15 16  1  0
 16 17  2  0
 17 18  1  0
 18 19  1  0
 17 20  1  0
 20 21  2  0
 13  2  1  0
 21 14  1  0
  9  3  1  0
M  END
>  <zinc_id>  (1) 
ZINC000000456090

>  <smiles>  (1) 
C=C1c2ccc(C)cc2NC(=O)N1c1ccc(OC)cc1

$$$$
