
     RDKit          3D

 21 22  0  0  0  0  0  0  0  0999 V2000
    2.4622   -1.5973   -0.4414 C   0  0  0  0  0  0  0  0  0  0  0  0
    0.9700   -1.5621   -0.0583 C   0  0  0  0  0  0  0  0  0  0  0  0
    0.4972   -0.5358    0.5540 C   0  0  0  0  0  0  0  0  0  0  0  0
    1.3927    0.5909    0.8854 C   0  0  0  0  0  0  0  0  0  0  0  0
    0.9014    1.5642    1.4774 O   0  0  0  0  0  0  0  0  0  0  0  0
    2.7307    0.6270    0.5795 O   0  0  0  0  0  0  0  0  0  0  0  0
    3.5895    1.7066    0.8969 C   0  0  0  0  0  0  0  0  0  0  0  0
    4.9834    1.4014    0.4115 C   0  0  0  0  0  0  0  0  0  0  0  0
    3.0766    3.0246    0.3703 C   0  0  0  0  0  0  0  0  0  0  0  0
   -0.9828   -0.4018    0.9205 C   0  0  1  0  0  0  0  0  0  0  0  0
   -1.5256    0.4585   -0.2703 C   0  0  0  0  0  0  0  0  0  0  0  0
   -0.8179    1.5391   -0.6806 C   0  0  0  0  0  0  0  0  0  0  0  0
   -1.2507    2.3448   -1.7371 C   0  0  0  0  0  0  0  0  0  0  0  0
   -2.4104    2.0238   -2.3574 C   0  0  0  0  0  0  0  0  0  0  0  0
   -3.1413    0.9504   -1.9717 C   0  0  0  0  0  0  0  0  0  0  0  0
   -2.6809    0.1665   -0.9130 C   0  0  0  0  0  0  0  0  0  0  0  0
   -3.4331   -0.9231   -0.5295 O   0  0  0  0  0  0  0  0  0  0  0  0
   -1.6184   -1.7164    0.6373 N   0  0  0  0  0  0  0  0  0  0  0  0
   -1.0782   -2.7907   -0.0272 C   0  0  0  0  0  0  0  0  0  0  0  0
   -1.9507   -4.1170   -0.3934 S   0  0  0  0  0  0  0  0  0  0  0  0
    0.2863   -2.7537   -0.4124 N   0  0  0  0  0  0  0  0  0  0  0  0
  1  2  1  0
  2  3  2  0
  3  4  1  0
  4  5  2  0
  4  6  1  0
  6  7  1  0
  7  8  1  0
  7  9  1  0
  3 10  1  0
 10 11  1  6
 11 12  2  0
 12 13  1  0
 13 14  2  0
 14 15  1  0
 15 16  2  0
 16 17  1  0
 10 18  1  0
 18 19  1  0
 19 20  2  0
 19 21  1  0
 21  2  1  0
 16 11  1  0
M  END
>  <zinc_id>  (1) 
ZINC000000123258

>  <smiles>  (1) 
CC1=C(C(=O)OC(C)C)[C@@H](c2ccccc2O)NC(=S)N1

$$$$
