
     RDKit          3D

 20 23  0  0  0  0  0  0  0  0999 V2000
    0.3032   -1.8728   -0.9386 S   0  0  0  0  0  0  0  0  0  0  0  0
    0.6666   -0.4380   -0.2505 C   0  0  0  0  0  0  0  0  0  0  0  0
    2.0162   -0.0201   -0.0907 N   0  0  0  0  0  0  0  0  0  0  0  0
    3.1194   -0.8427   -0.5280 C   0  0  0  0  0  0  0  0  0  0  0  0
    4.3956   -0.1463   -0.2298 C   0  0  0  0  0  0  0  0  0  0  0  0
    5.6777   -0.6023   -0.4940 C   0  0  0  0  0  0  0  0  0  0  0  0
    6.5743    0.3522   -0.0577 C   0  0  0  0  0  0  0  0  0  0  0  0
    5.7770    1.3668    0.4632 C   0  0  0  0  0  0  0  0  0  0  0  0
    4.5397    1.0088    0.3288 O   0  0  0  0  0  0  0  0  0  0  0  0
   -0.3509    0.4116    0.1971 N   0  0  0  0  0  0  0  0  0  0  0  0
   -1.7543    0.1803    0.1301 C   0  0  0  0  0  0  0  0  0  0  0  0
   -2.4451    1.4010    0.7482 C   0  0  0  0  0  0  0  0  0  0  0  0
   -3.9283    1.2837    0.5962 C   0  0  0  0  0  0  0  0  0  0  0  0
   -4.4094    0.0443    1.3236 C   0  0  0  0  0  0  0  0  0  0  0  0
   -3.7207   -1.1428    0.6902 C   0  0  0  0  0  0  0  0  0  0  0  0
   -4.1319   -1.2291   -0.7614 C   0  0  0  0  0  0  0  0  0  0  0  0
   -3.6356    0.0132   -1.4801 C   0  0  0  0  0  0  0  0  0  0  0  0
   -4.3379    1.1975   -0.8513 C   0  0  0  0  0  0  0  0  0  0  0  0
   -2.1409    0.1054   -1.3489 C   0  0  0  0  0  0  0  0  0  0  0  0
   -2.2147   -1.0704    0.8183 C   0  0  0  0  0  0  0  0  0  0  0  0
  1  2  2  0
  2  3  1  0
  3  4  1  0
  4  5  1  0
  5  6  2  0
  6  7  1  0
  7  8  2  0
  8  9  1  0
  2 10  1  0
 10 11  1  0
 11 12  1  0
 12 13  1  0
 13 14  1  0
 14 15  1  0
 15 16  1  0
 16 17  1  0
 17 18  1  0
 17 19  1  0
 15 20  1  0
  9  5  1  0
 19 11  1  0
 20 11  1  0
 18 13  1  0
M  END
>  <zinc_id>  (1) 
ZINC000004166104

>  <smiles>  (1) 
S=C(NCc1ccco1)NC12CC3CC(CC(C3)C1)C2

$$$$
