
     RDKit          3D

 20 22  0  0  0  0  0  0  0  0999 V2000
    4.1228   -1.4034   -4.2036 C   0  0  0  0  0  0  0  0  0  0  0  0
    2.9424   -0.4954   -4.4502 C   0  0  0  0  0  0  0  0  0  0  0  0
    2.6997    0.3970   -3.2538 C   0  0  0  0  0  0  0  0  0  0  0  0
    1.5240    1.3190   -3.4696 C   0  0  0  0  0  0  0  0  0  0  0  0
    1.2567    2.3726   -2.0116 S   0  0  0  0  0  0  0  0  0  0  0  0
    0.7435    1.3159   -0.6465 C   0  0  0  0  0  0  0  0  0  0  0  0
   -0.5408    1.0265   -0.4060 N   0  0  0  0  0  0  0  0  0  0  0  0
   -0.9471    0.2393    0.6066 C   0  0  0  0  0  0  0  0  0  0  0  0
    0.0013   -0.3097    1.4547 C   0  0  0  0  0  0  0  0  0  0  0  0
   -0.6435   -1.0493    2.3791 N   0  0  0  0  0  0  0  0  0  0  0  0
   -1.9755   -1.0186    2.1854 C   0  0  0  0  0  0  0  0  0  0  0  0
   -3.0188   -1.5969    2.8404 C   0  0  0  0  0  0  0  0  0  0  0  0
   -4.3092   -1.3897    2.4071 C   0  0  0  0  0  0  0  0  0  0  0  0
   -4.5276   -0.5980    1.3147 C   0  0  0  0  0  0  0  0  0  0  0  0
   -3.4558   -0.0078    0.6461 C   0  0  0  0  0  0  0  0  0  0  0  0
   -2.1624   -0.2091    1.0719 C   0  0  0  0  0  0  0  0  0  0  0  0
    1.3275   -0.0095    1.2039 C   0  0  0  0  0  0  0  0  0  0  0  0
    2.2159   -0.4904    1.9537 O   0  0  0  0  0  0  0  0  0  0  0  0
    1.6789    0.7916    0.1677 N   0  0  0  0  0  0  0  0  0  0  0  0
    3.0680    1.1161   -0.1074 C   0  0  0  0  0  0  0  0  0  0  0  0
  1  2  1  0
  2  3  1  0
  3  4  1  0
  4  5  1  0
  5  6  1  0
  6  7  2  0
  7  8  1  0
  8  9  2  0
  9 10  1  0
 10 11  1  0
 11 12  2  0
 12 13  1  0
 13 14  2  0
 14 15  1  0
 15 16  2  0
  9 17  1  0
 17 18  2  0
 17 19  1  0
 19 20  1  0
 19  6  1  0
 16  8  1  0
 16 11  1  0
M  END
>  <zinc_id>  (1) 
ZINC000002720594

>  <smiles>  (1) 
CCCCSc1nc2c([nH]c3ccccc32)c(=O)n1C

$$$$
