
     RDKit          3D

 19 20  0  0  0  0  0  0  0  0999 V2000
   -2.4565   -2.1146   -1.1975 C   0  0  0  0  0  0  0  0  0  0  0  0
   -3.1457   -0.7756   -1.3078 C   0  0  0  0  0  0  0  0  0  0  0  0
   -4.5904   -0.9985   -1.6307 C   0  0  0  0  0  0  0  0  0  0  0  0
   -2.5110   -0.0263   -2.4544 C   0  0  0  0  0  0  0  0  0  0  0  0
   -3.0511   -0.0581   -0.0331 C   0  0  0  0  0  0  0  0  0  0  0  0
   -4.0715    0.2881    0.6068 O   0  0  0  0  0  0  0  0  0  0  0  0
   -1.7398    0.2921    0.5593 C   0  0  0  0  0  0  0  0  0  0  0  0
   -0.1606   -0.0112   -0.0176 S   0  0  0  0  0  0  0  0  0  0  0  0
    0.7251    0.7122    1.2492 C   0  0  0  0  0  0  0  0  0  0  0  0
    2.1575    0.8289    1.4233 N   0  0  0  0  0  0  0  0  0  0  0  0
    3.0010    0.2644    0.3988 C   0  0  0  0  0  0  0  0  0  0  0  0
    2.4997   -0.3690   -0.7170 C   0  0  0  0  0  0  0  0  0  0  0  0
    3.3315   -0.8998   -1.6814 C   0  0  0  0  0  0  0  0  0  0  0  0
    4.7030   -0.8143   -1.5612 C   0  0  0  0  0  0  0  0  0  0  0  0
    5.2117   -0.1813   -0.4463 C   0  0  0  0  0  0  0  0  0  0  0  0
    4.3679    0.3514    0.5216 C   0  0  0  0  0  0  0  0  0  0  0  0
   -0.2354    1.1456    2.0430 N   0  0  0  0  0  0  0  0  0  0  0  0
   -1.4754    0.9513    1.7263 C   0  0  0  0  0  0  0  0  0  0  0  0
   -2.5600    1.4145    2.5760 N   0  0  0  0  0  0  0  0  0  0  0  0
  1  2  1  0
  2  3  1  0
  2  4  1  0
  2  5  1  0
  5  6  2  0
  5  7  1  0
  7  8  1  0
  8  9  1  0
  9 10  1  0
 10 11  1  0
 11 12  2  0
 12 13  1  0
 13 14  2  0
 14 15  1  0
 15 16  2  0
  9 17  2  0
 17 18  1  0
 18 19  1  0
 18  7  2  0
 16 11  1  0
M  END
>  <zinc_id>  (1) 
ZINC000000614468

>  <smiles>  (1) 
CC(C)(C)C(=O)c1sc(Nc2ccccc2)nc1N

$$$$
