
     RDKit          3D

 20 21  0  0  0  0  0  0  0  0999 V2000
   -2.8865   -0.7089    2.6221 C   0  0  0  0  0  0  0  0  0  0  0  0
   -3.6081   -0.4340    1.3546 C   0  0  0  0  0  0  0  0  0  0  0  0
   -4.9318   -0.0874    1.4322 C   0  0  0  0  0  0  0  0  0  0  0  0
   -5.6312    0.1741    0.2795 C   0  0  0  0  0  0  0  0  0  0  0  0
   -5.0171    0.0916   -0.9506 C   0  0  0  0  0  0  0  0  0  0  0  0
   -3.6891   -0.2584   -0.9936 C   0  0  0  0  0  0  0  0  0  0  0  0
   -3.0535   -0.3376   -2.3590 C   0  0  0  0  0  0  0  0  0  0  0  0
   -2.9818   -0.5206    0.1385 C   0  0  0  0  0  0  0  0  0  0  0  0
   -1.5870   -0.8852    0.0467 N   0  0  0  0  0  0  0  0  0  0  0  0
   -0.5783    0.1017    0.0776 C   0  0  0  0  0  0  0  0  0  0  0  0
   -0.9691    1.3012    0.1885 O   0  0  0  0  0  0  0  0  0  0  0  0
    0.7804   -0.1688   -0.0052 O   0  0  0  0  0  0  0  0  0  0  0  0
    1.6698    0.9289    0.0396 C   0  0  0  0  0  0  0  0  0  0  0  0
    3.0589    0.3897   -0.0654 C   0  0  0  0  0  0  0  0  0  0  0  0
    3.2556   -0.9591   -0.1792 C   0  0  0  0  0  0  0  0  0  0  0  0
    4.5221   -1.4746   -0.2768 C   0  0  0  0  0  0  0  0  0  0  0  0
    5.5939   -0.6201   -0.2591 C   0  0  0  0  0  0  0  0  0  0  0  0
    5.3886    0.7050   -0.1468 N   0  0  0  0  0  4  0  0  0  0  0  0
    6.5049    1.5428   -0.1325 O   0  0  0  0  0  1  0  0  0  0  0  0
    4.1594    1.2196   -0.0509 C   0  0  0  0  0  0  0  0  0  0  0  0
  1  2  1  0
  2  3  2  0
  3  4  1  0
  4  5  2  0
  5  6  1  0
  6  7  1  0
  6  8  2  0
  8  9  1  0
  9 10  1  0
 10 11  2  0
 10 12  1  0
 12 13  1  0
 13 14  1  0
 14 15  2  0
 15 16  1  0
 16 17  2  0
 17 18  1  0
 18 19  1  0
 18 20  2  0
  8  2  1  0
 20 14  1  0
M  CHG  2  18   1  19  -1
M  END
>  <zinc_id>  (1) 
ZINC000000392507

>  <smiles>  (1) 
Cc1cccc(C)c1NC(=O)OCc1ccc[n+]([O-])c1

$$$$
