
     RDKit          3D

 20 22  0  0  0  0  0  0  0  0999 V2000
    3.0761   -1.7158   -1.1069 C   0  0  0  0  0  0  0  0  0  0  0  0
    3.6225   -0.9370    0.0822 C   0  0  0  0  0  0  0  0  0  0  0  0
    2.4267   -1.2027    1.2004 C   0  0  1  0  0  0  0  0  0  0  0  0
    3.1913   -0.3040    2.3703 C   0  0  0  0  0  0  0  0  0  0  0  0
    1.5186   -0.0390    0.6528 N   0  0  0  0  0  0  0  0  0  0  0  0
    1.8363    1.1929    0.4950 C   0  0  0  0  0  0  0  0  0  0  0  0
    3.1089    1.7867    0.7850 N   0  0  0  0  0  0  0  0  0  0  0  0
    0.7108    1.8407   -0.0106 C   0  0  0  0  0  0  0  0  0  0  0  0
    0.6179    3.2397   -0.3381 C   0  0  0  0  0  0  0  0  0  0  0  0
    0.5232    4.3638   -0.6072 N   0  0  0  0  0  0  0  0  0  0  0  0
   -0.2761    0.8771   -0.1287 C   0  0  0  0  0  0  0  0  0  0  0  0
   -1.5373    0.8966   -0.5454 N   0  0  0  0  0  0  0  0  0  0  0  0
   -2.3104   -0.2312   -0.5587 C   0  0  0  0  0  0  0  0  0  0  0  0
   -3.6274   -0.1514   -1.0064 C   0  0  0  0  0  0  0  0  0  0  0  0
   -4.3902   -1.2996   -1.0120 C   0  0  0  0  0  0  0  0  0  0  0  0
   -3.8563   -2.5044   -0.5815 C   0  0  0  0  0  0  0  0  0  0  0  0
   -2.5578   -2.5953   -0.1376 C   0  0  0  0  0  0  0  0  0  0  0  0
   -1.8043   -1.4397   -0.1365 C   0  0  0  0  0  0  0  0  0  0  0  0
   -0.5159   -1.4464    0.2862 N   0  0  0  0  0  0  0  0  0  0  0  0
    0.2432   -0.3312    0.2977 C   0  0  0  0  0  0  0  0  0  0  0  0
  1  2  1  0
  2  3  1  0
  3  4  1  1
  3  5  1  0
  5  6  1  0
  6  7  1  0
  6  8  2  0
  8  9  1  0
  9 10  3  0
  8 11  1  0
 11 12  2  0
 12 13  1  0
 13 14  2  0
 14 15  1  0
 15 16  2  0
 16 17  1  0
 17 18  2  0
 18 19  1  0
 19 20  2  0
 20  5  1  0
 20 11  1  0
 18 13  1  0
M  END
>  <zinc_id>  (1) 
ZINC000000390238

>  <smiles>  (1) 
CC[C@@H](C)n1c(N)c(C#N)c2nc3ccccc3nc21

$$$$
