
     RDKit          3D

 24 27  0  0  0  0  0  0  0  0999 V2000
   -0.0572   -1.8050    2.2039 C   0  0  0  0  0  0  0  0  0  0  0  0
    1.0476   -1.3250    1.3020 C   0  0  0  0  0  0  0  0  0  0  0  0
    2.0878   -2.1005    0.9499 N   0  0  0  0  0  0  0  0  0  0  0  0
    2.9232   -1.4106    0.1381 C   0  0  0  0  0  0  0  0  0  0  0  0
    4.1084   -1.7139   -0.4961 C   0  0  0  0  0  0  0  0  0  0  0  0
    4.7930   -0.8201   -1.2928 C   0  0  0  0  0  0  0  0  0  0  0  0
    4.2367    0.4320   -1.4420 C   0  0  0  0  0  0  0  0  0  0  0  0
    3.0546    0.7699   -0.8237 C   0  0  0  0  0  0  0  0  0  0  0  0
    2.3682   -0.1426   -0.0184 C   0  0  0  0  0  0  0  0  0  0  0  0
    1.2194   -0.1167    0.7052 C   0  0  0  0  0  0  0  0  0  0  0  0
    0.2305    1.1083    0.8565 C   0  0  1  0  0  0  0  0  0  0  0  0
    0.7951    2.0023   -0.3889 C   0  0  0  0  0  0  0  0  0  0  0  0
   -0.0024    3.1937   -0.4151 N   0  0  0  0  0  4  0  0  0  0  0  0
    0.5812    4.2881   -0.2728 O   0  0  0  0  0  0  0  0  0  0  0  0
   -1.3686    3.1669   -0.5897 O   0  0  0  0  0  1  0  0  0  0  0  0
   -1.0015    0.4478    0.0700 C   0  0  0  0  0  0  0  0  0  0  0  0
   -1.1024    0.4456   -1.2494 C   0  0  0  0  0  0  0  0  0  0  0  0
   -2.1947   -0.1419   -1.8470 C   0  0  0  0  0  0  0  0  0  0  0  0
   -3.1850   -0.7289   -1.0634 C   0  0  0  0  0  0  0  0  0  0  0  0
   -3.0979   -0.7364    0.3048 C   0  0  0  0  0  0  0  0  0  0  0  0
   -1.9625   -0.1228    0.8530 C   0  0  0  0  0  0  0  0  0  0  0  0
   -4.1917   -1.3707    0.8279 O   0  0  0  0  0  0  0  0  0  0  0  0
   -4.9156   -1.9433   -0.2445 C   0  0  0  0  0  0  0  0  0  0  0  0
   -4.3662   -1.3765   -1.4093 O   0  0  0  0  0  0  0  0  0  0  0  0
  1  2  1  0
  2  3  1  0
  3  4  1  0
  4  5  2  0
  5  6  1  0
  6  7  2  0
  7  8  1  0
  8  9  2  0
  9 10  1  0
 10 11  1  0
 11 12  1  6
 12 13  1  0
 13 14  2  0
 13 15  1  0
 11 16  1  0
 16 17  2  0
 17 18  1  0
 18 19  2  0
 19 20  1  0
 20 21  2  0
 20 22  1  0
 22 23  1  0
 23 24  1  0
 10  2  2  0
 21 16  1  0
  9  4  1  0
 24 19  1  0
M  CHG  2  13   1  15  -1
M  END
>  <zinc_id>  (1) 
ZINC000000134652

>  <smiles>  (1) 
Cc1[nH]c2ccccc2c1[C@@H](C[N+](=O)[O-])c1ccc2c(c1)OCO2

$$$$
