
     RDKit          3D

 22 23  0  0  0  0  0  0  0  0999 V2000
   -0.5849    3.1720   -0.5377 C   0  0  0  0  0  0  0  0  0  0  0  0
   -1.6884    2.3232   -0.0063 C   0  0  0  0  0  0  0  0  0  0  0  0
   -2.9750    2.8823    0.0418 C   0  0  0  0  0  0  0  0  0  0  0  0
   -4.0279    2.1547    0.5194 C   0  0  0  0  0  0  0  0  0  0  0  0
   -3.7590    0.8805    0.9381 C   0  0  0  0  0  0  0  0  0  0  0  0
   -2.5099    0.3358    0.8921 C   0  0  0  0  0  0  0  0  0  0  0  0
   -2.3724   -1.0726    1.3598 C   0  0  0  0  0  0  0  0  0  0  0  0
   -3.6217   -1.4719    2.1607 C   0  0  0  0  0  0  0  0  0  0  0  0
   -2.2764   -2.0422    0.1655 C   0  0  0  0  0  0  0  0  0  0  0  0
   -1.4007    1.0472    0.4125 C   0  0  0  0  0  0  0  0  0  0  0  0
   -0.1902    0.3817    0.4482 N   0  0  0  0  0  0  0  0  0  0  0  0
    0.3324   -0.4087   -0.5482 C   0  0  0  0  0  0  0  0  0  0  0  0
   -0.2628   -0.5761   -1.6349 O   0  0  0  0  0  0  0  0  0  0  0  0
    1.5998   -1.1164   -0.3944 C   0  0  0  0  0  0  0  0  0  0  0  0
    1.5315   -2.5233   -0.5435 C   0  0  0  0  0  0  0  0  0  0  0  0
    2.6464   -3.2601   -0.3410 C   0  0  0  0  0  0  0  0  0  0  0  0
    3.8543   -2.6906    0.0045 C   0  0  0  0  0  0  0  0  0  0  0  0
    3.9471   -1.3399    0.1510 C   0  0  0  0  0  0  0  0  0  0  0  0
    2.7844   -0.5605   -0.0584 C   0  0  0  0  0  0  0  0  0  0  0  0
    2.9239    0.8585    0.0537 N   0  0  0  0  0  4  0  0  0  0  0  0
    4.0747    1.3012   -0.2801 O   0  0  0  0  0  0  0  0  0  0  0  0
    1.9749    1.7250    0.4370 O   0  0  0  0  0  1  0  0  0  0  0  0
  1  2  1  0
  2  3  2  0
  3  4  1  0
  4  5  2  0
  5  6  1  0
  6  7  1  0
  7  8  1  0
  7  9  1  0
  6 10  2  0
 10 11  1  0
 11 12  1  0
 12 13  2  0
 12 14  1  0
 14 15  2  0
 15 16  1  0
 16 17  2  0
 17 18  1  0
 18 19  2  0
 19 20  1  0
 20 21  2  0
 20 22  1  0
 10  2  1  0
 19 14  1  0
M  CHG  2  20   1  22  -1
M  END
>  <zinc_id>  (1) 
ZINC000000476754

>  <smiles>  (1) 
Cc1cccc(C(C)C)c1NC(=O)c1ccccc1[N+](=O)[O-]

$$$$
