
     RDKit          3D

 19 20  0  0  0  0  0  0  0  0999 V2000
   -6.0830    0.3106    1.5177 C   0  0  0  0  0  0  0  0  0  0  0  0
   -5.2556   -0.6090    0.7714 N   0  0  0  0  0  0  0  0  0  0  0  0
   -5.8716   -1.7336    0.1051 C   0  0  0  0  0  0  0  0  0  0  0  0
   -3.8633   -0.3701    0.7220 C   0  0  0  0  0  0  0  0  0  0  0  0
   -3.2970    0.7101    1.3657 C   0  0  0  0  0  0  0  0  0  0  0  0
   -1.9436    0.9817    1.3443 C   0  0  0  0  0  0  0  0  0  0  0  0
   -1.0845    0.1479    0.6511 C   0  0  0  0  0  0  0  0  0  0  0  0
    0.3161    0.3627    0.5842 N   0  0  0  0  0  0  0  0  0  0  0  0
    0.8957    0.4985   -0.5263 N   0  0  0  0  0  0  0  0  0  0  0  0
    2.2683    0.7141   -0.7097 C   0  0  0  0  0  0  0  0  0  0  0  0
    2.6929    1.9430   -1.1925 C   0  0  0  0  0  0  0  0  0  0  0  0
    4.0410    2.1770   -1.3808 C   0  0  0  0  0  0  0  0  0  0  0  0
    5.0062    1.2272   -1.1058 C   0  0  0  0  0  0  0  0  0  0  0  0
    6.4016    1.4916   -1.3088 N   0  0  0  0  0  0  0  0  0  0  0  0
    4.5564    0.0114   -0.6259 C   0  0  0  0  0  0  0  0  0  0  0  0
    3.2164   -0.2484   -0.4288 C   0  0  0  0  0  0  0  0  0  0  0  0
    2.6424   -1.7862    0.1786 Cl  0  0  0  0  0  0  0  0  0  0  0  0
   -1.6487   -0.9285    0.0097 C   0  0  0  0  0  0  0  0  0  0  0  0
   -2.9899   -1.2009    0.0287 C   0  0  0  0  0  0  0  0  0  0  0  0
  1  2  1  0
  2  3  1  0
  2  4  1  0
  4  5  2  0
  5  6  1  0
  6  7  2  0
  7  8  1  0
  8  9  2  0
  9 10  1  0
 10 11  2  0
 11 12  1  0
 12 13  2  0
 13 14  1  0
 13 15  1  0
 15 16  2  0
 16 17  1  0
  7 18  1  0
 18 19  2  0
 19  4  1  0
 16 10  1  0
M  END
>  <zinc_id>  (1) 
ZINC000004114008

>  <smiles>  (1) 
CN(C)c1ccc(/N=N/c2ccc(N)cc2Cl)cc1

$$$$
