
     RDKit          3D

 20 22  0  0  0  0  0  0  0  0999 V2000
   -1.2263    3.4723    0.4977 N   0  0  0  0  0  0  0  0  0  0  0  0
   -1.4408    2.3179    0.3801 C   0  0  0  0  0  0  0  0  0  0  0  0
   -1.6806    0.8683    0.2313 C   0  0  0  0  0  0  0  0  0  0  0  0
   -0.6019    0.0396    0.1007 C   0  0  0  0  0  0  0  0  0  0  0  0
    0.8064    0.3620    0.0840 N   0  0  0  0  0  0  0  0  0  0  0  0
    1.7597   -0.6777   -0.0650 C   0  0  0  0  0  0  0  0  0  0  0  0
    1.3369   -1.8489   -0.1778 O   0  0  0  0  0  0  0  0  0  0  0  0
    3.1699   -0.3837   -0.0848 C   0  0  0  0  0  0  0  0  0  0  0  0
    3.6119    0.9151    0.0412 C   0  0  0  0  0  0  0  0  0  0  0  0
    4.9558    1.2536    0.0287 C   0  0  0  0  0  0  0  0  0  0  0  0
    5.8947    0.2502   -0.1159 C   0  0  0  0  0  0  0  0  0  0  0  0
    5.4753   -1.0552   -0.2435 C   0  0  0  0  0  0  0  0  0  0  0  0
    4.1240   -1.3615   -0.2272 C   0  0  0  0  0  0  0  0  0  0  0  0
   -1.2883   -1.5046   -0.0420 S   0  0  0  0  0  0  0  0  0  0  0  0
   -2.9395   -1.0733    0.0669 C   0  0  0  0  0  0  0  0  0  0  0  0
   -2.9037    0.2828    0.2133 C   0  0  0  0  0  0  0  0  0  0  0  0
   -4.2284    1.0521    0.3489 C   0  0  0  0  0  0  0  0  0  0  0  0
   -5.3063    0.0915    0.6569 C   0  0  0  0  0  0  0  0  0  0  0  0
   -5.3550   -1.0742   -0.3104 C   0  0  0  0  0  0  0  0  0  0  0  0
   -4.1637   -1.9262    0.0239 C   0  0  0  0  0  0  0  0  0  0  0  0
  1  2  3  0
  2  3  1  0
  3  4  2  0
  4  5  1  0
  5  6  1  0
  6  7  2  0
  6  8  1  0
  8  9  2  0
  9 10  1  0
 10 11  2  0
 11 12  1  0
 12 13  2  0
  4 14  1  0
 14 15  1  0
 15 16  2  0
 16 17  1  0
 17 18  1  0
 18 19  1  0
 19 20  1  0
 16  3  1  0
 13  8  1  0
 20 15  1  0
M  END
>  <zinc_id>  (1) 
ZINC000000135906

>  <smiles>  (1) 
N#Cc1c(NC(=O)c2ccccc2)sc2c1CCCC2

$$$$
