
     RDKit          3D

 21 23  0  0  0  0  0  0  0  0999 V2000
    4.9582    2.1164   -0.3649 C   0  0  0  0  0  0  0  0  0  0  0  0
    5.4468    0.9042   -1.0949 C   0  0  0  0  0  0  0  0  0  0  0  0
    5.1874   -0.3240   -0.3748 N   0  0  0  0  0  0  0  0  0  0  0  0
    3.7927   -0.6206   -0.0912 C   0  0  0  0  0  0  0  0  0  0  0  0
    2.7345    0.0776   -0.4013 N   0  0  0  0  0  0  0  0  0  0  0  0
    1.5372   -0.3404   -0.0648 C   0  0  0  0  0  0  0  0  0  0  0  0
    0.3160    0.4441   -0.4106 C   0  0  0  0  0  0  0  0  0  0  0  0
    0.2872    1.6572   -1.0983 C   0  0  0  0  0  0  0  0  0  0  0  0
   -0.9509    2.0857   -1.2401 N   0  0  0  0  0  0  0  0  0  0  0  0
   -1.7671    1.1869   -0.6615 C   0  0  0  0  0  0  0  0  0  0  0  0
   -3.1312    1.1895   -0.5505 C   0  0  0  0  0  0  0  0  0  0  0  0
   -3.7851    0.1613    0.0883 C   0  0  0  0  0  0  0  0  0  0  0  0
   -5.1632    0.2154    0.1711 O   0  0  0  0  0  0  0  0  0  0  0  0
   -5.9446    1.2456   -0.3507 C   0  0  0  0  0  0  0  0  0  0  0  0
   -3.0360   -0.8645    0.6101 C   0  0  0  0  0  0  0  0  0  0  0  0
   -1.6400   -0.8740    0.5005 C   0  0  0  0  0  0  0  0  0  0  0  0
   -0.9211   -1.9193    1.0359 O   0  0  0  0  0  0  0  0  0  0  0  0
   -1.5776   -2.9881    1.6981 C   0  0  0  0  0  0  0  0  0  0  0  0
   -0.9870    0.1480   -0.1347 C   0  0  0  0  0  0  0  0  0  0  0  0
    1.5026   -1.5334    0.6166 C   0  0  0  0  0  0  0  0  0  0  0  0
    3.1411   -1.9677    0.7288 S   0  0  0  0  0  0  0  0  0  0  0  0
  1  2  1  0
  2  3  1  0
  3  4  1  0
  4  5  2  0
  5  6  1  0
  6  7  1  0
  7  8  2  0
  8  9  1  0
  9 10  1  0
 10 11  2  0
 11 12  1  0
 12 13  1  0
 13 14  1  0
 12 15  2  0
 15 16  1  0
 16 17  1  0
 17 18  1  0
 16 19  2  0
  6 20  2  0
 20 21  1  0
 21  4  1  0
 19  7  1  0
 19 10  1  0
M  END
>  <zinc_id>  (1) 
ZINC000002223200

>  <smiles>  (1) 
CCNc1nc(-c2c[nH]c3cc(OC)cc(OC)c23)cs1

$$$$
