
     RDKit          3D

 18 20  0  0  0  0  0  0  0  0999 V2000
   -3.5725    1.7706   -0.4841 C   0  0  0  0  0  0  0  0  0  0  0  0
   -4.4469    0.3929   -0.6973 C   0  0  1  0  0  0  0  0  0  0  0  0
   -3.1955   -0.5559   -0.7508 C   0  0  0  0  0  0  0  0  0  0  0  0
   -2.5594   -1.0307    0.2203 C   0  0  0  0  0  0  0  0  0  0  0  0
   -1.4324   -1.8864   -0.0540 N   0  0  0  0  0  0  0  0  0  0  0  0
   -0.2715   -1.8299    0.7145 N   0  0  0  0  0  0  0  0  0  0  0  0
    0.8197   -0.9977    0.3591 C   0  0  0  0  0  0  0  0  0  0  0  0
    1.9477   -0.8769    1.0144 N   0  0  0  0  0  0  0  0  0  0  0  0
    2.8751   -0.0779    0.5856 C   0  0  0  0  0  0  0  0  0  0  0  0
    4.1258    0.1435    1.1911 C   0  0  0  0  0  0  0  0  0  0  0  0
    5.0013    1.0075    0.6346 C   0  0  0  0  0  0  0  0  0  0  0  0
    4.7813    1.7299   -0.5249 C   0  0  0  0  0  0  0  0  0  0  0  0
    3.5548    1.5192   -1.1277 C   0  0  0  0  0  0  0  0  0  0  0  0
    2.6380    0.6265   -0.5615 C   0  0  0  0  0  0  0  0  0  0  0  0
    1.0461    0.0694   -0.9516 S   0  0  0  0  0  0  0  0  0  0  0  0
   -2.8664   -0.7906    1.6262 C   0  0  0  0  0  0  0  0  0  0  0  0
   -3.6149    0.5250    1.6905 C   0  0  0  0  0  0  0  0  0  0  0  0
   -4.8302    0.2615    0.8796 C   0  0  0  0  0  0  0  0  0  0  0  0
  2  1  1  1
  2  3  1  0
  3  4  2  0
  4  5  1  0
  5  6  1  0
  6  7  1  0
  7  8  2  0
  8  9  1  0
  9 10  2  0
 10 11  1  0
 11 12  2  0
 12 13  1  0
 13 14  2  0
 14 15  1  0
  4 16  1  0
 16 17  1  0
 17 18  1  0
 18  2  1  0
 15  7  1  0
 14  9  1  0
M  END
>  <zinc_id>  (1) 
ZINC000003233621

>  <smiles>  (1) 
C[C@H]1C=C(NNc2nc3ccccc3s2)CCC1

$$$$
