
     RDKit          3D

 20 22  0  0  0  0  0  0  0  0999 V2000
    6.5815    1.2930   -0.8845 C   0  0  0  0  0  0  0  0  0  0  0  0
    5.3101    0.5145   -0.6728 C   0  0  0  0  0  0  0  0  0  0  0  0
    4.4621    0.2298   -1.7284 C   0  0  0  0  0  0  0  0  0  0  0  0
    3.2850   -0.4674   -1.5850 C   0  0  0  0  0  0  0  0  0  0  0  0
    2.9305   -0.9000   -0.3295 C   0  0  0  0  0  0  0  0  0  0  0  0
    1.6682   -1.5876   -0.1864 N   0  0  0  0  0  0  0  0  0  0  0  0
    0.5169   -0.7198    0.0287 C   0  0  0  0  0  0  0  0  0  0  0  0
   -0.7923   -0.9858    0.1711 C   0  0  0  0  0  0  0  0  0  0  0  0
   -1.6473    0.0232    0.3663 C   0  0  0  0  0  0  0  0  0  0  0  0
   -3.1543   -0.1938    0.4986 C   0  0  2  0  0  0  0  0  0  0  0  0
   -3.4039   -0.8690    1.8230 C   0  0  0  0  0  0  0  0  0  0  0  0
   -3.7017   -0.9604   -0.6777 C   0  0  0  0  0  0  0  0  0  0  0  0
   -5.0920   -0.3730   -0.8590 C   0  0  0  0  0  0  0  0  0  0  0  0
   -5.1300    0.7992    0.0529 C   0  0  0  0  0  0  0  0  0  0  0  0
   -6.1754    1.4239    0.4007 O   0  0  0  0  0  0  0  0  0  0  0  0
   -3.7966    1.0533    0.4303 O   0  0  0  0  0  0  0  0  0  0  0  0
   -1.0891    1.2879    0.4114 C   0  0  0  0  0  0  0  0  0  0  0  0
    0.5602    0.9965    0.1686 S   0  0  0  0  0  0  0  0  0  0  0  0
    3.7357   -0.6363    0.7268 C   0  0  0  0  0  0  0  0  0  0  0  0
    4.9324    0.0715    0.5761 C   0  0  0  0  0  0  0  0  0  0  0  0
  1  2  1  0
  2  3  2  0
  3  4  1  0
  4  5  2  0
  5  6  1  0
  6  7  1  0
  7  8  2  0
  8  9  1  0
  9 10  1  0
 10 11  1  1
 10 12  1  0
 12 13  1  0
 13 14  1  0
 14 15  2  0
 14 16  1  0
  9 17  2  0
 17 18  1  0
  5 19  1  0
 19 20  2  0
 20  2  1  0
 18  7  1  0
 16 10  1  0
M  END
>  <zinc_id>  (1) 
ZINC000000234075

>  <smiles>  (1) 
Cc1ccc(Nc2cc([C@]3(C)CCC(=O)O3)cs2)cc1

$$$$
