
     RDKit          2D

 20 23  0  0  0  0  0  0  0  0999 V2000
    0.2317    1.4295    0.0000 O   0  0  0  0  0  0  0  0  0  0  0  0
   -0.5154    0.1288    0.0000 C   0  0  0  0  0  0  0  0  0  0  0  0
    0.2375   -1.1686    0.0000 N   0  0  0  0  0  0  0  0  0  0  0  0
    1.7375   -1.1653    0.0000 C   0  0  0  0  0  0  0  0  0  0  0  0
    2.4904   -2.4626    0.0000 C   0  0  0  0  0  0  0  0  0  0  0  0
    3.9904   -2.4593    0.0000 C   0  0  0  0  0  0  0  0  0  0  0  0
    4.7375   -1.1586    0.0000 C   0  0  0  0  0  0  0  0  0  0  0  0
    3.9846    0.1388    0.0000 C   0  0  0  0  0  0  0  0  0  0  0  0
    4.7317    1.4395    0.0000 N   0  0  0  0  0  4  0  0  0  0  0  0
    3.9788    2.7369    0.0000 O   0  0  0  0  0  0  0  0  0  0  0  0
    6.2317    1.4428    0.0000 O   0  0  0  0  0  1  0  0  0  0  0  0
    2.4846    0.1354    0.0000 C   0  0  0  0  0  0  0  0  0  0  0  0
   -2.0154    0.1254    0.0000 C   0  0  0  0  0  0  0  0  0  0  0  0
   -3.3128   -0.6275    0.0000 C   0  0  0  0  0  0  0  0  0  0  0  0
   -4.7383   -1.0942    0.0000 C   0  0  0  0  0  0  0  0  0  0  0  0
   -6.1659   -0.6338    0.0000 C   0  0  0  0  0  0  0  0  0  0  0  0
   -6.1693    0.8662    0.0000 C   0  0  0  0  0  0  0  0  0  0  0  0
   -4.7437    1.3329    0.0000 C   0  0  0  0  0  0  0  0  0  0  0  0
   -3.8593    0.1213    0.0000 C   0  0  0  0  0  0  0  0  0  0  0  0
   -3.3161    0.8725    0.0000 C   0  0  0  0  0  0  0  0  0  0  0  0
  1  2  2  0
  2  3  1  0
  3  4  1  0
  4  5  2  0
  5  6  1  0
  6  7  2  0
  7  8  1  0
  8  9  1  0
  9 10  2  0
  9 11  1  0
  8 12  2  0
  2 13  1  0
 14 13  1  1
 14 15  1  0
 15 16  1  6
 16 17  1  0
 18 17  1  6
 18 19  1  0
 18 20  1  0
 12  4  1  0
 20 13  1  1
 20 14  1  0
 19 15  1  0
M  CHG  2   9   1  11  -1
M  END
>  <zinc_id>  (1) 
ZINC000000036749

>  <smiles>  (1) 
O=C(Nc1cccc([N+](=O)[O-])c1)C1[C@H]2[C@@H]3CC[C@@H](C3)[C@@H]12

$$$$
