
     RDKit          3D

 20 22  0  0  0  0  0  0  0  0999 V2000
    2.7400    1.4967   -0.0839 O   0  0  0  0  0  0  0  0  0  0  0  0
    3.7298    0.5555   -0.6468 S   0  0  0  0  0  0  0  0  0  0  0  0
    4.3603    1.0105   -1.9120 O   0  0  0  0  0  0  0  0  0  0  0  0
    5.0053    0.2024    0.4989 N   0  0  0  0  0  0  0  0  0  0  0  0
    4.7203   -1.2063    0.7867 C   0  0  0  0  0  0  0  0  0  0  0  0
    4.3093   -1.8173   -0.5487 C   0  0  0  0  0  0  0  0  0  0  0  0
    3.0697   -1.0579   -0.8004 N   0  0  0  0  0  0  0  0  0  0  0  0
    2.2745   -1.2584    0.4172 C   0  0  0  0  0  0  0  0  0  0  0  0
    0.8803   -0.8184    0.2265 C   0  0  0  0  0  0  0  0  0  0  0  0
    0.0249   -0.9500    1.3009 C   0  0  0  0  0  0  0  0  0  0  0  0
   -1.3085   -0.5640    1.2230 C   0  0  0  0  0  0  0  0  0  0  0  0
   -1.8231   -0.0330    0.0593 C   0  0  0  0  0  0  0  0  0  0  0  0
   -3.2246    0.3813   -0.0507 C   0  0  0  0  0  0  0  0  0  0  0  0
   -3.9037    0.3048   -1.2506 C   0  0  0  0  0  0  0  0  0  0  0  0
   -5.2173    0.6822   -1.3969 C   0  0  0  0  0  0  0  0  0  0  0  0
   -5.8979    1.1603   -0.3036 C   0  0  0  0  0  0  0  0  0  0  0  0
   -5.2329    1.2460    0.9171 C   0  0  0  0  0  0  0  0  0  0  0  0
   -3.9157    0.8602    1.0330 C   0  0  0  0  0  0  0  0  0  0  0  0
   -0.9655    0.0966   -1.0113 C   0  0  0  0  0  0  0  0  0  0  0  0
    0.3747   -0.2910   -0.9330 C   0  0  0  0  0  0  0  0  0  0  0  0
  1  2  2  0
  2  3  2  0
  2  4  1  0
  4  5  1  0
  5  6  1  0
  6  7  1  0
  7  8  1  0
  8  9  1  0
  9 10  2  0
 10 11  1  0
 11 12  2  0
 12 13  1  0
 13 14  2  0
 14 15  1  0
 15 16  2  0
 16 17  1  0
 17 18  2  0
 12 19  1  0
 19 20  2  0
  7  2  1  0
 20  9  1  0
 18 13  1  0
M  END
>  <zinc_id>  (1) 
ZINC000002524319

>  <smiles>  (1) 
O=S1(=O)NCCN1Cc1ccc(-c2ccccc2)cc1

$$$$
