
     RDKit          3D

 19 21  0  0  0  0  0  0  0  0999 V2000
   -5.2521    2.0974   -0.2553 C   0  0  0  0  0  0  0  0  0  0  0  0
   -4.8521    1.3613    0.9994 C   0  0  0  0  0  0  0  0  0  0  0  0
   -3.7936    0.3621    0.6116 C   0  0  0  0  0  0  0  0  0  0  0  0
   -2.4437    0.5361    0.5823 C   0  0  0  0  0  0  0  0  0  0  0  0
   -1.6737   -0.4913    0.2036 C   0  0  0  0  0  0  0  0  0  0  0  0
   -0.2733   -0.5024    0.1117 C   0  0  0  0  0  0  0  0  0  0  0  0
    0.4761    0.6720    0.4418 N   0  0  0  0  0  0  0  0  0  0  0  0
    1.8743    0.7134    0.3669 C   0  0  0  0  0  0  0  0  0  0  0  0
    2.6503   -0.3511   -0.0241 C   0  0  0  0  0  0  0  0  0  0  0  0
    4.0235   -0.2436   -0.0762 C   0  0  0  0  0  0  0  0  0  0  0  0
    4.6322    0.9324    0.2634 C   0  0  0  0  0  0  0  0  0  0  0  0
    6.0307    1.0244    0.2047 O   0  0  0  0  0  0  0  0  0  0  0  0
    3.8756    2.0296    0.6637 C   0  0  0  0  0  0  0  0  0  0  0  0
    2.5087    1.8930    0.7060 C   0  0  0  0  0  0  0  0  0  0  0  0
    0.3509   -1.6055   -0.2821 N   0  0  0  0  0  0  0  0  0  0  0  0
   -0.2577   -2.7527   -0.6123 C   0  0  0  0  0  0  0  0  0  0  0  0
   -1.6083   -2.7600   -0.5294 N   0  0  0  0  0  0  0  0  0  0  0  0
   -2.3097   -1.6546   -0.1300 C   0  0  0  0  0  0  0  0  0  0  0  0
   -3.9582   -1.2607    0.1005 S   0  0  0  0  0  0  0  0  0  0  0  0
  1  2  1  0
  2  3  1  0
  3  4  2  0
  4  5  1  0
  5  6  2  0
  6  7  1  0
  7  8  1  0
  8  9  2  0
  9 10  1  0
 10 11  2  0
 11 12  1  0
 11 13  1  0
 13 14  2  0
  6 15  1  0
 15 16  2  0
 16 17  1  0
 17 18  2  0
 18 19  1  0
 19  3  1  0
 18  5  1  0
 14  8  1  0
M  END
>  <zinc_id>  (1) 
ZINC000001291411

>  <smiles>  (1) 
CCc1cc2c(Nc3ccc(O)cc3)ncnc2s1

$$$$
