
     RDKit          3D

 19 19  0  0  0  0  0  0  0  0999 V2000
    4.5566    1.3506   -1.6564 C   0  0  0  0  0  0  0  0  0  0  0  0
    4.3484   -0.0289   -1.0003 C   0  0  0  0  0  0  0  0  0  0  0  0
    2.9734    0.0395   -0.4582 N   0  0  0  0  0  0  0  0  0  0  0  0
    2.8071    0.9551    0.6398 C   0  0  0  0  0  0  0  0  0  0  0  0
    3.6018    0.3630    1.8309 C   0  0  0  0  0  0  0  0  0  0  0  0
    1.9917   -0.7453   -1.0445 C   0  0  0  0  0  0  0  0  0  0  0  0
    2.5214   -1.6823   -2.3640 S   0  0  0  0  0  0  0  0  0  0  0  0
    0.6497   -0.8727   -0.7411 N   0  0  0  0  0  0  0  0  0  0  0  0
   -0.1063   -0.2792    0.2482 C   0  0  0  0  0  0  0  0  0  0  0  0
    0.3228    0.5272    1.1008 O   0  0  0  0  0  0  0  0  0  0  0  0
   -1.5506   -0.6134    0.3263 C   0  0  0  0  0  0  0  0  0  0  0  0
   -1.8897   -1.9460    0.6201 C   0  0  0  0  0  0  0  0  0  0  0  0
   -3.1887   -2.3573    0.6970 C   0  0  0  0  0  0  0  0  0  0  0  0
   -4.1636   -1.3890    0.4666 C   0  0  0  0  0  0  0  0  0  0  0  0
   -3.8327   -0.0927    0.1809 C   0  0  0  0  0  0  0  0  0  0  0  0
   -2.4927    0.3441    0.0992 C   0  0  0  0  0  0  0  0  0  0  0  0
   -2.2518    1.7099   -0.2120 N   0  0  0  0  0  4  0  0  0  0  0  0
   -3.1294    2.3265   -0.9041 O   0  0  0  0  0  0  0  0  0  0  0  0
   -1.1671    2.3909    0.1723 O   0  0  0  0  0  1  0  0  0  0  0  0
  1  2  1  0
  2  3  1  0
  3  4  1  0
  4  5  1  0
  3  6  1  0
  6  7  2  0
  6  8  1  0
  8  9  1  0
  9 10  2  0
  9 11  1  0
 11 12  2  0
 12 13  1  0
 13 14  2  0
 14 15  1  0
 15 16  2  0
 16 17  1  0
 17 18  2  0
 17 19  1  0
 16 11  1  0
M  CHG  2  17   1  19  -1
M  END
>  <zinc_id>  (1) 
ZINC000000513296

>  <smiles>  (1) 
CCN(CC)C(=S)NC(=O)c1ccccc1[N+](=O)[O-]

$$$$
