
     RDKit          3D

 20 20  0  0  0  0  0  0  0  0999 V2000
   -5.1205    1.6566   -0.0848 C   0  0  0  0  0  0  0  0  0  0  0  0
   -4.7919    0.5001    0.8231 C   0  0  0  0  0  0  0  0  0  0  0  0
   -5.1795   -0.7890    0.0886 C   0  0  0  0  0  0  0  0  0  0  0  0
   -5.6839    0.6144    2.0438 C   0  0  0  0  0  0  0  0  0  0  0  0
   -3.3297    0.4665    1.2130 C   0  0  0  0  0  0  0  0  0  0  0  0
   -2.5000    0.3389   -0.0320 C   0  0  0  0  0  0  0  0  0  0  0  0
   -2.8496   -0.9496   -0.7890 C   0  0  0  0  0  0  0  0  0  0  0  0
   -2.6241    1.5186   -0.9571 C   0  0  0  0  0  0  0  0  0  0  0  0
   -1.0893    0.1780    0.3501 N   0  0  0  0  0  0  0  0  0  0  0  0
   -0.0770    0.0344   -0.6343 C   0  0  0  0  0  0  0  0  0  0  0  0
   -0.4241    0.0491   -1.8391 O   0  0  0  0  0  0  0  0  0  0  0  0
    1.3311   -0.1266   -0.2672 C   0  0  0  0  0  0  0  0  0  0  0  0
    2.3106   -0.2648   -1.2275 C   0  0  0  0  0  0  0  0  0  0  0  0
    3.6378   -0.4165   -0.8820 C   0  0  0  0  0  0  0  0  0  0  0  0
    4.0516   -0.4377    0.4331 C   0  0  0  0  0  0  0  0  0  0  0  0
    5.4174   -0.5938    0.7908 N   0  0  0  0  0  4  0  0  0  0  0  0
    6.2590   -0.7143   -0.1165 O   0  0  0  0  0  0  0  0  0  0  0  0
    5.8545   -0.6183    2.0872 O   0  0  0  0  0  1  0  0  0  0  0  0
    3.0667   -0.2988    1.3982 C   0  0  0  0  0  0  0  0  0  0  0  0
    1.7408   -0.1473    1.0501 C   0  0  0  0  0  0  0  0  0  0  0  0
  1  2  1  0
  2  3  1  0
  2  4  1  0
  2  5  1  0
  5  6  1  0
  6  7  1  0
  6  8  1  0
  6  9  1  0
  9 10  1  0
 10 11  2  0
 10 12  1  0
 12 13  2  0
 13 14  1  0
 14 15  2  0
 15 16  1  0
 16 17  2  0
 16 18  1  0
 15 19  1  0
 19 20  2  0
 20 12  1  0
M  CHG  2  16   1  18  -1
M  END
>  <zinc_id>  (1) 
ZINC000000074892

>  <smiles>  (1) 
CC(C)(C)CC(C)(C)NC(=O)c1ccc([N+](=O)[O-])cc1

$$$$
