
     RDKit          3D

 20 23  0  0  0  0  0  0  0  0999 V2000
    1.9207    0.8672    1.2814 C   0  0  0  0  0  0  0  0  0  0  0  0
    2.3954   -0.2502    0.5522 C   0  0  1  0  0  0  0  0  0  0  0  0
    2.0841   -1.6142    0.7963 C   0  0  0  0  0  0  0  0  0  0  0  0
    0.5711   -1.6829    0.7495 C   0  0  0  0  0  0  0  0  0  0  0  0
   -0.0363   -0.6305   -0.1222 C   0  0  0  0  0  0  0  0  0  0  0  0
    0.6051    0.1326   -0.9431 C   0  0  0  0  0  0  0  0  0  0  0  0
   -0.0242    1.1309   -1.7612 C   0  0  0  0  0  0  0  0  0  0  0  0
   -1.4792    1.3115   -1.6714 C   0  0  0  0  0  0  0  0  0  0  0  0
   -2.1943    0.4375   -0.7352 C   0  0  0  0  0  0  0  0  0  0  0  0
   -3.5748    0.5232   -0.5728 C   0  0  0  0  0  0  0  0  0  0  0  0
   -4.2235   -0.3003    0.3051 C   0  0  0  0  0  0  0  0  0  0  0  0
   -5.6211   -0.2122    0.4682 O   0  0  0  0  0  0  0  0  0  0  0  0
   -3.5410   -1.2352    1.0533 C   0  0  0  0  0  0  0  0  0  0  0  0
   -2.1740   -1.3398    0.9110 C   0  0  0  0  0  0  0  0  0  0  0  0
   -1.5136   -0.4922    0.0085 C   0  0  0  0  0  0  0  0  0  0  0  0
    2.1544   -0.0074   -1.0830 C   0  0  1  0  0  0  0  0  0  0  0  0
    2.5142    1.5816   -0.8964 C   0  0  0  0  0  0  0  0  0  0  0  0
    3.7694    1.5691   -0.1567 C   0  0  0  0  0  0  0  0  0  0  0  0
    3.9970   -0.0489    0.1922 C   0  0  1  0  0  0  0  0  0  0  0  0
    4.3705    0.2601    1.6649 O   0  0  0  0  0  0  0  0  0  0  0  0
  2  1  1  1
  2  3  1  0
  3  4  1  0
  4  5  1  0
  5  6  2  0
  6  7  1  0
  7  8  1  0
  8  9  1  0
  9 10  2  0
 10 11  1  0
 11 12  1  0
 11 13  2  0
 13 14  1  0
 14 15  2  0
  6 16  1  0
 16 17  1  1
 17 18  1  0
 18 19  1  0
 19 20  1  1
 16  2  1  0
 19  2  1  0
 15  5  1  0
 15  9  1  0
M  END
>  <zinc_id>  (1) 
ZINC000000007345

>  <smiles>  (1) 
C[C@@]12CCC3=C(CCc4cc(O)ccc43)[C@H]1CC[C@H]2O

$$$$
