
     RDKit          3D

 21 22  0  0  0  0  0  0  0  0999 V2000
    7.3827    0.1194   -0.9420 C   0  0  0  0  0  0  0  0  0  0  0  0
    5.9922   -0.4075   -0.8790 C   0  0  0  0  0  0  0  0  0  0  0  0
    5.6118   -1.7186   -1.1268 C   0  0  0  0  0  0  0  0  0  0  0  0
    4.2637   -1.7700   -0.9609 C   0  0  0  0  0  0  0  0  0  0  0  0
    3.8532   -0.4798   -0.6139 C   0  0  0  0  0  0  0  0  0  0  0  0
    2.4470   -0.1810   -0.3614 C   0  0  0  0  0  0  0  0  0  0  0  0
    2.0072    1.0080   -0.0352 C   0  0  0  0  0  0  0  0  0  0  0  0
    0.6010    1.3057    0.2172 C   0  0  0  0  0  0  0  0  0  0  0  0
    0.2465    2.4769    0.5277 O   0  0  0  0  0  0  0  0  0  0  0  0
   -0.4321    0.3312    0.1339 N   0  0  0  0  0  0  0  0  0  0  0  0
   -1.7991    0.6393    0.3834 C   0  0  0  0  0  0  0  0  0  0  0  0
   -2.2065    1.9285    0.7263 C   0  0  0  0  0  0  0  0  0  0  0  0
   -3.5576    2.1011    0.9423 C   0  0  0  0  0  0  0  0  0  0  0  0
   -4.4764    1.0781    0.8334 C   0  0  0  0  0  0  0  0  0  0  0  0
   -4.0584   -0.1778    0.4967 C   0  0  0  0  0  0  0  0  0  0  0  0
   -4.9719   -1.2829    0.3689 N   0  0  0  0  0  4  0  0  0  0  0  0
   -4.7436   -2.1969   -0.4516 O   0  0  0  0  0  0  0  0  0  0  0  0
   -6.0809   -1.3154    1.1509 O   0  0  0  0  0  1  0  0  0  0  0  0
   -2.7108   -0.3972    0.2707 C   0  0  0  0  0  0  0  0  0  0  0  0
   -2.2763   -1.7829   -0.0973 C   0  0  0  0  0  0  0  0  0  0  0  0
    4.9083    0.2665   -0.5833 O   0  0  0  0  0  0  0  0  0  0  0  0
  1  2  1  0
  2  3  2  0
  3  4  1  0
  4  5  2  0
  5  6  1  0
  6  7  2  0
  7  8  1  0
  8  9  2  0
  8 10  1  0
 10 11  1  0
 11 12  2  0
 12 13  1  0
 13 14  2  0
 14 15  1  0
 15 16  1  0
 16 17  2  0
 16 18  1  0
 15 19  2  0
 19 20  1  0
  5 21  1  0
 21  2  1  0
 19 11  1  0
M  CHG  2  16   1  18  -1
M  END
>  <zinc_id>  (1) 
ZINC000000106400

>  <smiles>  (1) 
Cc1ccc(/C=C/C(=O)Nc2cccc([N+](=O)[O-])c2C)o1

$$$$
