
     RDKit          3D

 19 20  0  0  0  0  0  0  0  0999 V2000
    4.0721    0.2162    2.0355 C   0  0  0  0  0  0  0  0  0  0  0  0
    3.2056    0.4836    0.8502 C   0  0  0  0  0  0  0  0  0  0  0  0
    3.1226    1.6451    0.1581 N   0  0  0  0  0  0  0  0  0  0  0  0
    2.2561    1.5108   -0.8222 N   0  0  0  0  0  0  0  0  0  0  0  0
    1.9271    2.5650   -1.7625 C   0  0  0  0  0  0  0  0  0  0  0  0
    1.7404    0.2527   -0.8055 C   0  0  0  0  0  0  0  0  0  0  0  0
    0.7457   -0.2140   -1.7858 C   0  0  0  0  0  0  0  0  0  0  0  0
   -0.6389   -0.2795   -1.3071 C   0  0  0  0  0  0  0  0  0  0  0  0
   -1.2392    0.4820   -0.4887 N   0  0  0  0  0  0  0  0  0  0  0  0
   -2.6183    0.2786   -0.1221 C   0  0  0  0  0  0  0  0  0  0  0  0
   -3.6054    1.1832   -0.4466 C   0  0  0  0  0  0  0  0  0  0  0  0
   -4.9286    0.9608   -0.0995 C   0  0  0  0  0  0  0  0  0  0  0  0
   -5.2667   -0.1911    0.5840 C   0  0  0  0  0  0  0  0  0  0  0  0
   -4.3093   -1.1051    0.9190 C   0  0  0  0  0  0  0  0  0  0  0  0
   -3.0033   -0.8605    0.5638 C   0  0  0  0  0  0  0  0  0  0  0  0
    2.3325   -0.4017    0.2455 C   0  0  0  0  0  0  0  0  0  0  0  0
    2.1078   -1.7407    0.6481 N   0  0  0  0  0  4  0  0  0  0  0  0
    1.0635   -2.0566    1.2416 O   0  0  0  0  0  0  0  0  0  0  0  0
    3.0364   -2.7287    0.3944 O   0  0  0  0  0  1  0  0  0  0  0  0
  1  2  1  0
  2  3  2  0
  3  4  1  0
  4  5  1  0
  4  6  1  0
  6  7  1  0
  7  8  1  0
  8  9  2  0
  9 10  1  0
 10 11  2  0
 11 12  1  0
 12 13  2  0
 13 14  1  0
 14 15  2  0
  6 16  2  0
 16 17  1  0
 17 18  2  0
 17 19  1  0
 16  2  1  0
 15 10  1  0
M  CHG  2  17   1  19  -1
M  END
>  <zinc_id>  (1) 
ZINC000004053914

>  <smiles>  (1) 
Cc1nn(C)c(C/C=N/c2ccccc2)c1[N+](=O)[O-]

$$$$
