
     RDKit          3D

 19 21  0  0  0  0  0  0  0  0999 V2000
    2.5325    0.3265   -0.9305 O   0  0  0  0  0  0  0  0  0  0  0  0
    2.7507   -0.2802    0.1379 C   0  0  0  0  0  0  0  0  0  0  0  0
    1.7186   -0.9070    0.8264 N   0  0  0  0  0  0  0  0  0  0  0  0
    0.3908   -0.9162    0.4032 N   0  0  0  0  0  0  0  0  0  0  0  0
   -0.2447    0.0986   -0.0214 C   0  0  0  0  0  0  0  0  0  0  0  0
   -1.6374    0.0183   -0.4499 C   0  0  0  0  0  0  0  0  0  0  0  0
   -2.3268   -1.1753   -0.4105 C   0  0  0  0  0  0  0  0  0  0  0  0
   -3.6501   -1.2321   -0.8219 C   0  0  0  0  0  0  0  0  0  0  0  0
   -4.3297   -0.1086   -1.2844 C   0  0  0  0  0  0  0  0  0  0  0  0
   -3.6425    1.0825   -1.3239 C   0  0  0  0  0  0  0  0  0  0  0  0
   -2.3172    1.1217   -0.9081 C   0  0  0  0  0  0  0  0  0  0  0  0
   -4.5820    2.1134   -1.8495 C   0  0  0  0  0  0  0  0  0  0  0  0
   -5.9609    1.4519   -1.7312 C   0  0  0  0  0  0  0  0  0  0  0  0
   -5.6596    0.0141   -1.7364 N   0  0  0  0  0  0  0  0  0  0  0  0
    4.1445   -0.2953    0.6228 C   0  0  0  0  0  0  0  0  0  0  0  0
    4.6373   -0.8851    1.7538 C   0  0  0  0  0  0  0  0  0  0  0  0
    5.9446   -0.7649    1.9881 C   0  0  0  0  0  0  0  0  0  0  0  0
    6.6942   -0.0677    1.0906 C   0  0  0  0  0  0  0  0  0  0  0  0
    5.5379    0.4053   -0.0677 S   0  0  0  0  0  0  0  0  0  0  0  0
  1  2  2  0
  2  3  1  0
  3  4  1  0
  4  5  2  0
  5  6  1  0
  6  7  2  0
  7  8  1  0
  8  9  2  0
  9 10  1  0
 10 11  2  0
 10 12  1  0
 12 13  1  0
 13 14  1  0
  2 15  1  0
 15 16  2  0
 16 17  1  0
 17 18  2  0
 18 19  1  0
 11  6  1  0
 19 15  1  0
 14  9  1  0
M  END
>  <zinc_id>  (1) 
ZINC000001716556

>  <smiles>  (1) 
O=C(N/N=C/c1ccc2c(c1)CCN2)c1cccs1

$$$$
