
     RDKit          3D

 19 20  0  0  0  0  0  0  0  0999 V2000
   -3.0998   -3.2333   -0.5078 C   0  0  0  0  0  0  0  0  0  0  0  0
   -3.4666   -2.1615    0.3198 O   0  0  0  0  0  0  0  0  0  0  0  0
   -2.7653   -0.9609    0.3184 C   0  0  0  0  0  0  0  0  0  0  0  0
   -1.6813   -0.7935   -0.5052 C   0  0  0  0  0  0  0  0  0  0  0  0
   -0.9606    0.3846   -0.5337 C   0  0  0  0  0  0  0  0  0  0  0  0
    0.4512    0.5950   -1.6099 S   0  0  0  0  0  0  0  0  0  0  0  0
    1.9647    0.0963   -0.8236 C   0  0  0  0  0  0  0  0  0  0  0  0
    2.6955    1.0200   -0.1061 C   0  0  0  0  0  0  0  0  0  0  0  0
    3.8868    0.6657    0.5239 C   0  0  0  0  0  0  0  0  0  0  0  0
    4.3689   -0.6235    0.4467 C   0  0  0  0  0  0  0  0  0  0  0  0
    5.6601   -1.0023    1.1312 C   0  0  0  0  0  0  0  0  0  0  0  0
    3.6488   -1.5528   -0.2657 C   0  0  0  0  0  0  0  0  0  0  0  0
    2.4794   -1.1775   -0.8762 C   0  0  0  0  0  0  0  0  0  0  0  0
   -1.3891    1.3892    0.3128 C   0  0  0  0  0  0  0  0  0  0  0  0
   -0.7162    2.5888    0.3345 O   0  0  0  0  0  0  0  0  0  0  0  0
   -1.0963    3.6513    1.1688 C   0  0  0  0  0  0  0  0  0  0  0  0
   -2.4791    1.2303    1.1455 C   0  0  0  0  0  0  0  0  0  0  0  0
   -3.1882    0.0466    1.1616 C   0  0  0  0  0  0  0  0  0  0  0  0
   -4.3128   -0.1625    1.9988 N   0  0  0  0  0  0  0  0  0  0  0  0
  1  2  1  0
  2  3  1  0
  3  4  2  0
  4  5  1  0
  5  6  1  0
  6  7  1  0
  7  8  2  0
  8  9  1  0
  9 10  2  0
 10 11  1  0
 10 12  1  0
 12 13  2  0
  5 14  2  0
 14 15  1  0
 15 16  1  0
 14 17  1  0
 17 18  2  0
 18 19  1  0
 18  3  1  0
 13  7  1  0
M  END
>  <zinc_id>  (1) 
ZINC000000501370

>  <smiles>  (1) 
COc1cc(Sc2ccc(C)cc2)c(OC)cc1N

$$$$
