
     RDKit          3D

 20 22  0  0  0  0  0  0  0  0999 V2000
    4.0540    1.4773    0.4927 C   0  0  0  0  0  0  0  0  0  0  0  0
    3.9802    1.4897   -1.0335 C   0  0  0  0  0  0  0  0  0  0  0  0
    2.2529    1.1774   -1.4959 S   0  0  0  0  0  0  0  0  0  0  0  0
    1.8118   -0.4841   -1.0109 C   0  0  0  0  0  0  0  0  0  0  0  0
    1.9572   -1.5578   -1.7722 N   0  0  0  0  0  0  0  0  0  0  0  0
    1.5252   -2.6122   -1.0845 N   0  0  0  0  0  0  0  0  0  0  0  0
    1.1012   -2.2371    0.1136 C   0  0  0  0  0  0  0  0  0  0  0  0
    0.5637   -3.0386    1.1585 N   0  0  0  0  0  0  0  0  0  0  0  0
    1.2760   -0.8911    0.1765 N   0  0  0  0  0  0  0  0  0  0  0  0
    0.9955    0.0250    1.2280 C   0  0  0  0  0  0  0  0  0  0  0  0
   -0.3388    0.6262    1.2341 C   0  0  0  0  0  0  0  0  0  0  0  0
   -0.6654    1.5174    2.2289 C   0  0  0  0  0  0  0  0  0  0  0  0
   -1.8908    2.1362    2.3235 C   0  0  0  0  0  0  0  0  0  0  0  0
   -2.8413    1.8458    1.3683 C   0  0  0  0  0  0  0  0  0  0  0  0
   -2.5356    0.9547    0.3609 C   0  0  0  0  0  0  0  0  0  0  0  0
   -3.5364    0.7079   -0.5664 C   0  0  0  0  0  0  0  0  0  0  0  0
   -3.2994   -0.1671   -1.5936 C   0  0  0  0  0  0  0  0  0  0  0  0
   -2.0631   -0.7673   -1.6566 C   0  0  0  0  0  0  0  0  0  0  0  0
   -1.0534   -0.5448   -0.7564 C   0  0  0  0  0  0  0  0  0  0  0  0
   -1.2936    0.3424    0.2850 C   0  0  0  0  0  0  0  0  0  0  0  0
  1  2  1  0
  2  3  1  0
  3  4  1  0
  4  5  2  0
  5  6  1  0
  6  7  2  0
  7  8  1  0
  7  9  1  0
  9 10  1  0
 10 11  1  0
 11 12  2  0
 12 13  1  0
 13 14  2  0
 14 15  1  0
 15 16  2  0
 16 17  1  0
 17 18  2  0
 18 19  1  0
 19 20  2  0
  9  4  1  0
 20 11  1  0
 20 15  1  0
M  END
>  <zinc_id>  (1) 
ZINC000001922532

>  <smiles>  (1) 
CCSc1nnc(N)n1Cc1cccc2ccccc12

$$$$
