
     RDKit          3D

 20 22  0  0  0  0  0  0  0  0999 V2000
   -1.6365    3.7032   -0.0090 C   0  0  0  0  0  0  0  0  0  0  0  0
   -0.5956    2.6529   -0.2214 C   0  0  0  0  0  0  0  0  0  0  0  0
   -0.1550    2.7033   -1.6699 C   0  0  0  0  0  0  0  0  0  0  0  0
   -1.0935    1.3029    0.0339 C   0  0  0  0  0  0  0  0  0  0  0  0
   -2.3764    1.0354    0.3293 N   0  0  0  0  0  0  0  0  0  0  0  0
   -2.5398   -0.2559    0.4876 N   0  0  0  0  0  0  0  0  0  0  0  0
   -3.6021   -1.0510    0.7868 C   0  0  0  0  0  0  0  0  0  0  0  0
   -3.5269   -2.4199    0.9023 C   0  0  0  0  0  0  0  0  0  0  0  0
   -2.3217   -3.0145    0.7064 C   0  0  0  0  0  0  0  0  0  0  0  0
   -1.2516   -2.2115    0.4047 C   0  0  0  0  0  0  0  0  0  0  0  0
   -1.3427   -0.8169    0.2901 C   0  0  0  0  0  0  0  0  0  0  0  0
   -0.3732    0.1323   -0.0042 C   0  0  0  0  0  0  0  0  0  0  0  0
    1.0347   -0.1100   -0.2564 C   0  0  0  0  0  0  0  0  0  0  0  0
    1.4249   -1.2972   -0.2422 N   0  0  0  0  0  0  0  0  0  0  0  0
    2.7058   -1.8314   -0.4481 N   0  0  0  0  0  0  0  0  0  0  0  0
    3.6947   -0.8398   -0.7103 C   0  0  0  0  0  0  0  0  0  0  0  0
    4.6882   -0.9175   -1.4310 O   0  0  0  0  0  0  0  0  0  0  0  0
    3.4124    0.3969    0.0122 C   0  0  0  0  0  0  0  0  0  0  0  0
    2.0287    1.0294   -0.5376 C   0  0  2  0  0  0  0  0  0  0  0  0
    1.8256    1.8092    0.9256 C   0  0  0  0  0  0  0  0  0  0  0  0
  1  2  1  0
  2  3  1  0
  2  4  1  0
  4  5  2  0
  5  6  1  0
  6  7  1  0
  7  8  2  0
  8  9  1  0
  9 10  2  0
 10 11  1  0
 11 12  2  0
 12 13  1  0
 13 14  2  0
 14 15  1  0
 15 16  1  0
 16 17  2  0
 16 18  1  0
 18 19  1  0
 19 20  1  1
 12  4  1  0
 19 13  1  0
 11  6  1  0
M  END
>  <zinc_id>  (1) 
ZINC000000023395

>  <smiles>  (1) 
CC(C)c1nn2ccccc2c1C1=NNC(=O)C[C@@H]1C

$$$$
