
     RDKit          3D

 20 23  0  0  0  0  0  0  0  0999 V2000
    2.9492   -2.3538    0.9431 N   0  0  0  0  0  0  0  0  0  0  0  0
    3.4185   -1.0355    0.5890 C   0  0  0  0  0  0  0  0  0  0  0  0
    4.7649   -0.7667    0.5737 C   0  0  0  0  0  0  0  0  0  0  0  0
    5.1982    0.4895    0.2357 C   0  0  0  0  0  0  0  0  0  0  0  0
    4.2983    1.4698   -0.0844 C   0  0  0  0  0  0  0  0  0  0  0  0
    2.9626    1.1936   -0.0665 C   0  0  0  0  0  0  0  0  0  0  0  0
    2.5171   -0.0572    0.2694 C   0  0  0  0  0  0  0  0  0  0  0  0
    1.1224   -0.3839    0.2990 N   0  0  0  0  0  0  0  0  0  0  0  0
    0.1322    0.5815   -0.0210 C   0  0  0  0  0  0  0  0  0  0  0  0
    0.5241    1.7325   -0.3310 O   0  0  0  0  0  0  0  0  0  0  0  0
   -1.3071    0.2660    0.0033 C   0  0  0  0  0  0  0  0  0  0  0  0
   -1.5742   -0.8633   -0.9964 C   0  0  0  0  0  0  0  0  0  0  0  0
   -3.0338   -1.1623   -1.1209 C   0  0  0  0  0  0  0  0  0  0  0  0
   -3.7506    0.1311   -1.4943 C   0  0  0  0  0  0  0  0  0  0  0  0
   -3.5850    1.1637   -0.3886 C   0  0  0  0  0  0  0  0  0  0  0  0
   -4.0632    0.6106    0.9424 C   0  0  0  0  0  0  0  0  0  0  0  0
   -3.2065   -0.5939    1.2821 C   0  0  0  0  0  0  0  0  0  0  0  0
   -3.5089   -1.6594    0.2467 C   0  0  0  0  0  0  0  0  0  0  0  0
   -1.7491   -0.2570    1.3627 C   0  0  0  0  0  0  0  0  0  0  0  0
   -2.1091    1.4946   -0.3230 C   0  0  0  0  0  0  0  0  0  0  0  0
  1  2  1  0
  2  3  2  0
  3  4  1  0
  4  5  2  0
  5  6  1  0
  6  7  2  0
  7  8  1  0
  8  9  1  0
  9 10  2  0
  9 11  1  0
 11 12  1  0
 12 13  1  0
 13 14  1  0
 14 15  1  0
 15 16  1  0
 16 17  1  0
 17 18  1  0
 17 19  1  0
 15 20  1  0
  7  2  1  0
 19 11  1  0
 20 11  1  0
 18 13  1  0
M  END
>  <zinc_id>  (1) 
ZINC000003878190

>  <smiles>  (1) 
Nc1ccccc1NC(=O)C12CC3CC(CC(C3)C1)C2

$$$$
