
     RDKit          3D

 19 21  0  0  0  0  0  0  0  0999 V2000
   -1.0075   -0.6701    1.9845 N   0  0  0  0  0  0  0  0  0  0  0  0
   -0.6082   -0.3056    0.7043 N   0  0  0  0  0  0  0  0  0  0  0  0
   -1.5513   -0.1888   -0.3259 C   0  0  0  0  0  0  0  0  0  0  0  0
   -1.1926    0.1347   -1.4717 O   0  0  0  0  0  0  0  0  0  0  0  0
   -2.9718   -0.4478   -0.0582 C   0  0  0  0  0  0  0  0  0  0  0  0
   -3.8450   -0.2683   -1.2798 C   0  0  0  0  0  0  0  0  0  0  0  0
   -4.9545    0.6875   -0.9825 C   0  0  0  0  0  0  0  0  0  0  0  0
   -5.7895    0.2389    0.2013 C   0  0  0  0  0  0  0  0  0  0  0  0
   -4.8570    0.0915    1.4092 C   0  0  0  0  0  0  0  0  0  0  0  0
   -3.4490    0.4909    1.0394 C   0  0  0  0  0  0  0  0  0  0  0  0
    0.8010   -0.0636    0.5126 C   0  0  0  0  0  0  0  0  0  0  0  0
    1.7905   -0.8908    0.7765 N   0  0  0  0  0  0  0  0  0  0  0  0
    3.0321   -0.5231    0.5481 C   0  0  0  0  0  0  0  0  0  0  0  0
    4.2019   -1.2913    0.7774 C   0  0  0  0  0  0  0  0  0  0  0  0
    5.4086   -0.7663    0.4894 C   0  0  0  0  0  0  0  0  0  0  0  0
    5.6432    0.4883   -0.0256 C   0  0  0  0  0  0  0  0  0  0  0  0
    4.5008    1.2479   -0.2535 C   0  0  0  0  0  0  0  0  0  0  0  0
    3.2291    0.7283    0.0368 C   0  0  0  0  0  0  0  0  0  0  0  0
    1.6191    1.3076   -0.0875 S   0  0  0  0  0  0  0  0  0  0  0  0
  1  2  1  0
  2  3  1  0
  3  4  2  0
  3  5  1  0
  5  6  1  0
  6  7  1  0
  7  8  1  0
  8  9  1  0
  9 10  1  0
  2 11  1  0
 11 12  2  0
 12 13  1  0
 13 14  2  0
 14 15  1  0
 15 16  2  0
 16 17  1  0
 17 18  2  0
 18 19  1  0
 10  5  1  0
 19 11  1  0
 18 13  1  0
M  END
>  <zinc_id>  (1) 
ZINC000000139529

>  <smiles>  (1) 
NN(C(=O)C1CCCCC1)c1nc2ccccc2s1

$$$$
