
     RDKit          3D

 20 22  0  0  0  0  0  0  0  0999 V2000
    5.3365    1.1228   -0.7525 C   0  0  0  0  0  0  0  0  0  0  0  0
    3.9357    1.2213   -0.7077 O   0  0  0  0  0  0  0  0  0  0  0  0
    3.1644    0.1212   -0.3001 C   0  0  0  0  0  0  0  0  0  0  0  0
    3.7809   -1.0509    0.0547 C   0  0  0  0  0  0  0  0  0  0  0  0
    3.0341   -2.1387    0.4569 C   0  0  0  0  0  0  0  0  0  0  0  0
    1.6598   -2.0320    0.4975 C   0  0  0  0  0  0  0  0  0  0  0  0
    1.0199   -0.8619    0.1447 C   0  0  0  0  0  0  0  0  0  0  0  0
   -0.4471   -0.8039    0.2065 C   0  0  0  0  0  0  0  0  0  0  0  0
   -1.1491   -1.8791    0.6021 N   0  0  0  0  0  0  0  0  0  0  0  0
   -2.4909   -1.8891    0.6795 C   0  0  0  0  0  0  0  0  0  0  0  0
   -3.3099   -3.2378    1.1723 S   0  0  0  0  0  0  0  0  0  0  0  0
   -3.1673   -0.7988    0.3551 N   0  0  0  0  0  0  0  0  0  0  0  0
   -2.4999    0.3170   -0.0520 C   0  0  0  0  0  0  0  0  0  0  0  0
   -1.1281    0.3431   -0.1365 C   0  0  0  0  0  0  0  0  0  0  0  0
   -0.2087    1.3941   -0.5370 C   0  0  0  0  0  0  0  0  0  0  0  0
   -0.7495    2.7661   -0.6602 C   0  0  0  0  0  0  0  0  0  0  0  0
   -1.9016    3.0951    0.2180 C   0  0  0  0  0  0  0  0  0  0  0  0
   -3.2399    2.7770   -0.4119 C   0  0  0  0  0  0  0  0  0  0  0  0
   -3.4276    1.3459   -0.3424 N   0  0  0  0  0  0  0  0  0  0  0  0
    1.7883    0.1885   -0.2463 C   0  0  0  0  0  0  0  0  0  0  0  0
  1  2  1  0
  2  3  1  0
  3  4  2  0
  4  5  1  0
  5  6  2  0
  6  7  1  0
  7  8  1  0
  8  9  1  0
  9 10  1  0
 10 11  2  0
 10 12  1  0
 12 13  2  0
 13 14  1  0
 14 15  1  0
 15 16  1  0
 16 17  1  0
 17 18  1  0
 18 19  1  0
  7 20  2  0
 20  3  1  0
 14  8  2  0
 19 13  1  0
M  END
>  <zinc_id>  (1) 
ZINC000003711229

>  <smiles>  (1) 
COc1cccc(-c2[nH]c(=S)nc3c2CCCCN3)c1

$$$$
