
     RDKit          3D

 21 22  0  0  0  0  0  0  0  0999 V2000
   -1.1879    2.2269   -1.6979 C   0  0  0  0  0  0  0  0  0  0  0  0
   -1.8862    2.2657   -0.3788 C   0  0  0  0  0  0  0  0  0  0  0  0
   -2.5749    0.9792   -0.1126 C   0  0  0  0  0  0  0  0  0  0  0  0
   -3.9487    0.9801   -0.2828 C   0  0  0  0  0  0  0  0  0  0  0  0
   -4.7000   -0.1485   -0.0600 C   0  0  0  0  0  0  0  0  0  0  0  0
   -4.0526   -1.2940    0.3407 C   0  0  0  0  0  0  0  0  0  0  0  0
   -2.6791   -1.2851    0.5076 C   0  0  0  0  0  0  0  0  0  0  0  0
   -1.9572   -2.5247    0.9442 C   0  0  0  0  0  0  0  0  0  0  0  0
   -1.9165   -0.1626    0.2873 C   0  0  0  0  0  0  0  0  0  0  0  0
   -0.5110   -0.1235    0.4366 N   0  0  0  0  0  0  0  0  0  0  0  0
    0.4040   -0.4669   -0.5763 C   0  0  0  0  0  0  0  0  0  0  0  0
   -0.1662   -0.8324   -1.6764 O   0  0  0  0  0  0  0  0  0  0  0  0
    1.8534   -0.4589   -0.5155 C   0  0  0  0  0  0  0  0  0  0  0  0
    2.5730   -1.2269   -1.4603 C   0  0  0  0  0  0  0  0  0  0  0  0
    3.9453   -1.3104   -1.4147 C   0  0  0  0  0  0  0  0  0  0  0  0
    4.6754   -0.6542   -0.4540 C   0  0  0  0  0  0  0  0  0  0  0  0
    3.9994    0.0899    0.4590 C   0  0  0  0  0  0  0  0  0  0  0  0
    2.5916    0.1828    0.4214 C   0  0  0  0  0  0  0  0  0  0  0  0
    1.9897    1.0006    1.4073 N   0  0  0  0  0  4  0  0  0  0  0  0
    1.0015    1.6764    1.1508 O   0  0  0  0  0  0  0  0  0  0  0  0
    2.5469    1.0866    2.6743 O   0  0  0  0  0  1  0  0  0  0  0  0
  1  2  1  0
  2  3  1  0
  3  4  2  0
  4  5  1  0
  5  6  2  0
  6  7  1  0
  7  8  1  0
  7  9  2  0
  9 10  1  0
 10 11  1  0
 11 12  2  0
 11 13  1  0
 13 14  2  0
 14 15  1  0
 15 16  2  0
 16 17  1  0
 17 18  2  0
 18 19  1  0
 19 20  2  0
 19 21  1  0
  9  3  1  0
 18 13  1  0
M  CHG  2  19   1  21  -1
M  END
>  <zinc_id>  (1) 
ZINC000000305185

>  <smiles>  (1) 
CCc1cccc(C)c1NC(=O)c1ccccc1[N+](=O)[O-]

$$$$
