
     RDKit          3D

 20 21  0  0  0  0  0  0  0  0999 V2000
    3.2832   -2.2681    2.1451 C   0  0  0  0  0  0  0  0  0  0  0  0
    1.9735   -2.2609    1.3831 C   0  0  0  0  0  0  0  0  0  0  0  0
    1.3889   -0.7769    1.8178 C   0  0  2  0  0  0  0  0  0  0  0  0
    0.0313   -0.8928    0.9634 C   0  0  0  0  0  0  0  0  0  0  0  0
   -0.4482   -1.9711    0.6860 O   0  0  0  0  0  0  0  0  0  0  0  0
   -0.5331    0.3537    0.5778 N   0  0  0  0  0  0  0  0  0  0  0  0
   -1.7329    0.3669   -0.1799 C   0  0  0  0  0  0  0  0  0  0  0  0
   -2.4146   -0.7600   -0.5839 C   0  0  0  0  0  0  0  0  0  0  0  0
   -3.5746   -0.6963   -1.3177 C   0  0  0  0  0  0  0  0  0  0  0  0
   -4.3012   -1.9226   -1.7477 C   0  0  0  0  0  0  0  0  0  0  0  0
   -4.1048    0.5117   -1.6808 C   0  0  0  0  0  0  0  0  0  0  0  0
   -3.4420    1.6757   -1.2896 C   0  0  0  0  0  0  0  0  0  0  0  0
   -2.2693    1.5824   -0.5471 C   0  0  0  0  0  0  0  0  0  0  0  0
   -1.6352    2.7606   -0.1744 O   0  0  0  0  0  0  0  0  0  0  0  0
    2.2120    0.0333    0.7529 C   0  0  0  0  0  0  0  0  0  0  0  0
    3.5470   -0.1945    0.7632 C   0  0  0  0  0  0  0  0  0  0  0  0
    4.3129    0.5283   -0.1770 C   0  0  0  0  0  0  0  0  0  0  0  0
    3.7212    1.4121   -1.0495 C   0  0  0  0  0  0  0  0  0  0  0  0
    2.3656    1.6214   -1.0358 C   0  0  0  0  0  0  0  0  0  0  0  0
    1.6204    0.8969   -0.0973 C   0  0  0  0  0  0  0  0  0  0  0  0
  1  2  1  0
  3  2  1  6
  3  4  1  0
  4  5  2  0
  4  6  1  0
  6  7  1  0
  7  8  2  0
  8  9  1  0
  9 10  1  0
  9 11  2  0
 11 12  1  0
 12 13  2  0
 13 14  1  0
  3 15  1  0
 15 16  2  0
 16 17  1  0
 17 18  2  0
 18 19  1  0
 19 20  2  0
 13  7  1  0
 20 15  1  0
M  END
>  <zinc_id>  (1) 
ZINC000000367769

>  <smiles>  (1) 
CC[C@H](C(=O)Nc1cc(C)ccc1O)c1ccccc1

$$$$
