
     RDKit          3D

 21 24  0  0  0  0  0  0  0  0999 V2000
    0.4941   -1.1898   -1.0922 O   0  0  0  0  0  0  0  0  0  0  0  0
    1.0977   -0.1384   -0.7749 C   0  0  0  0  0  0  0  0  0  0  0  0
    0.4108    1.0977   -0.7553 N   0  0  0  0  0  0  0  0  0  0  0  0
   -0.9407    1.2303   -1.0764 N   0  0  0  0  0  0  0  0  0  0  0  0
   -1.8394    0.7447   -0.3278 C   0  0  0  0  0  0  0  0  0  0  0  0
   -1.5896    0.0116    0.9201 C   0  0  0  0  0  0  0  0  0  0  0  0
   -2.1865   -1.3866    0.7421 C   0  0  0  0  0  0  0  0  0  0  0  0
   -3.6468   -1.2113    0.3975 C   0  0  0  0  0  0  0  0  0  0  0  0
   -4.4061   -0.5164    1.5101 C   0  0  0  0  0  0  0  0  0  0  0  0
   -3.7666    0.8687    1.6583 C   0  0  0  0  0  0  0  0  0  0  0  0
   -2.3330    0.6991    2.0495 C   0  0  0  0  0  0  0  0  0  0  0  0
   -3.9476    1.6600    0.3977 C   0  0  0  0  0  0  0  0  0  0  0  0
   -3.2716    0.9283   -0.7404 C   0  0  0  0  0  0  0  0  0  0  0  0
   -3.8348   -0.4756   -0.9127 C   0  0  0  0  0  0  0  0  0  0  0  0
    2.5103   -0.2286   -0.4316 C   0  0  0  0  0  0  0  0  0  0  0  0
    3.1656   -1.4377   -0.4553 C   0  0  0  0  0  0  0  0  0  0  0  0
    4.5005   -1.5191   -0.1304 C   0  0  0  0  0  0  0  0  0  0  0  0
    5.2154   -0.3861    0.2280 C   0  0  0  0  0  0  0  0  0  0  0  0
    6.5580   -0.4625    0.5557 O   0  0  0  0  0  0  0  0  0  0  0  0
    4.5702    0.8073    0.2518 C   0  0  0  0  0  0  0  0  0  0  0  0
    3.2401    0.9044   -0.0695 C   0  0  0  0  0  0  0  0  0  0  0  0
  1  2  2  0
  2  3  1  0
  3  4  1  0
  4  5  2  3
  5  6  1  0
  6  7  1  0
  7  8  1  0
  8  9  1  0
  9 10  1  0
 10 11  1  0
 10 12  1  0
 12 13  1  0
 13 14  1  0
  2 15  1  0
 15 16  2  0
 16 17  1  0
 17 18  2  0
 18 19  1  0
 18 20  1  0
 20 21  2  0
 13  5  1  0
 21 15  1  0
 11  6  1  0
 14  8  1  0
M  END
>  <zinc_id>  (1) 
ZINC000000246756

>  <smiles>  (1) 
O=C(NN=C1C2CC3CC(C2)CC1C3)c1ccc(O)cc1

$$$$
