
     RDKit          3D

 19 20  0  0  0  0  0  0  0  0999 V2000
    4.7260   -0.0515    1.5118 C   0  0  0  0  0  0  0  0  0  0  0  0
    4.0938    0.0469    0.1766 C   0  0  0  0  0  0  0  0  0  0  0  0
    4.6629    1.2230   -0.6185 C   0  0  0  0  0  0  0  0  0  0  0  0
    4.3233   -1.2650   -0.6052 C   0  0  0  0  0  0  0  0  0  0  0  0
    2.6115    0.1585    0.2977 C   0  0  0  0  0  0  0  0  0  0  0  0
    1.8572    0.5602   -0.7728 C   0  0  0  0  0  0  0  0  0  0  0  0
    0.5044    0.6454   -0.6676 C   0  0  0  0  0  0  0  0  0  0  0  0
   -0.1790    0.3457    0.5067 C   0  0  0  0  0  0  0  0  0  0  0  0
   -1.6632    0.4760    0.5881 C   0  0  0  0  0  0  0  0  0  0  0  0
   -2.2136    1.3013    1.5410 C   0  0  0  0  0  0  0  0  0  0  0  0
   -3.8771    1.2302    1.2382 S   0  0  0  0  0  0  0  0  0  0  0  0
   -3.8813    0.1637   -0.0810 C   0  0  0  0  0  0  0  0  0  0  0  0
   -4.9900   -0.3547   -0.9080 N   0  0  0  0  0  0  0  0  0  0  0  0
   -2.5257   -0.1321   -0.2631 C   0  0  0  0  0  0  0  0  0  0  0  0
   -2.1609   -1.0868   -1.3494 C   0  0  0  0  0  0  0  0  0  0  0  0
   -0.8269   -1.4455   -1.5927 N   0  0  0  0  0  0  0  0  0  0  0  0
   -3.0401   -1.6048   -2.0651 O   0  0  0  0  0  0  0  0  0  0  0  0
    0.5864   -0.0565    1.5705 C   0  0  0  0  0  0  0  0  0  0  0  0
    1.9922   -0.1539    1.4927 C   0  0  0  0  0  0  0  0  0  0  0  0
  1  2  1  0
  2  3  1  0
  2  4  1  0
  2  5  1  0
  5  6  2  0
  6  7  1  0
  7  8  2  0
  8  9  1  0
  9 10  2  0
 10 11  1  0
 11 12  1  0
 12 13  1  0
 12 14  2  0
 14 15  1  0
 15 16  1  0
 15 17  2  0
  8 18  1  0
 18 19  2  0
 19  5  1  0
 14  9  1  0
M  END
>  <zinc_id>  (1) 
ZINC000002584887

>  <smiles>  (1) 
CC(C)(C)c1ccc(-c2csc(N)c2C(N)=O)cc1

$$$$
