
     RDKit          3D

 19 20  0  0  0  0  0  0  0  0999 V2000
    2.4388    1.4972   -1.7093 C   0  0  0  0  0  0  0  0  0  0  0  0
    1.0943    0.5394   -2.0004 C   0  0  2  0  0  0  0  0  0  0  0  0
    0.1475    1.4063   -0.9620 C   0  0  0  0  0  0  0  0  0  0  0  0
   -1.1833    0.7503   -1.0661 C   0  0  0  0  0  0  0  0  0  0  0  0
   -1.6875    0.1052   -2.2105 C   0  0  0  0  0  0  0  0  0  0  0  0
   -2.9235   -0.3617   -1.9570 N   0  0  0  0  0  0  0  0  0  0  0  0
   -3.2499   -0.0400   -0.6692 C   0  0  0  0  0  0  0  0  0  0  0  0
   -4.3761   -0.2531    0.0850 C   0  0  0  0  0  0  0  0  0  0  0  0
   -4.4777    0.1949    1.3906 C   0  0  0  0  0  0  0  0  0  0  0  0
   -3.3947    0.8840    1.9472 C   0  0  0  0  0  0  0  0  0  0  0  0
   -2.2604    1.0966    1.1802 C   0  0  0  0  0  0  0  0  0  0  0  0
   -2.1623    0.6512   -0.1221 C   0  0  0  0  0  0  0  0  0  0  0  0
    1.5303   -0.5473   -0.9528 N   0  0  0  0  0  0  0  0  0  0  0  0
    2.1664   -0.2146    0.2136 C   0  0  0  0  0  0  0  0  0  0  0  0
    2.3958    0.9960    0.4642 O   0  0  0  0  0  0  0  0  0  0  0  0
    2.5644   -1.1950    1.1239 O   0  0  0  0  0  0  0  0  0  0  0  0
    3.2354   -0.6639    2.2855 C   0  0  0  0  0  0  0  0  0  0  0  0
    4.4549    0.1225    1.9258 C   0  0  0  0  0  0  0  0  0  0  0  0
    5.6876   -0.8088    1.0335 Cl  0  0  0  0  0  0  0  0  0  0  0  0
  2  1  1  1
  2  3  1  0
  3  4  1  0
  4  5  2  0
  5  6  1  0
  6  7  1  0
  7  8  2  0
  8  9  1  0
  9 10  2  0
 10 11  1  0
 11 12  2  0
  2 13  1  0
 13 14  1  0
 14 15  2  0
 14 16  1  0
 16 17  1  0
 17 18  1  0
 18 19  1  0
 12  4  1  0
 12  7  1  0
M  END
>  <zinc_id>  (1) 
ZINC000002026520

>  <smiles>  (1) 
C[C@H](Cc1c[nH]c2ccccc12)NC(=O)OCCCl

$$$$
