
     RDKit          3D

 20 21  0  0  0  0  0  0  0  0999 V2000
   -5.2058   -0.7612    0.3731 C   0  0  0  0  0  0  0  0  0  0  0  0
   -4.3882   -0.1199   -0.7504 C   0  0  0  0  0  0  0  0  0  0  0  0
   -4.0678   -1.1244   -1.8351 C   0  0  0  0  0  0  0  0  0  0  0  0
   -5.2408    0.9810   -1.3333 C   0  0  0  0  0  0  0  0  0  0  0  0
   -3.1661    0.4457   -0.1312 C   0  0  0  0  0  0  0  0  0  0  0  0
   -2.9167    1.6282   -0.1996 O   0  0  0  0  0  0  0  0  0  0  0  0
   -2.2429   -0.4511    0.5782 C   0  0  0  0  0  0  0  0  0  0  0  0
   -1.0765    0.2992    1.1307 C   0  0  1  0  0  0  0  0  0  0  0  0
   -1.4364    1.3719    2.1075 C   0  0  0  0  0  0  0  0  0  0  0  0
   -0.1333   -0.5929    1.7353 N   0  0  0  0  0  0  0  0  0  0  0  0
    1.0832   -0.6872    1.2161 N   0  0  0  0  0  0  0  0  0  0  0  0
    1.4179   -0.0203    0.2185 C   0  0  0  0  0  0  0  0  0  0  0  0
    2.7139   -0.0336   -0.4421 C   0  0  0  0  0  0  0  0  0  0  0  0
    2.9642    0.7540   -1.5446 C   0  0  0  0  0  0  0  0  0  0  0  0
    4.2117    0.7376   -2.1760 C   0  0  0  0  0  0  0  0  0  0  0  0
    5.2342   -0.0648   -1.7201 C   0  0  0  0  0  0  0  0  0  0  0  0
    4.9829   -0.8516   -0.6182 C   0  0  0  0  0  0  0  0  0  0  0  0
    3.7406   -0.8322    0.0069 C   0  0  0  0  0  0  0  0  0  0  0  0
    3.5579   -1.6384    1.0969 O   0  0  0  0  0  0  0  0  0  0  0  0
   -0.0319    0.9600   -0.2336 S   0  0  0  0  0  0  0  0  0  0  0  0
  1  2  1  0
  2  3  1  0
  2  4  1  0
  2  5  1  0
  5  6  2  0
  5  7  1  0
  7  8  1  0
  8  9  1  1
  8 10  1  0
 10 11  1  0
 11 12  2  0
 12 13  1  0
 13 14  2  0
 14 15  1  0
 15 16  2  0
 16 17  1  0
 17 18  2  0
 18 19  1  0
 12 20  1  0
 20  8  1  0
 18 13  1  0
M  END
>  <zinc_id>  (1) 
ZINC000000432423

>  <smiles>  (1) 
CC(C)(C)C(=O)C[C@@]1(C)NN=C(c2ccccc2O)S1

$$$$
