
     RDKit          3D

 19 20  0  0  0  0  0  0  0  0999 V2000
   -1.6404   -1.9772   -1.4294 O   0  0  0  0  0  0  0  0  0  0  0  0
   -1.3762   -1.4183   -0.0444 S   0  0  0  0  0  0  0  0  0  0  0  0
   -1.7873   -2.4647    0.9599 O   0  0  0  0  0  0  0  0  0  0  0  0
    0.2877   -0.9926    0.1292 N   0  0  0  0  0  0  0  0  0  0  0  0
    1.1956   -1.8421    0.4528 C   0  0  0  0  0  0  0  0  0  0  0  0
    0.7061   -3.5327    0.7328 S   0  0  0  0  0  0  0  0  0  0  0  0
    2.5662   -1.5113    0.6000 N   0  0  0  0  0  0  0  0  0  0  0  0
    3.0287   -0.1929    0.4079 C   0  0  0  0  0  0  0  0  0  0  0  0
    2.4393    0.8410    1.3102 C   0  0  0  0  0  0  0  0  0  0  0  0
    3.0520    2.1831    1.2107 C   0  0  0  0  0  0  0  0  0  0  0  0
    3.5232    2.5668   -0.1601 C   0  0  0  0  0  0  0  0  0  0  0  0
    4.1722    1.4656   -0.9219 C   0  0  0  0  0  0  0  0  0  0  0  0
    3.2374    0.2498   -0.9874 C   0  0  0  0  0  0  0  0  0  0  0  0
   -2.4082   -0.0217    0.1910 C   0  0  0  0  0  0  0  0  0  0  0  0
   -2.9065    0.3398    1.4241 C   0  0  0  0  0  0  0  0  0  0  0  0
   -3.7180    1.4432    1.5907 C   0  0  0  0  0  0  0  0  0  0  0  0
   -4.0537    2.2212    0.5085 C   0  0  0  0  0  0  0  0  0  0  0  0
   -3.5636    1.8740   -0.7344 C   0  0  0  0  0  0  0  0  0  0  0  0
   -2.7546    0.7692   -0.8830 C   0  0  0  0  0  0  0  0  0  0  0  0
  1  2  2  0
  2  3  2  0
  2  4  1  0
  4  5  2  0
  5  6  1  0
  5  7  1  0
  7  8  1  0
  8  9  1  0
  9 10  1  0
 10 11  1  0
 11 12  1  0
 12 13  1  0
  2 14  1  0
 14 15  2  0
 15 16  1  0
 16 17  2  0
 17 18  1  0
 18 19  2  0
 13  8  1  0
 19 14  1  0
M  END
>  <zinc_id>  (1) 
ZINC000000134376

>  <smiles>  (1) 
O=S(=O)(/N=C(\S)NC1CCCCC1)c1ccccc1

$$$$
