
     RDKit          3D

 20 22  0  0  0  0  0  0  0  0999 V2000
   -6.0349    1.9898   -0.1991 C   0  0  0  0  0  0  0  0  0  0  0  0
   -4.8568    1.1358    0.1489 C   0  0  0  0  0  0  0  0  0  0  0  0
   -3.6087    1.3582   -0.4007 C   0  0  0  0  0  0  0  0  0  0  0  0
   -2.5167    0.5712   -0.0820 C   0  0  0  0  0  0  0  0  0  0  0  0
   -2.6358   -0.4658    0.7980 C   0  0  0  0  0  0  0  0  0  0  0  0
   -1.5724   -1.3083    1.1704 N   0  0  0  0  0  0  0  0  0  0  0  0
   -0.2415   -1.1285    0.6307 C   0  0  0  0  0  0  0  0  0  0  0  0
    0.1790   -0.2190   -0.2345 N   0  0  0  0  0  0  0  0  0  0  0  0
    1.4166   -0.2033   -0.6128 C   0  0  0  0  0  0  0  0  0  0  0  0
    2.2575   -1.1518   -0.0884 C   0  0  0  0  0  0  0  0  0  0  0  0
    1.1856   -2.0153    0.9318 S   0  0  0  0  0  0  0  0  0  0  0  0
    3.6911   -1.2233   -0.4544 C   0  0  0  0  0  0  0  0  0  0  0  0
    4.2842   -2.2819   -0.1232 O   0  0  0  0  0  0  0  0  0  0  0  0
    4.3954   -0.1235   -1.1664 C   0  0  0  0  0  0  0  0  0  0  0  0
    3.4573    1.0887   -1.0699 C   0  0  0  0  0  0  0  0  0  0  0  0
    3.9865    2.2369   -1.9230 C   0  0  0  0  0  0  0  0  0  0  0  0
    3.3844    1.5969    0.3549 C   0  0  0  0  0  0  0  0  0  0  0  0
    2.0748    0.7596   -1.5893 C   0  0  0  0  0  0  0  0  0  0  0  0
   -3.8759   -0.6980    1.3532 C   0  0  0  0  0  0  0  0  0  0  0  0
   -4.9697    0.0816    1.0410 C   0  0  0  0  0  0  0  0  0  0  0  0
  1  2  1  0
  2  3  2  0
  3  4  1  0
  4  5  2  0
  5  6  1  0
  6  7  1  0
  7  8  2  0
  8  9  1  0
  9 10  2  0
 10 11  1  0
 10 12  1  0
 12 13  2  0
 12 14  1  0
 14 15  1  0
 15 16  1  0
 15 17  1  0
 15 18  1  0
  5 19  1  0
 19 20  2  0
 20  2  1  0
 11  7  1  0
 18  9  1  0
M  END
>  <zinc_id>  (1) 
ZINC000000580091

>  <smiles>  (1) 
Cc1ccc(Nc2nc3c(s2)C(=O)CC(C)(C)C3)cc1

$$$$
