
     RDKit          3D

 20 21  0  0  0  0  0  0  0  0999 V2000
   -5.5536    0.7636   -0.7317 C   0  0  0  0  0  0  0  0  0  0  0  0
   -4.7706   -0.4517   -0.3578 C   0  0  0  0  0  0  0  0  0  0  0  0
   -5.3332   -1.5670   -0.4656 O   0  0  0  0  0  0  0  0  0  0  0  0
   -3.4015   -0.2849    0.1107 C   0  0  0  0  0  0  0  0  0  0  0  0
   -3.0163   -0.1099    1.4025 C   0  0  0  0  0  0  0  0  0  0  0  0
   -3.8833   -0.0491    2.6124 C   0  0  0  0  0  0  0  0  0  0  0  0
   -1.6859    0.0079    1.4568 N   0  0  0  0  0  0  0  0  0  0  0  0
   -1.1630   -0.0845    0.2217 C   0  0  0  0  0  0  0  0  0  0  0  0
    0.2438   -0.0102   -0.1755 C   0  0  0  0  0  0  0  0  0  0  0  0
    0.5641   -0.1166   -1.3832 O   0  0  0  0  0  0  0  0  0  0  0  0
    1.2947    0.1815    0.7619 N   0  0  0  0  0  0  0  0  0  0  0  0
    2.6525    0.2487    0.3371 C   0  0  0  0  0  0  0  0  0  0  0  0
    3.6440    0.4359    1.2779 C   0  0  0  0  0  0  0  0  0  0  0  0
    4.9880    0.5089    0.9164 C   0  0  0  0  0  0  0  0  0  0  0  0
    5.3784    0.3962   -0.4014 C   0  0  0  0  0  0  0  0  0  0  0  0
    7.0729    0.4865   -0.8727 Cl  0  0  0  0  0  0  0  0  0  0  0  0
    4.3776    0.2093   -1.3323 C   0  0  0  0  0  0  0  0  0  0  0  0
    3.0410    0.1357   -0.9815 C   0  0  0  0  0  0  0  0  0  0  0  0
   -2.2242   -0.2686   -0.6373 C   0  0  0  0  0  0  0  0  0  0  0  0
   -2.2254   -0.4317   -2.1134 C   0  0  0  0  0  0  0  0  0  0  0  0
  1  2  1  0
  2  3  2  0
  2  4  1  0
  4  5  2  0
  5  6  1  0
  5  7  1  0
  7  8  1  0
  8  9  1  0
  9 10  2  0
  9 11  1  0
 11 12  1  0
 12 13  2  0
 13 14  1  0
 14 15  2  0
 15 16  1  0
 15 17  1  0
 17 18  2  0
  8 19  2  0
 19 20  1  0
 19  4  1  0
 18 12  1  0
M  END
>  <zinc_id>  (1) 
ZINC000000265009

>  <smiles>  (1) 
CC(=O)c1c(C)[nH]c(C(=O)Nc2ccc(Cl)cc2)c1C

$$$$
