
     RDKit          3D

 21 24  0  0  0  0  0  0  0  0999 V2000
    4.3144    1.4009   -1.7830 C   0  0  0  0  0  0  0  0  0  0  0  0
    4.0207    0.7485   -0.4770 C   0  0  0  0  0  0  0  0  0  0  0  0
    4.7017    0.8959    0.6776 N   0  0  0  0  0  0  0  0  0  0  0  0
    4.0692    0.1145    1.5847 C   0  0  0  0  0  0  0  0  0  0  0  0
    3.0197   -0.4940    0.9758 N   0  0  0  0  0  0  0  0  0  0  0  0
    2.9625   -0.1216   -0.3025 C   0  0  0  0  0  0  0  0  0  0  0  0
    1.9624   -0.5872   -1.2846 C   0  0  0  0  0  0  0  0  0  0  0  0
    0.9562    0.7036   -1.4712 C   0  0  1  0  0  0  0  0  0  0  0  0
    0.0076   -0.0676   -2.5713 C   0  0  0  0  0  0  0  0  0  0  0  0
   -0.3735   -1.3823   -1.9759 C   0  0  0  0  0  0  0  0  0  0  0  0
   -1.4967   -1.0931   -1.0504 C   0  0  0  0  0  0  0  0  0  0  0  0
   -2.7483   -1.4746   -0.8331 N   0  0  0  0  0  0  0  0  0  0  0  0
   -3.2646   -0.7967    0.2139 C   0  0  0  0  0  0  0  0  0  0  0  0
   -4.4931   -0.7859    0.8720 C   0  0  0  0  0  0  0  0  0  0  0  0
   -4.7220    0.0475    1.9495 C   0  0  0  0  0  0  0  0  0  0  0  0
   -3.7403    0.8990    2.4122 C   0  0  0  0  0  0  0  0  0  0  0  0
   -2.4916    0.9032    1.7605 C   0  0  0  0  0  0  0  0  0  0  0  0
   -2.3063    0.0596    0.6935 C   0  0  0  0  0  0  0  0  0  0  0  0
   -1.1757   -0.1356   -0.1215 C   0  0  0  0  0  0  0  0  0  0  0  0
    0.1254    0.4273   -0.1548 C   0  0  0  0  0  0  0  0  0  0  0  0
    0.6724    0.7384    0.9375 O   0  0  0  0  0  0  0  0  0  0  0  0
  1  2  1  0
  2  3  1  0
  3  4  1  0
  4  5  2  0
  5  6  1  0
  6  7  1  0
  8  7  1  1
  8  9  1  0
  9 10  1  0
 10 11  1  0
 11 12  1  0
 12 13  1  0
 13 14  2  0
 14 15  1  0
 15 16  2  0
 16 17  1  0
 17 18  2  0
 18 19  1  0
 19 20  1  0
 20 21  2  0
  6  2  2  0
 20  8  1  0
 19 11  2  0
 18 13  1  0
M  END
>  <zinc_id>  (1) 
ZINC000000002614

>  <smiles>  (1) 
Cc1[nH]cnc1C[C@H]1CCc2[nH]c3ccccc3c2C1=O

$$$$
