
     RDKit          3D

 20 22  0  0  0  0  0  0  0  0999 V2000
   -5.1380    1.3037   -1.5647 C   0  0  0  0  0  0  0  0  0  0  0  0
   -5.2433    0.8559    0.0549 C   0  0  2  0  0  0  0  0  0  0  0  0
   -4.9612    2.3055    0.5243 O   0  0  0  0  0  0  0  0  0  0  0  0
   -3.7484    0.3241    0.1136 C   0  0  0  0  0  0  0  0  0  0  0  0
   -3.6655   -0.9138    0.7099 C   0  0  0  0  0  0  0  0  0  0  0  0
   -2.4230   -1.5327    0.8455 C   0  0  0  0  0  0  0  0  0  0  0  0
   -1.2731   -0.8837    0.3713 C   0  0  0  0  0  0  0  0  0  0  0  0
   -1.4356    0.3340   -0.2044 C   0  0  0  0  0  0  0  0  0  0  0  0
   -2.6712    0.9111   -0.3204 C   0  0  0  0  0  0  0  0  0  0  0  0
    0.0041    1.1877   -0.8183 S   0  0  0  0  0  0  0  0  0  0  0  0
    1.3611    0.0949   -0.4656 C   0  0  0  0  0  0  0  0  0  0  0  0
    2.6109    0.4937   -0.8306 C   0  0  0  0  0  0  0  0  0  0  0  0
    3.6956   -0.3129   -0.5816 C   0  0  0  0  0  0  0  0  0  0  0  0
    5.1387    0.2346   -1.0532 C   0  0  1  0  0  0  0  0  0  0  0  0
    4.9273    1.8084   -0.5354 C   0  0  0  0  0  0  0  0  0  0  0  0
    5.8354   -0.1734    0.2595 O   0  0  0  0  0  0  0  0  0  0  0  0
    3.5623   -1.4827    0.0107 C   0  0  0  0  0  0  0  0  0  0  0  0
    2.3084   -1.9060    0.3882 C   0  0  0  0  0  0  0  0  0  0  0  0
    1.1765   -1.1144    0.1529 C   0  0  0  0  0  0  0  0  0  0  0  0
   -0.0609   -1.5338    0.5263 O   0  0  0  0  0  0  0  0  0  0  0  0
  2  1  1  6
  2  3  1  0
  2  4  1  0
  4  5  2  0
  5  6  1  0
  6  7  2  0
  7  8  1  0
  8  9  2  0
  8 10  1  0
 10 11  1  0
 11 12  2  0
 12 13  1  0
 13 14  1  0
 14 15  1  1
 14 16  1  0
 13 17  2  0
 17 18  1  0
 18 19  2  0
 19 20  1  0
  9  4  1  0
 19 11  1  0
 20  7  1  0
M  END
>  <zinc_id>  (1) 
ZINC000003600247

>  <smiles>  (1) 
C[C@H](O)c1ccc2c(c1)Sc1cc([C@@H](C)O)ccc1O2

$$$$
