
     RDKit          3D

 18 19  0  0  0  0  0  0  0  0999 V2000
    4.9628    0.3790   -0.5530 C   0  0  0  0  0  0  0  0  0  0  0  0
    4.3403   -0.4854    0.5175 C   0  0  0  0  0  0  0  0  0  0  0  0
    4.9632   -0.2221    1.8866 C   0  0  0  0  0  0  0  0  0  0  0  0
    4.4400   -1.9317    0.1215 C   0  0  0  0  0  0  0  0  0  0  0  0
    2.9777   -0.1082    0.6171 O   0  0  0  0  0  0  0  0  0  0  0  0
    2.1568   -0.2280   -0.4832 C   0  0  0  0  0  0  0  0  0  0  0  0
    2.5278   -0.6573   -1.6027 O   0  0  0  0  0  0  0  0  0  0  0  0
    0.7985    0.1583   -0.3492 N   0  0  0  0  0  0  0  0  0  0  0  0
   -0.1300    0.0820   -1.3962 N   0  0  0  0  0  0  0  0  0  0  0  0
   -1.4520    0.5131   -1.0977 C   0  0  0  0  0  0  0  0  0  0  0  0
   -2.0899    1.4137   -1.8493 C   0  0  0  0  0  0  0  0  0  0  0  0
   -3.4541    1.6679   -1.2946 C   0  0  0  0  0  0  0  0  0  0  0  0
   -3.5384    0.7910   -0.1060 C   0  0  0  0  0  0  0  0  0  0  0  0
   -4.5453    0.5936    0.8013 C   0  0  0  0  0  0  0  0  0  0  0  0
   -4.3220   -0.3200    1.8381 C   0  0  0  0  0  0  0  0  0  0  0  0
   -3.1463   -0.9941    1.9486 C   0  0  0  0  0  0  0  0  0  0  0  0
   -2.1442   -0.7678    1.0071 C   0  0  0  0  0  0  0  0  0  0  0  0
   -2.3450    0.1161   -0.0060 C   0  0  0  0  0  0  0  0  0  0  0  0
  1  2  1  0
  2  3  1  0
  2  4  1  0
  2  5  1  0
  5  6  1  0
  6  7  2  0
  6  8  1  0
  8  9  1  0
  9 10  1  0
 10 11  2  0
 11 12  1  0
 12 13  1  0
 13 14  2  0
 14 15  1  0
 15 16  2  0
 16 17  1  0
 17 18  2  0
 18 10  1  0
 18 13  1  0
M  END
>  <zinc_id>  (1) 
ZINC000003574730

>  <smiles>  (1) 
CC(C)(C)OC(=O)NNC1=CCc2ccccc21

$$$$
