
     RDKit          3D

 20 22  0  0  0  0  0  0  0  0999 V2000
   -2.4446   -2.9444   -2.0729 O   0  0  0  0  0  0  0  0  0  0  0  0
   -2.0079   -2.0385   -1.3018 C   0  0  0  0  0  0  0  0  0  0  0  0
   -2.7558   -0.9633   -0.9950 N   0  0  0  0  0  0  0  0  0  0  0  0
   -2.3375    0.0231   -0.1687 C   0  0  0  0  0  0  0  0  0  0  0  0
   -1.0615   -0.0634    0.4053 C   0  0  0  0  0  0  0  0  0  0  0  0
   -0.2968   -1.1421    0.1044 C   0  0  0  0  0  0  0  0  0  0  0  0
    1.0489   -1.4534    0.6073 C   0  0  0  0  0  0  0  0  0  0  0  0
    2.1492   -0.6116    0.0207 C   0  0  0  0  0  0  0  0  0  0  0  0
    2.4351   -0.7280   -1.3206 C   0  0  0  0  0  0  0  0  0  0  0  0
    3.3188    0.0929   -1.9585 C   0  0  0  0  0  0  0  0  0  0  0  0
    3.9712    1.1024   -1.2410 C   0  0  0  0  0  0  0  0  0  0  0  0
    3.6895    1.2341    0.1210 C   0  0  0  0  0  0  0  0  0  0  0  0
    2.7886    0.3770    0.7268 C   0  0  0  0  0  0  0  0  0  0  0  0
    2.5887    0.5118    2.4743 Cl  0  0  0  0  0  0  0  0  0  0  0  0
   -0.7949   -2.1175   -0.7548 N   0  0  0  0  0  0  0  0  0  0  0  0
   -0.3892    0.8676    1.3153 C   0  0  0  0  0  0  0  0  0  0  0  0
   -0.9680    2.2337    1.4077 C   0  0  0  0  0  0  0  0  0  0  0  0
   -2.3895    2.2588    1.9398 C   0  0  0  0  0  0  0  0  0  0  0  0
   -3.2783    2.3118    0.6898 C   0  0  0  0  0  0  0  0  0  0  0  0
   -3.2659    1.0491    0.0007 N   0  0  0  0  0  0  0  0  0  0  0  0
  1  2  2  0
  2  3  1  0
  3  4  2  0
  4  5  1  0
  5  6  2  0
  6  7  1  0
  7  8  1  0
  8  9  2  0
  9 10  1  0
 10 11  2  0
 11 12  1  0
 12 13  2  0
 13 14  1  0
  6 15  1  0
  5 16  1  0
 16 17  1  0
 17 18  1  0
 18 19  1  0
 19 20  1  0
 15  2  1  0
 20  4  1  0
 13  8  1  0
M  END
>  <zinc_id>  (1) 
ZINC000003711330

>  <smiles>  (1) 
O=c1nc2c(c(Cc3ccccc3Cl)[nH]1)CCCCN2

$$$$
