
     RDKit          3D

 21 22  0  0  0  0  0  0  0  0999 V2000
   -2.9611    3.5296    0.2184 C   0  0  0  0  0  0  0  0  0  0  0  0
   -1.5191    3.4081   -0.2872 C   0  0  0  0  0  0  0  0  0  0  0  0
   -0.9512    2.2209    0.2413 O   0  0  0  0  0  0  0  0  0  0  0  0
   -1.4956    0.9547   -0.0211 C   0  0  0  0  0  0  0  0  0  0  0  0
   -2.5260    0.9831   -0.7643 O   0  0  0  0  0  0  0  0  0  0  0  0
   -0.9414   -0.2752    0.5018 C   0  0  0  0  0  0  0  0  0  0  0  0
   -1.4831   -1.4038    0.2273 C   0  0  0  0  0  0  0  0  0  0  0  0
   -2.6974   -1.4136   -0.6440 C   0  0  0  0  0  0  0  0  0  0  0  0
   -4.0963   -2.1141    0.1661 Cl  0  0  0  0  0  0  0  0  0  0  0  0
   -1.0221   -2.6615    0.6862 N   0  0  0  0  0  0  0  0  0  0  0  0
    0.1292   -2.6389    1.5109 C   0  0  0  0  0  0  0  0  0  0  0  0
    0.5804   -3.7910    1.9521 O   0  0  0  0  0  0  0  0  0  0  0  0
    0.7172   -1.4630    1.8139 N   0  0  0  0  0  0  0  0  0  0  0  0
    0.3234   -0.0996    1.3926 C   0  0  1  0  0  0  0  0  0  0  0  0
    1.3683    0.2325    0.2568 C   0  0  0  0  0  0  0  0  0  0  0  0
    1.7074   -0.6224   -0.7140 C   0  0  0  0  0  0  0  0  0  0  0  0
    2.6303   -0.3183   -1.7103 C   0  0  0  0  0  0  0  0  0  0  0  0
    3.2227    0.9147   -1.7005 C   0  0  0  0  0  0  0  0  0  0  0  0
    4.1684    1.2742   -2.6916 O   0  0  0  0  0  0  0  0  0  0  0  0
    2.8942    1.8147   -0.7150 C   0  0  0  0  0  0  0  0  0  0  0  0
    1.9518    1.4692    0.2805 C   0  0  0  0  0  0  0  0  0  0  0  0
  1  2  1  0
  2  3  1  0
  3  4  1  0
  4  5  2  0
  4  6  1  0
  6  7  2  0
  7  8  1  0
  8  9  1  0
  7 10  1  0
 10 11  1  0
 11 12  2  0
 11 13  1  0
 13 14  1  0
 14 15  1  6
 15 16  2  0
 16 17  1  0
 17 18  2  0
 18 19  1  0
 18 20  1  0
 20 21  2  0
 14  6  1  0
 21 15  1  0
M  END
>  <zinc_id>  (1) 
ZINC000000166050

>  <smiles>  (1) 
CCOC(=O)C1=C(CCl)NC(=O)N[C@H]1c1ccc(O)cc1

$$$$
