
     RDKit          3D

 21 24  0  0  0  0  0  0  0  0999 V2000
   -2.6478    2.6509    0.5862 C   0  0  0  0  0  0  0  0  0  0  0  0
   -2.0072    1.3925    0.2919 N   0  0  0  0  0  0  0  0  0  0  0  0
   -0.9529    0.9235    1.0204 C   0  0  0  0  0  0  0  0  0  0  0  0
   -0.5731   -0.2703    0.5080 C   0  0  0  0  0  0  0  0  0  0  0  0
   -1.4156   -0.5637   -0.5806 C   0  0  0  0  0  0  0  0  0  0  0  0
   -1.4502   -1.6328   -1.4256 C   0  0  0  0  0  0  0  0  0  0  0  0
   -2.4173   -1.6806   -2.4561 C   0  0  0  0  0  0  0  0  0  0  0  0
   -3.2866   -0.6131   -2.5419 C   0  0  0  0  0  0  0  0  0  0  0  0
   -3.2353    0.4576   -1.6785 C   0  0  0  0  0  0  0  0  0  0  0  0
   -2.2779    0.4948   -0.6659 C   0  0  0  0  0  0  0  0  0  0  0  0
    0.5019   -0.9924    1.0882 C   0  0  0  0  0  0  0  0  0  0  0  0
    0.7139   -2.1717    0.7306 O   0  0  0  0  0  0  0  0  0  0  0  0
    1.4762   -0.4056    2.1834 C   0  0  1  0  0  0  0  0  0  0  0  0
    1.9466    0.8996    1.3379 C   0  0  0  0  0  0  0  0  0  0  0  0
    2.5918    0.3126    0.1343 C   0  0  0  0  0  0  0  0  0  0  0  0
    2.8056   -0.9662   -0.2019 N   0  0  0  0  0  0  0  0  0  0  0  0
    3.4226   -1.0409   -1.3813 C   0  0  0  0  0  0  0  0  0  0  0  0
    3.6130    0.2450   -1.8208 C   0  0  0  0  0  0  0  0  0  0  0  0
    3.1053    1.0679   -0.8943 N   0  0  0  0  0  0  0  0  0  0  0  0
    0.3018    0.4311    3.0332 C   0  0  0  0  0  0  0  0  0  0  0  0
   -0.2147    1.4618    2.1626 C   0  0  0  0  0  0  0  0  0  0  0  0
  1  2  1  0
  2  3  1  0
  3  4  2  0
  4  5  1  0
  5  6  2  0
  6  7  1  0
  7  8  2  0
  8  9  1  0
  9 10  2  0
  4 11  1  0
 11 12  2  0
 11 13  1  0
 13 14  1  6
 14 15  1  0
 15 16  2  0
 16 17  1  0
 17 18  2  0
 18 19  1  0
 13 20  1  0
 20 21  1  0
 10  2  1  0
 19 15  1  0
 21  3  1  0
 10  5  1  0
M  END
>  <zinc_id>  (1) 
ZINC000000025365

>  <smiles>  (1) 
Cn1c2c(c3ccccc31)C(=O)[C@@H](Cc1ncc[nH]1)CC2

$$$$
