
     RDKit          3D

 21 23  0  0  0  0  0  0  0  0999 V2000
    2.3587   -2.1976    1.1195 C   0  0  0  0  0  0  0  0  0  0  0  0
    1.5073   -0.9609    1.7940 C   0  0  2  0  0  0  0  0  0  0  0  0
    0.2197   -1.2311    0.9754 N   0  0  0  0  0  0  0  0  0  0  0  0
   -0.4688   -0.1810    0.3801 C   0  0  0  0  0  0  0  0  0  0  0  0
    0.0033    0.9565    0.5388 O   0  0  0  0  0  0  0  0  0  0  0  0
   -1.6965   -0.3657   -0.4103 C   0  0  0  0  0  0  0  0  0  0  0  0
   -1.7066   -1.3539   -1.4045 C   0  0  0  0  0  0  0  0  0  0  0  0
   -2.8452   -1.5240   -2.1687 C   0  0  0  0  0  0  0  0  0  0  0  0
   -3.9484   -0.7383   -1.9604 C   0  0  0  0  0  0  0  0  0  0  0  0
   -3.9201    0.2243   -0.9840 C   0  0  0  0  0  0  0  0  0  0  0  0
   -2.7809    0.4078   -0.2016 C   0  0  0  0  0  0  0  0  0  0  0  0
   -2.8081    1.4011    0.7921 N   0  0  0  0  0  4  0  0  0  0  0  0
   -3.5252    2.4380    0.6561 O   0  0  0  0  0  0  0  0  0  0  0  0
   -2.0594    1.2937    1.9404 O   0  0  0  0  0  1  0  0  0  0  0  0
    2.1400    0.2965    0.8454 C   0  0  1  0  0  0  0  0  0  0  0  0
    3.6384    0.0612    1.2975 C   0  0  0  0  0  0  0  0  0  0  0  0
    4.3755    0.4689   -0.1145 C   0  0  2  0  0  0  0  0  0  0  0  0
    3.2737    1.5463   -0.6975 C   0  0  0  0  0  0  0  0  0  0  0  0
    2.3980    0.8336   -1.5387 C   0  0  0  0  0  0  0  0  0  0  0  0
    2.1316   -0.4968   -0.6350 C   0  0  1  0  0  0  0  0  0  0  0  0
    3.7130   -0.8785   -0.7353 C   0  0  0  0  0  0  0  0  0  0  0  0
  2  1  1  6
  2  3  1  0
  3  4  1  0
  4  5  2  0
  4  6  1  0
  6  7  2  0
  7  8  1  0
  8  9  2  0
  9 10  1  0
 10 11  2  0
 11 12  1  0
 12 13  2  0
 12 14  1  0
  2 15  1  0
 15 16  1  1
 17 16  1  1
 17 18  1  0
 18 19  1  0
 20 19  1  6
 20 21  1  0
 11  6  1  0
 20 15  1  0
 21 17  1  0
M  CHG  2  12   1  14  -1
M  END
>  <zinc_id>  (1) 
ZINC000001140399

>  <smiles>  (1) 
C[C@H](NC(=O)c1ccccc1[N+](=O)[O-])[C@H]1C[C@@H]2CC[C@H]1C2

$$$$
