
     RDKit          3D

 20 22  0  0  0  0  0  0  0  0999 V2000
   -2.4081    3.2190   -0.0713 C   0  0  0  0  0  0  0  0  0  0  0  0
   -2.6001    1.7525    0.0471 C   0  0  0  0  0  0  0  0  0  0  0  0
   -3.8067    1.1608    0.0583 N   0  0  0  0  0  0  0  0  0  0  0  0
   -3.9714   -0.1568    0.1650 N   0  0  0  0  0  0  0  0  0  0  0  0
   -2.9201   -0.9873    0.2697 C   0  0  0  0  0  0  0  0  0  0  0  0
   -3.0955   -2.4553    0.3888 C   0  0  0  0  0  0  0  0  0  0  0  0
   -1.6645   -0.4136    0.2617 C   0  0  0  0  0  0  0  0  0  0  0  0
   -0.4014   -0.9675    0.3498 C   0  0  0  0  0  0  0  0  0  0  0  0
   -0.1666   -2.4390    0.4825 C   0  0  0  0  0  0  0  0  0  0  0  0
    0.5199    0.0109    0.2965 N   0  0  0  0  0  0  0  0  0  0  0  0
    1.9268   -0.1841    0.3588 C   0  0  0  0  0  0  0  0  0  0  0  0
    2.6729    0.1682    1.4698 C   0  0  0  0  0  0  0  0  0  0  0  0
    4.0331   -0.0166    1.5388 C   0  0  0  0  0  0  0  0  0  0  0  0
    4.6695   -0.5770    0.4505 C   0  0  0  0  0  0  0  0  0  0  0  0
    3.9412   -0.9400   -0.6791 C   0  0  0  0  0  0  0  0  0  0  0  0
    2.5615   -0.7454   -0.7323 C   0  0  0  0  0  0  0  0  0  0  0  0
    1.7944   -1.1087   -1.8769 N   0  0  0  0  0  0  0  0  0  0  0  0
   -0.1144    1.1922    0.1755 C   0  0  0  0  0  0  0  0  0  0  0  0
    0.5113    2.5350    0.0816 C   0  0  0  0  0  0  0  0  0  0  0  0
   -1.4818    0.9527    0.1514 C   0  0  0  0  0  0  0  0  0  0  0  0
  1  2  1  0
  2  3  2  0
  3  4  1  0
  4  5  2  0
  5  6  1  0
  5  7  1  0
  7  8  2  0
  8  9  1  0
  8 10  1  0
 10 11  1  0
 11 12  2  0
 12 13  1  0
 13 14  2  0
 14 15  1  0
 15 16  2  0
 16 17  1  0
 10 18  1  0
 18 19  1  0
 18 20  2  0
 20  2  1  0
 20  7  1  0
 16 11  1  0
M  END
>  <zinc_id>  (1) 
ZINC000000285876

>  <smiles>  (1) 
Cc1nnc(C)c2c(C)n(-c3ccccc3N)c(C)c12

$$$$
