
     RDKit          3D

 19 20  0  0  0  0  0  0  0  0999 V2000
   -3.1217    3.1547   -0.4401 C   0  0  0  0  0  0  0  0  0  0  0  0
   -3.0806    1.7467   -0.2032 O   0  0  0  0  0  0  0  0  0  0  0  0
   -1.8781    1.0898   -0.1299 C   0  0  0  0  0  0  0  0  0  0  0  0
   -0.8378    1.7669   -0.2781 O   0  0  0  0  0  0  0  0  0  0  0  0
   -1.8180   -0.3898    0.1209 C   0  0  0  0  0  0  0  0  0  0  0  0
   -2.9698   -1.1106    0.2739 C   0  0  0  0  0  0  0  0  0  0  0  0
   -4.3351   -0.6103    0.2028 N   0  0  0  0  0  0  0  0  0  0  0  0
   -2.4242   -2.6939    0.5576 S   0  0  0  0  0  0  0  0  0  0  0  0
   -0.7509   -2.4162    0.4790 C   0  0  0  0  0  0  0  0  0  0  0  0
    0.3909   -3.3957    0.6414 C   0  0  0  0  0  0  0  0  0  0  0  0
   -0.6482   -1.0710    0.2278 C   0  0  0  0  0  0  0  0  0  0  0  0
    0.6986   -0.4384    0.0812 C   0  0  0  0  0  0  0  0  0  0  0  0
    1.4615   -0.5821   -1.0372 C   0  0  0  0  0  0  0  0  0  0  0  0
    2.7069    0.0394   -1.1258 C   0  0  0  0  0  0  0  0  0  0  0  0
    3.2134    0.8166   -0.0955 C   0  0  0  0  0  0  0  0  0  0  0  0
    4.4473    1.4417   -0.1621 O   0  0  0  0  0  0  0  0  0  0  0  0
    5.2976    1.3578   -1.2593 C   0  0  0  0  0  0  0  0  0  0  0  0
    2.4375    0.9520    1.0267 C   0  0  0  0  0  0  0  0  0  0  0  0
    1.2105    0.3422    1.1199 C   0  0  0  0  0  0  0  0  0  0  0  0
  1  2  1  0
  2  3  1  0
  3  4  2  0
  3  5  1  0
  5  6  2  0
  6  7  1  0
  6  8  1  0
  8  9  1  0
  9 10  1  0
  9 11  2  0
 11 12  1  0
 12 13  2  0
 13 14  1  0
 14 15  2  0
 15 16  1  0
 16 17  1  0
 15 18  1  0
 18 19  2  0
 11  5  1  0
 19 12  1  0
M  END
>  <zinc_id>  (1) 
ZINC000000442789

>  <smiles>  (1) 
COC(=O)c1c(N)sc(C)c1-c1ccc(OC)cc1

$$$$
