
     RDKit          3D

 22 24  0  0  0  0  0  0  0  0999 V2000
    3.5066    3.6710    1.2176 C   0  0  0  0  0  0  0  0  0  0  0  0
    3.4658    2.4792    0.4761 O   0  0  0  0  0  0  0  0  0  0  0  0
    2.4535    1.5603    0.4748 C   0  0  0  0  0  0  0  0  0  0  0  0
    1.2915    1.6311    1.1992 C   0  0  0  0  0  0  0  0  0  0  0  0
    0.3089    0.6410    1.1351 C   0  0  0  0  0  0  0  0  0  0  0  0
    0.4871   -0.4513    0.3269 C   0  0  0  0  0  0  0  0  0  0  0  0
   -0.4956   -1.5205    0.2083 C   0  0  0  0  0  0  0  0  0  0  0  0
   -1.7950   -1.3942   -0.2635 C   0  0  0  0  0  0  0  0  0  0  0  0
   -2.3637   -0.1351   -0.7110 C   0  0  0  0  0  0  0  0  0  0  0  0
   -1.8881    0.5856   -1.7678 C   0  0  0  0  0  0  0  0  0  0  0  0
   -2.4831    1.7872   -2.1382 C   0  0  0  0  0  0  0  0  0  0  0  0
   -3.5560    2.2554   -1.4395 C   0  0  0  0  0  0  0  0  0  0  0  0
   -4.0672    1.5437   -0.3543 C   0  0  0  0  0  0  0  0  0  0  0  0
   -3.4486    0.3496   -0.0135 C   0  0  0  0  0  0  0  0  0  0  0  0
   -2.3629   -2.6115   -0.2133 N   0  0  0  0  0  0  0  0  0  0  0  0
   -1.5029   -3.4658    0.2542 O   0  0  0  0  0  0  0  0  0  0  0  0
   -0.3521   -2.8535    0.5260 C   0  0  0  0  0  0  0  0  0  0  0  0
    0.8170   -3.4600    1.0492 N   0  0  0  0  0  0  0  0  0  0  0  0
    1.6638   -0.5289   -0.4103 C   0  0  0  0  0  0  0  0  0  0  0  0
    2.6214    0.4414   -0.3440 C   0  0  0  0  0  0  0  0  0  0  0  0
    3.7772    0.3069   -1.1063 O   0  0  0  0  0  0  0  0  0  0  0  0
    3.9224   -0.8318   -1.9241 C   0  0  0  0  0  0  0  0  0  0  0  0
  1  2  1  0
  2  3  1  0
  3  4  2  0
  4  5  1  0
  5  6  2  0
  6  7  1  0
  7  8  1  0
  8  9  1  0
  9 10  2  0
 10 11  1  0
 11 12  2  0
 12 13  1  0
 13 14  2  0
  8 15  2  0
 15 16  1  0
 16 17  1  0
 17 18  1  0
  6 19  1  0
 19 20  2  0
 20 21  1  0
 21 22  1  0
 20  3  1  0
 17  7  2  0
 14  9  1  0
M  END
>  <zinc_id>  (1) 
ZINC000000389470

>  <smiles>  (1) 
COc1ccc(-c2c(-c3ccccc3)noc2N)cc1OC

$$$$
