
     RDKit          3D

 19 20  0  0  0  0  0  0  0  0999 V2000
   -1.9951   -2.2669   -0.4724 N   0  0  0  0  0  0  0  0  0  0  0  0
   -1.6158   -1.2617   -0.0004 C   0  0  0  0  0  0  0  0  0  0  0  0
   -1.1445   -0.0367    0.5629 C   0  0  0  0  0  0  0  0  0  0  0  0
   -2.0055    0.9040    0.9008 C   0  0  0  0  0  0  0  0  0  0  0  0
   -3.4325    0.6120    0.6667 C   0  0  0  0  0  0  0  0  0  0  0  0
   -4.3631    1.5065    0.2407 C   0  0  0  0  0  0  0  0  0  0  0  0
   -5.6142    1.0784    0.0762 C   0  0  0  0  0  0  0  0  0  0  0  0
   -5.8734   -0.2331    0.3486 C   0  0  0  0  0  0  0  0  0  0  0  0
   -4.3457   -0.8184    0.8265 S   0  0  0  0  0  0  0  0  0  0  0  0
    0.2734    0.1804    0.7661 C   0  0  0  0  0  0  0  0  0  0  0  0
    0.7134    1.2636    1.2653 O   0  0  0  0  0  0  0  0  0  0  0  0
    1.1896   -0.8456    0.3944 N   0  0  0  0  0  0  0  0  0  0  0  0
    2.6145   -0.6566    0.5893 C   0  0  0  0  0  0  0  0  0  0  0  0
    3.2772   -0.9457   -0.7468 C   0  0  0  0  0  0  0  0  0  0  0  0
    4.7397   -1.3695   -0.5547 C   0  0  0  0  0  0  0  0  0  0  0  0
    5.5611   -0.1151   -0.7244 C   0  0  0  0  0  0  0  0  0  0  0  0
    5.2682    0.7673    0.4869 C   0  0  0  0  0  0  0  0  0  0  0  0
    3.9206    1.4666    0.2485 C   0  0  0  0  0  0  0  0  0  0  0  0
    2.8322    0.7704    1.0294 C   0  0  0  0  0  0  0  0  0  0  0  0
  1  2  3  0
  2  3  1  0
  3  4  2  0
  4  5  1  0
  5  6  2  0
  6  7  1  0
  7  8  2  0
  8  9  1  0
  3 10  1  0
 10 11  2  0
 10 12  1  0
 12 13  1  0
 13 14  1  0
 14 15  1  0
 15 16  1  0
 16 17  1  0
 17 18  1  0
 18 19  1  0
  9  5  1  0
 19 13  1  0
M  END
>  <zinc_id>  (1) 
ZINC000000331504

>  <smiles>  (1) 
N#C/C(=C\c1cccs1)C(=O)NC1CCCCCC1

$$$$
