
     RDKit          3D

 22 24  0  0  0  0  0  0  0  0999 V2000
   -1.8727    1.6347   -0.9459 C   0  0  0  0  0  0  0  0  0  0  0  0
   -2.6726    1.6650    0.2521 C   0  0  0  0  0  0  0  0  0  0  0  0
   -2.8477    2.9819    0.9335 C   0  0  0  0  0  0  0  0  0  0  0  0
   -4.1612    1.1150   -0.0906 C   0  0  2  0  0  0  0  0  0  0  0  0
   -4.5903    0.7564    1.4408 C   0  0  0  0  0  0  0  0  0  0  0  0
   -4.2403   -0.6614    1.5876 C   0  0  0  0  0  0  0  0  0  0  0  0
   -2.9333   -0.7023    0.7483 C   0  0  1  0  0  0  0  0  0  0  0  0
   -2.2161   -1.9328    0.9990 C   0  0  0  0  0  0  0  0  0  0  0  0
   -3.5651   -0.3382   -0.4747 C   0  0  0  0  0  0  0  0  0  0  0  0
   -2.2240    0.5886    1.3655 C   0  0  1  0  0  0  0  0  0  0  0  0
   -0.7794    0.4199    1.0304 N   0  0  0  0  0  0  0  0  0  0  0  0
   -0.2065   -0.2235   -0.0360 C   0  0  0  0  0  0  0  0  0  0  0  0
   -0.9276   -0.7705   -0.8906 O   0  0  0  0  0  0  0  0  0  0  0  0
    1.2388   -0.3529   -0.3078 C   0  0  0  0  0  0  0  0  0  0  0  0
    1.7445   -1.0061   -1.3834 C   0  0  0  0  0  0  0  0  0  0  0  0
    3.0947   -1.1194   -1.6252 C   0  0  0  0  0  0  0  0  0  0  0  0
    3.9969   -0.5419   -0.7329 C   0  0  0  0  0  0  0  0  0  0  0  0
    5.3856   -0.6107   -0.9040 N   0  0  0  0  0  4  0  0  0  0  0  0
    5.8594   -1.2062   -1.8842 O   0  0  0  0  0  0  0  0  0  0  0  0
    6.2420   -0.0315   -0.0075 O   0  0  0  0  0  1  0  0  0  0  0  0
    3.5180    0.1258    0.3650 C   0  0  0  0  0  0  0  0  0  0  0  0
    2.1567    0.2103    0.5607 C   0  0  0  0  0  0  0  0  0  0  0  0
  1  2  1  0
  2  3  1  0
  2  4  1  0
  4  5  1  1
  5  6  1  0
  6  7  1  0
  7  8  1  6
  7  9  1  0
  7 10  1  0
 10 11  1  6
 11 12  1  0
 12 13  2  0
 12 14  1  0
 14 15  2  0
 15 16  1  0
 16 17  2  0
 17 18  1  0
 18 19  2  0
 18 20  1  0
 17 21  1  0
 21 22  2  0
 10  2  1  0
 22 14  1  0
  9  4  1  0
M  CHG  2  18   1  20  -1
M  END
>  <zinc_id>  (1) 
ZINC000000135905

>  <smiles>  (1) 
CC1(C)[C@@H]2CC[C@@](C)(C2)[C@H]1NC(=O)c1ccc([N+](=O)[O-])cc1

$$$$
