
     RDKit          3D

 20 21  0  0  0  0  0  0  0  0999 V2000
    5.2843    0.7227    1.5257 O   0  0  0  0  0  0  0  0  0  0  0  0
    4.6460    0.3145    0.5493 N   0  0  0  0  0  4  0  0  0  0  0  0
    5.2878   -0.0947   -0.5738 O   0  0  0  0  0  1  0  0  0  0  0  0
    3.2358    0.2776    0.6139 C   0  0  0  0  0  0  0  0  0  0  0  0
    2.4698    0.4711   -0.5245 C   0  0  0  0  0  0  0  0  0  0  0  0
    1.0915    0.4391   -0.4814 C   0  0  0  0  0  0  0  0  0  0  0  0
    0.3944    0.6465   -1.6895 N   0  0  0  0  0  0  0  0  0  0  0  0
   -1.0119    0.6454   -1.8206 C   0  0  0  0  0  0  0  0  0  0  0  0
   -1.6585    0.9009   -3.2871 S   0  0  0  0  0  0  0  0  0  0  0  0
   -1.8341    0.4305   -0.7199 N   0  0  0  0  0  0  0  0  0  0  0  0
   -3.2558    0.4014   -0.7006 C   0  0  0  0  0  0  0  0  0  0  0  0
   -3.8895   -0.6409   -1.5604 C   0  0  0  0  0  0  0  0  0  0  0  0
   -5.2356   -1.0545   -1.0054 C   0  0  0  0  0  0  0  0  0  0  0  0
   -5.1235   -1.5875    0.4029 C   0  0  0  0  0  0  0  0  0  0  0  0
   -4.2378   -0.7420    1.2735 C   0  0  0  0  0  0  0  0  0  0  0  0
   -3.8655    0.5734    0.6476 C   0  0  0  0  0  0  0  0  0  0  0  0
    0.4953    0.2084    0.7296 C   0  0  0  0  0  0  0  0  0  0  0  0
    1.2277    0.0117    1.8826 C   0  0  0  0  0  0  0  0  0  0  0  0
    2.6071    0.0469    1.8223 C   0  0  0  0  0  0  0  0  0  0  0  0
    3.3726   -0.1382    2.9156 F   0  0  0  0  0  0  0  0  0  0  0  0
  1  2  2  0
  2  3  1  0
  2  4  1  0
  4  5  2  0
  5  6  1  0
  6  7  1  0
  7  8  1  0
  8  9  2  0
  8 10  1  0
 10 11  1  0
 11 12  1  0
 12 13  1  0
 13 14  1  0
 14 15  1  0
 15 16  1  0
  6 17  2  0
 17 18  1  0
 18 19  2  0
 19 20  1  0
 19  4  1  0
 16 11  1  0
M  CHG  2   2   1   3  -1
M  END
>  <zinc_id>  (1) 
ZINC000003231603

>  <smiles>  (1) 
O=[N+]([O-])c1cc(NC(=S)NC2CCCCC2)ccc1F

$$$$
