
     RDKit          3D

 20 22  0  0  0  0  0  0  0  0999 V2000
   -0.7956    2.9674   -0.4789 C   0  0  0  0  0  0  0  0  0  0  0  0
   -1.9897    2.1192   -0.4654 C   0  0  0  0  0  0  0  0  0  0  0  0
   -3.0869    2.7465   -0.6681 O   0  0  0  0  0  0  0  0  0  0  0  0
   -2.0429    0.7069   -0.2546 C   0  0  0  0  0  0  0  0  0  0  0  0
   -1.0694   -0.2416   -0.0148 C   0  0  0  0  0  0  0  0  0  0  0  0
    0.3660   -0.0205    0.0911 C   0  0  0  0  0  0  0  0  0  0  0  0
    1.2629   -0.9608    0.3223 N   0  0  0  0  0  0  0  0  0  0  0  0
    2.5289   -0.6551    0.3987 C   0  0  0  0  0  0  0  0  0  0  0  0
    3.6026   -1.5424    0.6390 C   0  0  0  0  0  0  0  0  0  0  0  0
    4.8839   -1.0675    0.6910 C   0  0  0  0  0  0  0  0  0  0  0  0
    5.2436    0.2315    0.5273 C   0  0  0  0  0  0  0  0  0  0  0  0
    4.1975    1.1292    0.2881 C   0  0  0  0  0  0  0  0  0  0  0  0
    2.8820    0.6525    0.2330 C   0  0  0  0  0  0  0  0  0  0  0  0
    1.3326    1.3515   -0.0247 S   0  0  0  0  0  0  0  0  0  0  0  0
   -1.6687   -1.5128    0.1213 C   0  0  0  0  0  0  0  0  0  0  0  0
   -0.9565   -2.7135    0.3743 N   0  0  0  0  0  0  0  0  0  0  0  0
   -2.9787   -1.3187   -0.0359 N   0  0  0  0  0  0  0  0  0  0  0  0
   -3.9893   -2.3563    0.0244 C   0  0  0  0  0  0  0  0  0  0  0  0
   -3.2376   -0.0282   -0.2585 C   0  0  0  0  0  0  0  0  0  0  0  0
   -4.4845    0.5125   -0.4626 O   0  0  0  0  0  0  0  0  0  0  0  0
  1  2  1  0
  2  3  2  0
  2  4  1  0
  4  5  1  0
  5  6  1  0
  6  7  2  0
  7  8  1  0
  8  9  2  0
  9 10  1  0
 10 11  2  0
 11 12  1  0
 12 13  2  0
 13 14  1  0
  5 15  2  0
 15 16  1  0
 15 17  1  0
 17 18  1  0
 17 19  1  0
 19 20  1  0
 19  4  2  0
 14  6  1  0
 13  8  1  0
M  END
>  <zinc_id>  (1) 
ZINC000003236879

>  <smiles>  (1) 
CC(=O)c1c(-c2nc3ccccc3s2)c(N)n(C)c1O

$$$$
