
     RDKit          3D

 20 22  0  0  0  0  0  0  0  0999 V2000
   -4.5642   -2.1562    0.5763 C   0  0  0  0  0  0  0  0  0  0  0  0
   -3.8924   -0.9077    0.1377 C   0  0  0  0  0  0  0  0  0  0  0  0
   -2.5480   -0.6675    0.4153 C   0  0  0  0  0  0  0  0  0  0  0  0
   -1.9904    0.5132   -0.0226 C   0  0  0  0  0  0  0  0  0  0  0  0
   -0.6059    0.7709    0.2579 N   0  0  0  0  0  0  0  0  0  0  0  0
    0.0367    1.9284   -0.0163 C   0  0  0  0  0  0  0  0  0  0  0  0
    1.2990    1.7938    0.3833 N   0  0  0  0  0  0  0  0  0  0  0  0
    1.5131    0.5741    0.9173 C   0  0  0  0  0  0  0  0  0  0  0  0
    2.7791    0.0573    1.4669 C   0  0  0  0  0  0  0  0  0  0  0  0
    3.5381   -0.5949    0.4169 N   0  0  0  0  0  0  0  0  0  0  0  0
    3.4332   -1.9017    0.1114 C   0  0  0  0  0  0  0  0  0  0  0  0
    4.3105   -2.1401   -0.9360 C   0  0  0  0  0  0  0  0  0  0  0  0
    4.8957   -0.9749   -1.2074 N   0  0  0  0  0  0  0  0  0  0  0  0
    4.4392   -0.0058   -0.3898 C   0  0  0  0  0  0  0  0  0  0  0  0
    4.8464    1.3689   -0.3967 N   0  0  0  0  0  0  0  0  0  0  0  0
    0.2751   -0.0609    0.8242 C   0  0  0  0  0  0  0  0  0  0  0  0
   -2.7363    1.4323   -0.7149 C   0  0  0  0  0  0  0  0  0  0  0  0
   -4.0854    1.2178   -1.0069 C   0  0  0  0  0  0  0  0  0  0  0  0
   -4.6212    0.0252   -0.5565 C   0  0  0  0  0  0  0  0  0  0  0  0
   -6.3221   -0.2722   -0.9109 Cl  0  0  0  0  0  0  0  0  0  0  0  0
  1  2  1  0
  2  3  2  0
  3  4  1  0
  4  5  1  0
  5  6  1  0
  6  7  2  0
  7  8  1  0
  8  9  1  0
  9 10  1  0
 10 11  1  0
 11 12  2  0
 12 13  1  0
 13 14  2  0
 14 15  1  0
  8 16  2  0
  4 17  2  0
 17 18  1  0
 18 19  2  0
 19 20  1  0
 19  2  1  0
 16  5  1  0
 14 10  1  0
M  END
>  <zinc_id>  (1) 
ZINC000000009328

>  <smiles>  (1) 
Cc1cc(-n2cnc(Cn3ccnc3N)c2)ccc1Cl

$$$$
