
     RDKit          3D

 20 22  0  0  0  0  0  0  0  0999 V2000
    1.1037   -1.9625    0.1159 O   0  0  0  0  0  0  0  0  0  0  0  0
    0.5718   -0.8782    0.3681 C   0  0  0  0  0  0  0  0  0  0  0  0
    1.3951    0.2191    0.6471 N   0  0  0  0  0  0  0  0  0  0  0  0
    2.7758    0.3464    0.7201 C   0  0  0  0  0  0  0  0  0  0  0  0
    3.4305    1.3521   -0.1230 C   0  0  0  0  0  0  0  0  0  0  0  0
    4.3693    0.6834   -1.0851 C   0  0  0  0  0  0  0  0  0  0  0  0
    5.2507   -0.3688   -0.4303 C   0  0  0  0  0  0  0  0  0  0  0  0
    5.0599   -0.4327    1.0676 C   0  0  0  0  0  0  0  0  0  0  0  0
    3.5726   -0.7108    1.3461 C   0  0  0  0  0  0  0  0  0  0  0  0
   -0.8907   -0.7346    0.3923 C   0  0  0  0  0  0  0  0  0  0  0  0
   -1.5814   -1.4742    1.3185 C   0  0  0  0  0  0  0  0  0  0  0  0
   -2.9299   -1.3476    1.4593 C   0  0  0  0  0  0  0  0  0  0  0  0
   -3.6246   -0.4558    0.6481 C   0  0  0  0  0  0  0  0  0  0  0  0
   -4.9900   -0.3183    0.7920 O   0  0  0  0  0  0  0  0  0  0  0  0
   -2.9182    0.3006   -0.2995 C   0  0  0  0  0  0  0  0  0  0  0  0
   -3.6298    1.1771   -1.0668 C   0  0  0  0  0  0  0  0  0  0  0  0
   -2.9557    1.9614   -2.0118 C   0  0  0  0  0  0  0  0  0  0  0  0
   -1.5861    1.8009   -2.1040 C   0  0  0  0  0  0  0  0  0  0  0  0
   -0.8585    0.9257   -1.3394 C   0  0  0  0  0  0  0  0  0  0  0  0
   -1.5644    0.1574   -0.4154 C   0  0  0  0  0  0  0  0  0  0  0  0
  1  2  2  0
  2  3  1  0
  3  4  1  0
  4  5  1  0
  5  6  1  0
  6  7  1  0
  7  8  1  0
  8  9  1  0
  2 10  1  0
 10 11  2  0
 11 12  1  0
 12 13  2  0
 13 14  1  0
 13 15  1  0
 15 16  2  0
 16 17  1  0
 17 18  2  0
 18 19  1  0
 19 20  2  0
  9  4  1  0
 20 10  1  0
 20 15  1  0
M  END
>  <zinc_id>  (1) 
ZINC000000079216

>  <smiles>  (1) 
O=C(NC1CCCCC1)c1ccc(O)c2ccccc12

$$$$
