
     RDKit          3D

 19 20  0  0  0  0  0  0  0  0999 V2000
   -3.5454   -1.9990   -1.3353 C   0  0  0  0  0  0  0  0  0  0  0  0
   -3.7094   -0.7276   -0.5456 C   0  0  0  0  0  0  0  0  0  0  0  0
   -4.6736    0.2510   -0.8419 C   0  0  0  0  0  0  0  0  0  0  0  0
   -4.5265    1.2280    0.1173 C   0  0  0  0  0  0  0  0  0  0  0  0
   -5.2979    2.4333    0.2173 N   0  0  0  0  0  0  0  0  0  0  0  0
   -3.5404    0.8290    0.9105 N   0  0  0  0  0  0  0  0  0  0  0  0
   -3.0234   -0.3493    0.5377 N   0  0  0  0  0  0  0  0  0  0  0  0
   -1.9214   -1.0162    1.2070 C   0  0  0  0  0  0  0  0  0  0  0  0
   -0.7223   -0.7190    0.8439 O   0  0  0  0  0  0  0  0  0  0  0  0
    0.5223   -0.5077    0.5834 C   0  0  0  0  0  0  0  0  0  0  0  0
    0.9065    0.3357   -0.4355 C   0  0  0  0  0  0  0  0  0  0  0  0
    2.2156    0.5828   -0.7154 C   0  0  0  0  0  0  0  0  0  0  0  0
    3.1955   -0.0191    0.0270 C   0  0  0  0  0  0  0  0  0  0  0  0
    4.5918    0.3136   -0.2919 C   0  0  0  0  0  0  0  0  0  0  0  0
    5.5334   -0.2138    0.7876 C   0  0  0  0  0  0  0  0  0  0  0  0
    4.9362   -0.2644   -1.6385 C   0  0  0  0  0  0  0  0  0  0  0  0
    4.6790    1.8242   -0.3909 C   0  0  0  0  0  0  0  0  0  0  0  0
    2.8427   -0.8584    1.0366 C   0  0  0  0  0  0  0  0  0  0  0  0
    1.5372   -1.1230    1.3394 C   0  0  0  0  0  0  0  0  0  0  0  0
  1  2  1  0
  2  3  2  0
  3  4  1  0
  4  5  1  0
  4  6  2  0
  6  7  1  0
  7  8  1  0
  8  9  1  0
  9 10  1  0
 10 11  2  0
 11 12  1  0
 12 13  2  0
 13 14  1  0
 14 15  1  0
 14 16  1  0
 14 17  1  0
 13 18  1  0
 18 19  2  0
  7  2  1  0
 19 10  1  0
M  END
>  <zinc_id>  (1) 
ZINC000002534956

>  <smiles>  (1) 
Cc1cc(N)nn1COc1ccc(C(C)(C)C)cc1

$$$$
