
     RDKit          3D

 21 23  0  0  0  0  0  0  0  0999 V2000
   -3.1073   -1.3210   -1.8832 C   0  0  0  0  0  0  0  0  0  0  0  0
   -1.7229   -0.6468   -1.4441 C   0  0  1  0  0  0  0  0  0  0  0  0
   -2.2143    0.9265   -1.6377 C   0  0  0  0  0  0  0  0  0  0  0  0
   -3.6390    1.0613   -1.3955 C   0  0  0  0  0  0  0  0  0  0  0  0
   -4.2864    0.0815   -0.4644 C   0  0  0  0  0  0  0  0  0  0  0  0
   -3.3718   -0.4998    0.5261 C   0  0  0  0  0  0  0  0  0  0  0  0
   -1.9468   -0.6266    0.1670 C   0  0  1  0  0  0  0  0  0  0  0  0
   -1.3568   -1.7433    0.8260 N   0  0  0  0  0  0  0  0  0  0  0  0
   -0.1023   -1.4278    1.3570 C   0  0  0  0  0  0  0  0  0  0  0  0
    0.7914   -2.1692    1.8955 O   0  0  0  0  0  0  0  0  0  0  0  0
    0.0885   -0.0491    1.1804 N   0  0  0  0  0  0  0  0  0  0  0  0
    1.1859    0.8623    1.6012 C   0  0  0  0  0  0  0  0  0  0  0  0
    2.2313    0.5348    0.5129 C   0  0  0  0  0  0  0  0  0  0  0  0
    2.8413   -0.7233    0.9142 C   0  0  0  0  0  0  0  0  0  0  0  0
    4.0046   -1.0974    0.2205 C   0  0  0  0  0  0  0  0  0  0  0  0
    4.5278   -0.3091   -0.7857 C   0  0  0  0  0  0  0  0  0  0  0  0
    3.8664    0.9021   -1.1244 C   0  0  0  0  0  0  0  0  0  0  0  0
    2.7093    1.2647   -0.4300 C   0  0  0  0  0  0  0  0  0  0  0  0
    1.8154    2.7127   -0.9171 Cl  0  0  0  0  0  0  0  0  0  0  0  0
   -1.0629    0.5219    0.5384 C   0  0  0  0  0  0  0  0  0  0  0  0
   -1.2514    1.7457    0.3430 O   0  0  0  0  0  0  0  0  0  0  0  0
  2  1  1  6
  2  3  1  0
  3  4  1  0
  4  5  1  0
  5  6  1  0
  7  6  1  6
  7  8  1  0
  8  9  1  0
  9 10  2  0
  9 11  1  0
 11 12  1  0
 12 13  1  0
 13 14  2  0
 14 15  1  0
 15 16  2  0
 16 17  1  0
 17 18  2  0
 18 19  1  0
 11 20  1  0
 20 21  2  0
  7  2  1  0
 18 13  1  0
 20  7  1  0
M  END
>  <zinc_id>  (1) 
ZINC000003396901

>  <smiles>  (1) 
C[C@H]1CCCC[C@@]12NC(=O)N(Cc1ccccc1Cl)C2=O

$$$$
