
     RDKit          3D

 18 19  0  0  0  0  0  0  0  0999 V2000
   -2.1266   -2.0204   -2.8302 C   0  0  0  0  0  0  0  0  0  0  0  0
   -2.9915   -1.2615   -1.9656 N   0  0  0  0  0  0  0  0  0  0  0  0
   -4.3369   -1.4251   -1.9311 C   0  0  0  0  0  0  0  0  0  0  0  0
   -4.8144   -0.5457   -1.0049 C   0  0  0  0  0  0  0  0  0  0  0  0
   -3.7474    0.1254   -0.5045 N   0  0  0  0  0  4  0  0  0  0  0  0
   -3.8969    1.1487    0.5147 C   0  0  0  0  0  0  0  0  0  0  0  0
   -2.6236   -0.3123   -1.0933 C   0  0  0  0  0  0  0  0  0  0  0  0
   -1.2593    0.1862   -0.8040 C   0  0  0  0  0  0  0  0  0  0  0  0
   -0.6304   -0.5331    0.2247 O   0  0  0  0  0  0  0  0  0  0  0  0
    0.6472   -0.1883    0.6107 C   0  0  0  0  0  0  0  0  0  0  0  0
    1.2799    0.8522   -0.0188 C   0  0  0  0  0  0  0  0  0  0  0  0
    2.5370    1.2378    0.3173 C   0  0  0  0  0  0  0  0  0  0  0  0
    3.2018    0.5660    1.3212 C   0  0  0  0  0  0  0  0  0  0  0  0
    4.5445    1.0032    1.6562 C   0  0  0  0  0  0  0  0  0  0  0  0
    5.1482    2.0822    0.9743 N   0  0  0  0  0  0  0  0  0  0  0  0
    5.1852    0.4228    2.5606 O   0  0  0  0  0  0  0  0  0  0  0  0
    2.5760   -0.4802    1.9599 C   0  0  0  0  0  0  0  0  0  0  0  0
    1.3073   -0.8580    1.6101 C   0  0  0  0  0  0  0  0  0  0  0  0
  1  2  1  0
  2  3  1  0
  3  4  2  0
  4  5  1  0
  5  6  1  0
  5  7  2  0
  7  8  1  0
  8  9  1  0
  9 10  1  0
 10 11  2  0
 11 12  1  0
 12 13  2  0
 13 14  1  0
 14 15  1  0
 14 16  2  0
 13 17  1  0
 17 18  2  0
  7  2  1  0
 18 10  1  0
M  CHG  1   5   1
M  END
>  <zinc_id>  (1) 
ZINC000000387351

>  <smiles>  (1) 
Cn1cc[n+](C)c1COc1ccc(C(N)=O)cc1

$$$$
