
     RDKit          3D

 23 27  0  0  0  0  0  0  0  0999 V2000
    1.4213   -1.5916   -1.6271 O   0  0  0  0  0  0  0  0  0  0  0  0
    1.6786   -0.8675   -0.6211 C   0  0  0  0  0  0  0  0  0  0  0  0
    2.7709    0.0724   -0.4965 C   0  0  0  0  0  0  0  0  0  0  0  0
    3.7821    0.4424   -1.3527 C   0  0  0  0  0  0  0  0  0  0  0  0
    4.7191    1.3742   -1.0018 C   0  0  0  0  0  0  0  0  0  0  0  0
    4.6527    1.9651    0.2498 C   0  0  0  0  0  0  0  0  0  0  0  0
    3.6634    1.6228    1.1257 C   0  0  0  0  0  0  0  0  0  0  0  0
    2.7215    0.6738    0.7492 C   0  0  0  0  0  0  0  0  0  0  0  0
    1.5734    0.1247    1.4706 C   0  0  0  0  0  0  0  0  0  0  0  0
    1.1926    0.4166    2.6309 O   0  0  0  0  0  0  0  0  0  0  0  0
    0.9530   -0.8154    0.6104 N   0  0  0  0  0  0  0  0  0  0  0  0
   -0.2175   -1.6299    0.8514 C   0  0  0  0  0  0  0  0  0  0  0  0
   -1.4783   -0.8864    0.4038 C   0  0  0  0  0  0  0  0  0  0  0  0
   -1.5061    0.3100    1.1905 C   0  0  0  0  0  0  0  0  0  0  0  0
   -2.7282    1.2987    0.8112 C   0  0  2  0  0  0  0  0  0  0  0  0
   -3.9869    0.3571    0.9640 C   0  0  0  0  0  0  0  0  0  0  0  0
   -4.0172   -1.1185    0.3963 C   0  0  1  0  0  0  0  0  0  0  0  0
   -3.6921   -0.8206   -1.1579 C   0  0  0  0  0  0  0  0  0  0  0  0
   -2.5746    0.0087   -1.3920 C   0  0  0  0  0  0  0  0  0  0  0  0
   -2.5091    0.2140   -2.7774 O   0  0  0  0  0  0  0  0  0  0  0  0
   -2.5699    1.2872   -0.7945 C   0  0  0  0  0  0  0  0  0  0  0  0
   -1.2752   -0.7425   -1.0823 C   0  0  0  0  0  0  0  0  0  0  0  0
   -2.5736   -1.6953    0.8495 C   0  0  0  0  0  0  0  0  0  0  0  0
  1  2  2  0
  2  3  1  0
  3  4  2  0
  4  5  1  0
  5  6  2  0
  6  7  1  0
  7  8  2  0
  8  9  1  0
  9 10  2  0
  9 11  1  0
 11 12  1  0
 12 13  1  0
 13 14  1  0
 15 14  1  1
 15 16  1  0
 17 16  1  1
 17 18  1  0
 18 19  1  0
 19 20  1  0
 19 21  1  0
 19 22  1  0
 17 23  1  0
 11  2  1  0
 22 13  1  0
  8  3  1  0
 23 13  1  0
 21 15  1  0
M  END
>  <zinc_id>  (1) 
ZINC000001507653

>  <smiles>  (1) 
O=C1c2ccccc2C(=O)N1CC12C[C@@H]3C[C@@H](CC(O)(C3)C1)C2

$$$$
