
     RDKit          3D

 21 23  0  0  0  0  0  0  0  0999 V2000
   -5.8478    1.3660    0.9000 C   0  0  0  0  0  0  0  0  0  0  0  0
   -5.4305    0.5985   -0.3400 C   0  0  0  0  0  0  0  0  0  0  0  0
   -4.2605   -0.1174   -0.0083 O   0  0  0  0  0  0  0  0  0  0  0  0
   -3.0781    0.4463    0.4142 C   0  0  0  0  0  0  0  0  0  0  0  0
   -2.9873    1.6541    0.5257 O   0  0  0  0  0  0  0  0  0  0  0  0
   -1.8811   -0.5356    0.7365 C   0  0  2  0  0  0  0  0  0  0  0  0
   -0.8550    0.5396    1.1430 N   0  0  0  0  0  0  0  0  0  0  0  0
    0.4929    0.2885    0.8586 C   0  0  0  0  0  0  0  0  0  0  0  0
    1.4316    1.1152    1.4299 C   0  0  0  0  0  0  0  0  0  0  0  0
    2.8001    0.9210    1.1874 C   0  0  0  0  0  0  0  0  0  0  0  0
    3.1965   -0.1092    0.3686 C   0  0  0  0  0  0  0  0  0  0  0  0
    4.5795   -0.3162    0.1152 N   0  0  0  0  0  4  0  0  0  0  0  0
    5.0436   -1.2151   -0.6073 O   0  0  0  0  0  0  0  0  0  0  0  0
    5.5281    0.4989    0.6769 O   0  0  0  0  0  1  0  0  0  0  0  0
    2.2153   -0.9036   -0.1751 C   0  0  0  0  0  0  0  0  0  0  0  0
    0.8486   -0.6890    0.0832 C   0  0  0  0  0  0  0  0  0  0  0  0
   -0.1207   -1.7156   -0.6365 C   0  0  2  0  0  0  0  0  0  0  0  0
    0.3822   -1.3943   -2.1074 C   0  0  0  0  0  0  0  0  0  0  0  0
    0.0790   -0.1695   -2.4139 C   0  0  0  0  0  0  0  0  0  0  0  0
   -0.6485    0.5248   -1.2720 C   0  0  0  0  0  0  0  0  0  0  0  0
   -1.4879   -0.7875   -0.8787 C   0  0  2  0  0  0  0  0  0  0  0  0
  1  2  1  0
  2  3  1  0
  3  4  1  0
  4  5  2  0
  6  4  1  6
  6  7  1  0
  7  8  1  0
  8  9  2  0
  9 10  1  0
 10 11  2  0
 11 12  1  0
 12 13  2  0
 12 14  1  0
 11 15  1  0
 15 16  2  0
 16 17  1  0
 17 18  1  6
 18 19  2  0
 19 20  1  0
 21 20  1  1
 21  6  1  0
 16  8  1  0
 21 17  1  0
M  CHG  2  12   1  14  -1
M  END
>  <zinc_id>  (1) 
ZINC000004003811

>  <smiles>  (1) 
CCOC(=O)[C@@H]1Nc2ccc([N+](=O)[O-])cc2[C@@H]2C=CC[C@H]12

$$$$
