
     RDKit          3D

 18 20  0  0  0  0  0  0  0  0999 V2000
   -3.7313    2.5825   -0.2769 C   0  0  0  0  0  0  0  0  0  0  0  0
   -4.4280    1.3647   -0.0957 O   0  0  0  0  0  0  0  0  0  0  0  0
   -3.6905    0.1974    0.1525 C   0  0  0  0  0  0  0  0  0  0  0  0
   -4.3643   -0.9942    0.3302 C   0  0  0  0  0  0  0  0  0  0  0  0
   -3.6468   -2.1548    0.5762 C   0  0  0  0  0  0  0  0  0  0  0  0
   -2.2833   -2.0894    0.6368 C   0  0  0  0  0  0  0  0  0  0  0  0
   -1.5674   -0.9201    0.4653 C   0  0  0  0  0  0  0  0  0  0  0  0
   -0.0887   -0.8929    0.5389 C   0  0  0  0  0  0  0  0  0  0  0  0
    0.5031   -2.0473    0.7771 C   0  0  0  0  0  0  0  0  0  0  0  0
    2.2998   -1.9887    0.8619 S   0  0  0  0  0  0  0  0  0  0  0  0
    2.7163   -0.2739    0.5768 C   0  0  0  0  0  0  0  0  0  0  0  0
    4.0816    0.0644    0.5886 N   0  0  0  0  0  0  0  0  0  0  0  0
    4.5631    1.4078    0.8793 C   0  0  0  0  0  0  0  0  0  0  0  0
    4.0494    2.4746   -0.0935 C   0  0  0  0  0  0  0  0  0  0  0  0
    5.5305    2.0569   -0.0786 C   0  0  0  0  0  0  0  0  0  0  0  0
    1.8574    0.6516    0.3655 N   0  0  0  0  0  0  0  0  0  0  0  0
    0.5142    0.3490    0.3484 N   0  0  0  0  0  0  0  0  0  0  0  0
   -2.3151    0.2122    0.2228 C   0  0  0  0  0  0  0  0  0  0  0  0
  1  2  1  0
  2  3  1  0
  3  4  2  0
  4  5  1  0
  5  6  2  0
  6  7  1  0
  7  8  1  0
  8  9  2  0
  9 10  1  0
 10 11  1  0
 11 12  1  0
 12 13  1  0
 13 14  1  0
 14 15  1  0
 11 16  2  0
 16 17  1  0
  7 18  2  0
 18  3  1  0
 17  8  1  0
 15 13  1  0
M  END
>  <zinc_id>  (1) 
ZINC000003591896

>  <smiles>  (1) 
COc1cccc(C2=CSC(NC3CC3)=NN2)c1

$$$$
