
     RDKit          3D

 21 22  0  0  0  0  0  0  0  0999 V2000
   -6.1509    0.9483   -1.2368 C   0  0  0  0  0  0  0  0  0  0  0  0
   -5.0508    0.1778   -1.3582 C   0  0  0  0  0  0  0  0  0  0  0  0
   -4.5155   -0.5303   -0.1928 C   0  0  0  0  0  0  0  0  0  0  0  0
   -3.1634   -0.1423    0.1077 N   0  0  0  0  0  0  0  0  0  0  0  0
   -2.0160   -0.7916   -0.4208 C   0  0  0  0  0  0  0  0  0  0  0  0
   -2.2061   -1.7596   -1.1993 O   0  0  0  0  0  0  0  0  0  0  0  0
   -0.6394   -0.3822   -0.0970 C   0  0  0  0  0  0  0  0  0  0  0  0
    0.4093   -1.0012   -0.5367 C   0  0  0  0  0  0  0  0  0  0  0  0
    1.8120   -0.6576   -0.2705 C   0  0  0  0  0  0  0  0  0  0  0  0
    2.6598   -1.6099    0.2846 C   0  0  0  0  0  0  0  0  0  0  0  0
    3.9890   -1.3568    0.4978 C   0  0  0  0  0  0  0  0  0  0  0  0
    4.5568   -0.1223    0.1646 C   0  0  0  0  0  0  0  0  0  0  0  0
    6.0088    0.1388    0.4085 C   0  0  0  0  0  0  0  0  0  0  0  0
    6.8480   -0.2777   -0.7768 C   0  0  0  0  0  0  0  0  0  0  0  0
    3.6962    0.7962   -0.3811 C   0  0  0  0  0  0  0  0  0  0  0  0
    2.3654    0.5579   -0.6001 C   0  0  0  0  0  0  0  0  0  0  0  0
   -0.4663    0.7410    0.8063 C   0  0  0  0  0  0  0  0  0  0  0  0
    0.6310    1.1984    1.1738 O   0  0  0  0  0  0  0  0  0  0  0  0
   -1.6270    1.3920    1.3350 N   0  0  0  0  0  0  0  0  0  0  0  0
   -2.9253    0.9569    0.9904 C   0  0  0  0  0  0  0  0  0  0  0  0
   -4.2156    1.7243    1.6102 S   0  0  0  0  0  0  0  0  0  0  0  0
  1  2  2  0
  2  3  1  0
  3  4  1  0
  4  5  1  0
  5  6  2  0
  5  7  1  0
  7  8  2  0
  8  9  1  0
  9 10  2  0
 10 11  1  0
 11 12  2  0
 12 13  1  0
 13 14  1  0
 12 15  1  0
 15 16  2  0
  7 17  1  0
 17 18  2  0
 17 19  1  0
 19 20  1  0
 20 21  2  0
 20  4  1  0
 16  9  1  0
M  END
>  <zinc_id>  (1) 
ZINC000002904129

>  <smiles>  (1) 
C=CCN1C(=O)/C(=C/c2ccc(CC)cc2)C(=O)NC1=S

$$$$
