
     RDKit          3D

 22 24  0  0  0  0  0  0  0  0999 V2000
    4.5768    2.2177   -0.2461 C   0  0  0  0  0  0  0  0  0  0  0  0
    4.0019    0.9699   -0.0210 O   0  0  0  0  0  0  0  0  0  0  0  0
    2.6427    0.7143   -0.2644 C   0  0  0  0  0  0  0  0  0  0  0  0
    1.8401    1.7165   -0.7397 C   0  0  0  0  0  0  0  0  0  0  0  0
    0.4635    1.4565   -0.9860 C   0  0  0  0  0  0  0  0  0  0  0  0
   -0.0581    0.2570   -0.7637 C   0  0  0  0  0  0  0  0  0  0  0  0
    0.7627   -0.7705   -0.2764 C   0  0  0  0  0  0  0  0  0  0  0  0
    2.1094   -0.5322   -0.0304 C   0  0  0  0  0  0  0  0  0  0  0  0
    2.9682   -1.5082    0.4509 O   0  0  0  0  0  0  0  0  0  0  0  0
    2.5596   -2.8334    0.7366 C   0  0  0  0  0  0  0  0  0  0  0  0
   -1.5338   -0.1745   -1.0131 C   0  0  1  0  0  0  0  0  0  0  0  0
   -1.8525   -0.7269    0.4583 C   0  0  0  0  0  0  0  0  0  0  0  0
   -2.3667    0.0334    1.4131 C   0  0  0  0  0  0  0  0  0  0  0  0
   -2.6085   -0.4680    2.6615 C   0  0  0  0  0  0  0  0  0  0  0  0
   -2.3100   -1.7789    2.9162 C   0  0  0  0  0  0  0  0  0  0  0  0
   -1.7756   -2.5581    1.9128 C   0  0  0  0  0  0  0  0  0  0  0  0
   -1.5346   -2.0475    0.6579 C   0  0  0  0  0  0  0  0  0  0  0  0
   -1.0217   -2.7732   -0.3569 F   0  0  0  0  0  0  0  0  0  0  0  0
   -2.3724    1.2135   -0.8828 C   0  0  0  0  0  0  0  0  0  0  0  0
   -1.7125    2.2420   -1.6661 C   0  0  0  0  0  0  0  0  0  0  0  0
   -2.4317    2.8443   -2.5098 O   0  0  0  0  0  0  0  0  0  0  0  0
   -0.3468    2.5063   -1.4509 N   0  0  0  0  0  0  0  0  0  0  0  0
  1  2  1  0
  2  3  1  0
  3  4  2  0
  4  5  1  0
  5  6  2  0
  6  7  1  0
  7  8  2  0
  8  9  1  0
  9 10  1  0
  6 11  1  0
 11 12  1  1
 12 13  2  0
 13 14  1  0
 14 15  2  0
 15 16  1  0
 16 17  2  0
 17 18  1  0
 11 19  1  0
 19 20  1  0
 20 21  2  0
 20 22  1  0
  8  3  1  0
 17 12  1  0
 22  5  1  0
M  END
>  <zinc_id>  (1) 
ZINC000000094915

>  <smiles>  (1) 
COc1cc2c(cc1OC)[C@@H](c1ccccc1F)CC(=O)N2

$$$$
