
     RDKit          3D

 19 20  0  0  0  0  0  0  0  0999 V2000
   -0.4560   -0.7001    0.8928 O   0  0  0  0  0  0  0  0  0  0  0  0
    0.0652   -1.2971   -0.0818 C   0  0  0  0  0  0  0  0  0  0  0  0
   -0.7343   -2.2399   -0.9435 C   0  0  0  0  0  0  0  0  0  0  0  0
   -2.0667   -2.2756   -0.4357 N   0  0  0  0  0  0  0  0  0  0  0  0
   -2.8961   -1.1140   -0.3722 C   0  0  0  0  0  0  0  0  0  0  0  0
   -2.4603    0.1185   -0.8123 C   0  0  0  0  0  0  0  0  0  0  0  0
   -3.2658    1.2367   -0.7484 C   0  0  0  0  0  0  0  0  0  0  0  0
   -4.5467    1.1814   -0.2421 C   0  0  0  0  0  0  0  0  0  0  0  0
   -5.3559    2.2657   -0.1693 F   0  0  0  0  0  0  0  0  0  0  0  0
   -4.9834   -0.0507    0.1982 C   0  0  0  0  0  0  0  0  0  0  0  0
   -4.1779   -1.1700    0.1345 C   0  0  0  0  0  0  0  0  0  0  0  0
    1.4364   -1.0472   -0.3374 N   0  0  0  0  0  0  0  0  0  0  0  0
    2.1399   -0.1656    0.4868 N   0  0  0  0  0  0  0  0  0  0  0  0
    3.2279    0.4071    0.1059 C   0  0  0  0  0  0  0  0  0  0  0  0
    3.8478    0.2005   -1.2268 C   0  0  0  0  0  0  0  0  0  0  0  0
    5.3235    0.0259   -1.0217 C   0  0  0  0  0  0  0  0  0  0  0  0
    5.9703    1.2082   -0.3735 C   0  0  0  0  0  0  0  0  0  0  0  0
    5.0273    2.0879    0.3831 C   0  0  0  0  0  0  0  0  0  0  0  0
    3.9047    1.3284    1.0521 C   0  0  0  0  0  0  0  0  0  0  0  0
  1  2  2  0
  2  3  1  0
  3  4  1  0
  4  5  1  0
  5  6  2  0
  6  7  1  0
  7  8  2  0
  8  9  1  0
  8 10  1  0
 10 11  2  0
  2 12  1  0
 12 13  1  0
 13 14  2  3
 14 15  1  0
 15 16  1  0
 16 17  1  0
 17 18  1  0
 18 19  1  0
 11  5  1  0
 19 14  1  0
M  END
>  <zinc_id>  (1) 
ZINC000000271772

>  <smiles>  (1) 
O=C(CNc1ccc(F)cc1)NN=C1CCCCC1

$$$$
