
     RDKit          3D

 19 21  0  0  0  0  0  0  0  0999 V2000
    4.0020    3.4104   -0.1663 Cl  0  0  0  0  0  0  0  0  0  0  0  0
    2.9882    1.9842   -0.0575 C   0  0  0  0  0  0  0  0  0  0  0  0
    1.6587    2.0451    0.3030 C   0  0  0  0  0  0  0  0  0  0  0  0
    0.8931    0.9045    0.3788 C   0  0  0  0  0  0  0  0  0  0  0  0
    1.4130   -0.3605    0.0977 C   0  0  0  0  0  0  0  0  0  0  0  0
    0.6306   -1.4918    0.1751 C   0  0  0  0  0  0  0  0  0  0  0  0
   -0.7387   -1.4274    0.5405 N   0  0  0  0  0  0  0  0  0  0  0  0
   -1.7599   -1.4003   -0.4150 N   0  0  0  0  0  0  0  0  0  0  0  0
   -2.9035   -0.5844   -0.2806 C   0  0  0  0  0  0  0  0  0  0  0  0
   -3.5167   -0.0246   -1.3195 C   0  0  0  0  0  0  0  0  0  0  0  0
   -4.7144    0.8047   -0.9815 C   0  0  0  0  0  0  0  0  0  0  0  0
   -4.3774    1.8018    0.1015 C   0  0  0  0  0  0  0  0  0  0  0  0
   -3.4910    1.2253    1.1818 C   0  0  0  0  0  0  0  0  0  0  0  0
   -3.5100   -0.2928    1.0436 C   0  0  0  0  0  0  0  0  0  0  0  0
    1.2570   -2.6987   -0.1321 C   0  0  0  0  0  0  0  0  0  0  0  0
    2.5621   -2.6604   -0.4770 C   0  0  0  0  0  0  0  0  0  0  0  0
    3.3365   -1.5787   -0.5572 N   0  0  0  0  0  0  0  0  0  0  0  0
    2.7498   -0.3987   -0.2642 C   0  0  0  0  0  0  0  0  0  0  0  0
    3.5206    0.7423   -0.3403 C   0  0  0  0  0  0  0  0  0  0  0  0
  1  2  1  0
  2  3  2  0
  3  4  1  0
  4  5  2  0
  5  6  1  0
  6  7  1  0
  7  8  1  0
  8  9  1  0
  9 10  2  0
 10 11  1  0
 11 12  1  0
 12 13  1  0
 13 14  1  0
  6 15  2  0
 15 16  1  0
 16 17  2  0
 17 18  1  0
 18 19  2  0
 19  2  1  0
 18  5  1  0
 14  9  1  0
M  END
>  <zinc_id>  (1) 
ZINC000003471464

>  <smiles>  (1) 
Clc1ccc2c(NNC3=CCCCC3)ccnc2c1

$$$$
