
     RDKit          3D

 21 24  0  0  0  0  0  0  0  0999 V2000
    4.9115    2.3452    0.5132 N   0  0  0  0  0  0  0  0  0  0  0  0
    3.8187    1.5403    0.1248 C   0  0  0  0  0  0  0  0  0  0  0  0
    3.0948    0.7917    1.0180 C   0  0  0  0  0  0  0  0  0  0  0  0
    2.0380    0.0261    0.5752 C   0  0  0  0  0  0  0  0  0  0  0  0
    1.6569   -0.0335   -0.7391 C   0  0  0  0  0  0  0  0  0  0  0  0
    0.5803   -0.8126   -1.1948 O   0  0  0  0  0  0  0  0  0  0  0  0
   -0.0996   -1.5379   -0.2365 C   0  0  0  0  0  0  0  0  0  0  0  0
    0.2406   -2.8235   -0.0353 N   0  0  0  0  0  0  0  0  0  0  0  0
   -0.3353   -3.6189    0.8512 C   0  0  0  0  0  0  0  0  0  0  0  0
   -1.3299   -3.1175    1.6081 N   0  0  0  0  0  0  0  0  0  0  0  0
   -1.6954   -1.8261    1.4290 C   0  0  0  0  0  0  0  0  0  0  0  0
   -2.8939   -0.8383    2.1824 S   0  0  0  0  0  0  0  0  0  0  0  0
   -2.6304    0.6119    1.3281 C   0  0  0  0  0  0  0  0  0  0  0  0
   -1.6122    0.2901    0.4743 C   0  0  0  0  0  0  0  0  0  0  0  0
   -1.1323   -0.9728    0.5310 C   0  0  0  0  0  0  0  0  0  0  0  0
   -1.2252    1.4800   -0.3923 C   0  0  0  0  0  0  0  0  0  0  0  0
   -2.5054    1.8774   -1.1052 C   0  0  0  0  0  0  0  0  0  0  0  0
   -3.5513    2.3921   -0.1367 C   0  0  0  0  0  0  0  0  0  0  0  0
   -3.1755    2.0013    1.2822 C   0  0  0  0  0  0  0  0  0  0  0  0
    2.3936    0.7285   -1.6487 C   0  0  0  0  0  0  0  0  0  0  0  0
    3.4519    1.4965   -1.2130 C   0  0  0  0  0  0  0  0  0  0  0  0
  1  2  1  0
  2  3  2  0
  3  4  1  0
  4  5  2  0
  5  6  1  0
  6  7  1  0
  7  8  2  0
  8  9  1  0
  9 10  2  0
 10 11  1  0
 11 12  1  0
 12 13  1  0
 13 14  2  0
 14 15  1  0
 14 16  1  0
 16 17  1  0
 17 18  1  0
 18 19  1  0
  5 20  1  0
 20 21  2  0
 21  2  1  0
 15  7  1  0
 15 11  2  0
 19 13  1  0
M  END
>  <zinc_id>  (1) 
ZINC000003205476

>  <smiles>  (1) 
Nc1ccc(Oc2ncnc3sc4c(c23)CCCC4)cc1

$$$$
