
     RDKit          3D

 21 22  0  0  0  0  0  0  0  0999 V2000
   -5.7180    0.8416    1.0692 C   0  0  0  0  0  0  0  0  0  0  0  0
   -4.6838   -0.2281    1.1329 C   0  0  0  0  0  0  0  0  0  0  0  0
   -4.9484   -1.2345    1.8413 O   0  0  0  0  0  0  0  0  0  0  0  0
   -3.4400   -0.0665    0.3898 C   0  0  0  0  0  0  0  0  0  0  0  0
   -3.1737   -0.4640   -0.9075 C   0  0  0  0  0  0  0  0  0  0  0  0
   -4.1312   -1.1595   -1.8381 C   0  0  0  0  0  0  0  0  0  0  0  0
   -1.9059   -0.1237   -1.2037 N   0  0  0  0  0  0  0  0  0  0  0  0
   -1.3185    0.4825   -0.1598 C   0  0  0  0  0  0  0  0  0  0  0  0
    0.0642    1.0001   -0.0963 C   0  0  0  0  0  0  0  0  0  0  0  0
    0.5139    1.5505    0.9323 O   0  0  0  0  0  0  0  0  0  0  0  0
    0.9355    0.8867   -1.2163 N   0  0  0  0  0  0  0  0  0  0  0  0
    2.2780    1.3808   -1.1772 C   0  0  0  0  0  0  0  0  0  0  0  0
    3.1678    0.4876   -0.4004 C   0  0  0  0  0  0  0  0  0  0  0  0
    3.3746    0.6382    0.9539 C   0  0  0  0  0  0  0  0  0  0  0  0
    4.2349   -0.2624    1.5850 C   0  0  0  0  0  0  0  0  0  0  0  0
    4.8718   -1.2769    0.9121 C   0  0  0  0  0  0  0  0  0  0  0  0
    5.7080   -2.1516    1.5295 F   0  0  0  0  0  0  0  0  0  0  0  0
    4.6549   -1.4140   -0.4399 C   0  0  0  0  0  0  0  0  0  0  0  0
    3.8102   -0.5306   -1.0620 C   0  0  0  0  0  0  0  0  0  0  0  0
   -2.2614    0.5264    0.8428 C   0  0  0  0  0  0  0  0  0  0  0  0
   -2.0329    1.1177    2.1850 C   0  0  0  0  0  0  0  0  0  0  0  0
  1  2  1  0
  2  3  2  0
  2  4  1  0
  4  5  2  0
  5  6  1  0
  5  7  1  0
  7  8  1  0
  8  9  1  0
  9 10  2  0
  9 11  1  0
 11 12  1  0
 12 13  1  0
 13 14  2  0
 14 15  1  0
 15 16  2  0
 16 17  1  0
 16 18  1  0
 18 19  2  0
  8 20  2  0
 20 21  1  0
 20  4  1  0
 19 13  1  0
M  END
>  <zinc_id>  (1) 
ZINC000000429497

>  <smiles>  (1) 
CC(=O)c1c(C)[nH]c(C(=O)NCc2ccc(F)cc2)c1C

$$$$
