
     RDKit          3D

 21 23  0  0  0  0  0  0  0  0999 V2000
   -3.5507    2.7634   -0.0141 C   0  0  0  0  0  0  0  0  0  0  0  0
   -4.7291    1.8719   -0.3260 C   0  0  0  0  0  0  0  0  0  0  0  0
   -4.3264    0.4834   -0.4530 N   0  0  0  0  0  0  0  0  0  0  0  0
   -5.3166   -0.5223   -0.7506 C   0  0  0  0  0  0  0  0  0  0  0  0
   -4.6443   -1.8687   -0.8285 C   0  0  0  0  0  0  0  0  0  0  0  0
   -2.9718    0.1571   -0.2808 C   0  0  0  0  0  0  0  0  0  0  0  0
   -2.5338   -0.1575    0.9822 C   0  0  0  0  0  0  0  0  0  0  0  0
   -1.2091   -0.4826    1.1851 C   0  0  0  0  0  0  0  0  0  0  0  0
   -0.2769   -0.5099    0.1647 C   0  0  0  0  0  0  0  0  0  0  0  0
    1.0953   -0.8559    0.4285 N   0  0  0  0  0  0  0  0  0  0  0  0
    1.5455   -1.8971    1.1530 C   0  0  0  0  0  0  0  0  0  0  0  0
    2.8901   -1.8898    1.1733 N   0  0  0  0  0  0  0  0  0  0  0  0
    3.3410   -0.8330    0.4551 C   0  0  0  0  0  0  0  0  0  0  0  0
    4.6169   -0.3684    0.1597 C   0  0  0  0  0  0  0  0  0  0  0  0
    4.7316    0.7607   -0.6146 C   0  0  0  0  0  0  0  0  0  0  0  0
    5.9996    1.3136   -0.9709 N   0  0  0  0  0  0  0  0  0  0  0  0
    3.5852    1.3827   -1.0640 C   0  0  0  0  0  0  0  0  0  0  0  0
    2.3177    0.9238   -0.7723 C   0  0  0  0  0  0  0  0  0  0  0  0
    2.1971   -0.2078    0.0036 C   0  0  0  0  0  0  0  0  0  0  0  0
   -0.7174   -0.1944   -1.1004 C   0  0  0  0  0  0  0  0  0  0  0  0
   -2.0436    0.1308   -1.3016 C   0  0  0  0  0  0  0  0  0  0  0  0
  1  2  1  0
  2  3  1  0
  3  4  1  0
  4  5  1  0
  3  6  1  0
  6  7  2  0
  7  8  1  0
  8  9  2  0
  9 10  1  0
 10 11  1  0
 11 12  2  0
 12 13  1  0
 13 14  2  0
 14 15  1  0
 15 16  1  0
 15 17  2  0
 17 18  1  0
 18 19  2  0
  9 20  1  0
 20 21  2  0
 21  6  1  0
 19 10  1  0
 19 13  1  0
M  END
>  <zinc_id>  (1) 
ZINC000004030205

>  <smiles>  (1) 
CCN(CC)c1ccc(-n2cnc3cc(N)ccc32)cc1

$$$$
