
     RDKit          3D

 22 25  0  0  0  0  0  0  0  0999 V2000
   -6.7077    1.0330   -0.0989 C   0  0  0  0  0  0  0  0  0  0  0  0
   -5.4606    1.4966   -0.5681 O   0  0  0  0  0  0  0  0  0  0  0  0
   -4.2576    0.9130   -0.2717 C   0  0  0  0  0  0  0  0  0  0  0  0
   -4.2016   -0.2171    0.5437 C   0  0  0  0  0  0  0  0  0  0  0  0
   -2.9382   -0.7355    0.7864 C   0  0  0  0  0  0  0  0  0  0  0  0
   -1.8047   -0.1731    0.2573 C   0  0  0  0  0  0  0  0  0  0  0  0
   -1.8662    0.9424   -0.5469 C   0  0  0  0  0  0  0  0  0  0  0  0
   -3.1150    1.4811   -0.8058 C   0  0  0  0  0  0  0  0  0  0  0  0
   -0.6075    1.2472   -0.9021 N   0  0  0  0  0  0  0  0  0  0  0  0
    0.2496    0.3912   -0.3709 C   0  0  0  0  0  0  0  0  0  0  0  0
    1.6191    0.2975   -0.4482 C   0  0  0  0  0  0  0  0  0  0  0  0
    2.3477    1.1984   -1.1803 C   0  0  0  0  0  0  0  0  0  0  0  0
    3.7391    1.0480   -1.2187 C   0  0  0  0  0  0  0  0  0  0  0  0
    4.3608    0.0243   -0.5407 C   0  0  0  0  0  0  0  0  0  0  0  0
    5.7249   -0.1478   -0.5604 O   0  0  0  0  0  0  0  0  0  0  0  0
    6.3422   -1.1892    0.1309 C   0  0  0  0  0  0  0  0  0  0  0  0
    3.5776   -0.8502    0.1781 C   0  0  0  0  0  0  0  0  0  0  0  0
    2.2271   -0.7273    0.2321 C   0  0  0  0  0  0  0  0  0  0  0  0
    1.5171   -1.6036    0.9443 O   0  0  0  0  0  0  0  0  0  0  0  0
    0.2111   -1.5356    1.0336 C   0  0  0  0  0  0  0  0  0  0  0  0
   -0.4700   -2.3585    1.7039 O   0  0  0  0  0  0  0  0  0  0  0  0
   -0.4868   -0.5347    0.3802 C   0  0  0  0  0  0  0  0  0  0  0  0
  1  2  1  0
  2  3  1  0
  3  4  2  0
  4  5  1  0
  5  6  2  0
  6  7  1  0
  7  8  2  0
  7  9  1  0
  9 10  1  0
 10 11  1  0
 11 12  2  0
 12 13  1  0
 13 14  2  0
 14 15  1  0
 15 16  1  0
 14 17  1  0
 17 18  2  0
 18 19  1  0
 19 20  1  0
 20 21  2  0
 20 22  1  0
  8  3  1  0
 22 10  2  0
 22  6  1  0
 18 11  1  0
M  END
>  <zinc_id>  (1) 
ZINC000001636366

>  <smiles>  (1) 
COc1ccc2c(c1)[nH]c1c3ccc(OC)cc3oc(=O)c21

$$$$
