
     RDKit          3D

 17 18  0  0  0  0  0  0  0  0999 V2000
   -3.6037   -1.9497    0.1423 C   0  0  0  0  0  0  0  0  0  0  0  0
   -4.2656   -0.6300    0.3272 C   0  0  0  0  0  0  0  0  0  0  0  0
   -3.3121    0.4336    0.4184 N   0  0  0  0  0  0  0  0  0  0  0  0
   -3.7631    1.7889    0.5983 C   0  0  0  0  0  0  0  0  0  0  0  0
   -4.4841    2.3660   -0.5693 C   0  0  0  0  0  0  0  0  0  0  0  0
   -1.9327    0.1712    0.3347 C   0  0  0  0  0  0  0  0  0  0  0  0
   -1.4243   -1.1201    0.1708 C   0  0  0  0  0  0  0  0  0  0  0  0
   -0.0578   -1.3134    0.0925 C   0  0  0  0  0  0  0  0  0  0  0  0
    0.8214   -0.2702    0.1714 C   0  0  0  0  0  0  0  0  0  0  0  0
    2.2998   -0.4475    0.0877 C   0  0  0  0  0  0  0  0  0  0  0  0
    2.7977   -1.7232   -0.0723 C   0  0  0  0  0  0  0  0  0  0  0  0
    4.4792   -1.4560   -0.1178 S   0  0  0  0  0  0  0  0  0  0  0  0
    4.4582    0.2387    0.0663 C   0  0  0  0  0  0  0  0  0  0  0  0
    5.5723    1.1712    0.1168 N   0  0  0  0  0  0  0  0  0  0  0  0
    3.1726    0.5162    0.1533 N   0  0  0  0  0  0  0  0  0  0  0  0
    0.2948    0.9898    0.3327 C   0  0  0  0  0  0  0  0  0  0  0  0
   -1.0528    1.2347    0.4158 C   0  0  0  0  0  0  0  0  0  0  0  0
  1  2  1  0
  2  3  1  0
  3  4  1  0
  4  5  1  0
  3  6  1  0
  6  7  2  0
  7  8  1  0
  8  9  2  0
  9 10  1  0
 10 11  2  0
 11 12  1  0
 12 13  1  0
 13 14  1  0
 13 15  2  0
  9 16  1  0
 16 17  2  0
 17  6  1  0
 15 10  1  0
M  END
>  <zinc_id>  (1) 
ZINC000004245274

>  <smiles>  (1) 
CCN(CC)c1ccc(-c2csc(N)n2)cc1

$$$$
