
     RDKit          3D

 19 21  0  0  0  0  0  0  0  0999 V2000
    0.1729   -2.5064    1.6301 C   0  0  0  0  0  0  0  0  0  0  0  0
   -0.8237   -1.5271    1.0981 C   0  0  0  0  0  0  0  0  0  0  0  0
   -2.0606   -1.3426    1.4010 O   0  0  0  0  0  0  0  0  0  0  0  0
   -2.6083   -0.3560    0.6863 C   0  0  0  0  0  0  0  0  0  0  0  0
   -3.8826    0.2001    0.6522 C   0  0  0  0  0  0  0  0  0  0  0  0
   -4.0676    1.2379   -0.2453 C   0  0  0  0  0  0  0  0  0  0  0  0
   -3.0650    1.7108   -1.0662 C   0  0  0  0  0  0  0  0  0  0  0  0
   -3.4104    2.7689   -1.9211 O   0  0  0  0  0  0  0  0  0  0  0  0
   -1.8211    1.1560   -1.0233 C   0  0  0  0  0  0  0  0  0  0  0  0
   -1.6089    0.1187   -0.1395 C   0  0  0  0  0  0  0  0  0  0  0  0
   -0.4745   -0.6026    0.0981 C   0  0  0  0  0  0  0  0  0  0  0  0
    0.8600   -0.4543   -0.4947 C   0  0  0  0  0  0  0  0  0  0  0  0
    1.0491    0.1521   -1.5649 O   0  0  0  0  0  0  0  0  0  0  0  0
    2.0148   -1.0242    0.1711 N   0  0  0  0  0  0  0  0  0  0  0  0
    3.3286   -0.8804   -0.4156 C   0  0  0  0  0  0  0  0  0  0  0  0
    3.4654    0.5372   -0.9571 C   0  0  0  0  0  0  0  0  0  0  0  0
    4.0595    1.3715    0.1786 C   0  0  0  0  0  0  0  0  0  0  0  0
    4.4683    0.4114    1.2480 C   0  0  0  0  0  0  0  0  0  0  0  0
    4.4040   -0.9712    0.6641 C   0  0  0  0  0  0  0  0  0  0  0  0
  1  2  1  0
  2  3  1  0
  3  4  1  0
  4  5  2  0
  5  6  1  0
  6  7  2  0
  7  8  1  0
  7  9  1  0
  9 10  2  0
 10 11  1  0
 11 12  1  0
 12 13  2  0
 12 14  1  0
 14 15  1  0
 15 16  1  0
 16 17  1  0
 17 18  1  0
 18 19  1  0
 11  2  2  0
 19 15  1  0
 10  4  1  0
M  END
>  <zinc_id>  (1) 
ZINC000004426130

>  <smiles>  (1) 
Cc1oc2ccc(O)cc2c1C(=O)NC1CCCC1

$$$$
