
     RDKit          3D

 20 22  0  0  0  0  0  0  0  0999 V2000
    6.5285    1.4651   -0.9651 C   0  0  0  0  0  0  0  0  0  0  0  0
    5.2267    0.9292   -0.4738 C   0  0  0  0  0  0  0  0  0  0  0  0
    4.5634    1.1737    0.6910 C   0  0  0  0  0  0  0  0  0  0  0  0
    3.4157    0.5694    0.8953 C   0  0  0  0  0  0  0  0  0  0  0  0
    2.9292   -0.2637   -0.0357 C   0  0  0  0  0  0  0  0  0  0  0  0
    1.6805   -1.0656   -0.0351 C   0  0  0  0  0  0  0  0  0  0  0  0
    1.5131   -1.7809   -1.0601 O   0  0  0  0  0  0  0  0  0  0  0  0
    0.7648   -1.0323    1.0204 N   0  0  0  0  0  0  0  0  0  0  0  0
   -0.5136   -1.8881    0.9949 C   0  0  2  0  0  0  0  0  0  0  0  0
   -0.3880   -2.4296   -0.5466 C   0  0  0  0  0  0  0  0  0  0  0  0
   -1.5693   -0.7580    0.6906 C   0  0  0  0  0  0  0  0  0  0  0  0
   -1.4885    0.4501    1.3068 C   0  0  0  0  0  0  0  0  0  0  0  0
   -2.4532    1.4486    1.0442 C   0  0  0  0  0  0  0  0  0  0  0  0
   -3.4823    1.2006    0.1604 C   0  0  0  0  0  0  0  0  0  0  0  0
   -3.5581   -0.0180   -0.4568 C   0  0  0  0  0  0  0  0  0  0  0  0
   -2.5863   -0.9854   -0.1755 C   0  0  0  0  0  0  0  0  0  0  0  0
   -4.6767    0.0261   -1.2730 O   0  0  0  0  0  0  0  0  0  0  0  0
   -5.4958    1.1446   -0.9169 C   0  0  0  0  0  0  0  0  0  0  0  0
   -4.5559    1.9974   -0.2766 O   0  0  0  0  0  0  0  0  0  0  0  0
    4.1458   -0.1832   -1.2393 S   0  0  0  0  0  0  0  0  0  0  0  0
  1  2  1  0
  2  3  2  0
  3  4  1  0
  4  5  2  0
  5  6  1  0
  6  7  2  0
  6  8  1  0
  8  9  1  0
  9 10  1  1
  9 11  1  0
 11 12  2  0
 12 13  1  0
 13 14  2  0
 14 15  1  0
 15 16  2  0
 15 17  1  0
 17 18  1  0
 18 19  1  0
  5 20  1  0
 20  2  1  0
 16 11  1  0
 19 14  1  0
M  END
>  <zinc_id>  (1) 
ZINC000000375044

>  <smiles>  (1) 
Cc1ccc(C(=O)N[C@@H](C)c2ccc3c(c2)OCO3)s1

$$$$
