
     RDKit          3D

 20 21  0  0  0  0  0  0  0  0999 V2000
   -5.4543    0.9549   -0.6606 C   0  0  0  0  0  0  0  0  0  0  0  0
   -4.7186   -0.3149   -0.3270 C   0  0  0  0  0  0  0  0  0  0  0  0
   -5.3046   -1.4131   -0.4797 O   0  0  0  0  0  0  0  0  0  0  0  0
   -3.3593   -0.1965    0.1575 C   0  0  0  0  0  0  0  0  0  0  0  0
   -2.8783   -0.0700    1.4533 C   0  0  0  0  0  0  0  0  0  0  0  0
   -3.7436   -0.0322    2.6472 C   0  0  0  0  0  0  0  0  0  0  0  0
   -1.5172    0.0071    1.3871 N   0  0  0  0  0  0  0  0  0  0  0  0
   -1.1059   -0.0628    0.1305 C   0  0  0  0  0  0  0  0  0  0  0  0
    0.2495   -0.0229   -0.4239 C   0  0  0  0  0  0  0  0  0  0  0  0
    0.4589   -0.1035   -1.6605 O   0  0  0  0  0  0  0  0  0  0  0  0
    1.4027    0.1080    0.3911 N   0  0  0  0  0  0  0  0  0  0  0  0
    2.7277    0.1492   -0.1228 C   0  0  0  0  0  0  0  0  0  0  0  0
    3.0471    0.0680   -1.4550 C   0  0  0  0  0  0  0  0  0  0  0  0
    4.3592    0.1141   -1.8939 C   0  0  0  0  0  0  0  0  0  0  0  0
    5.4039    0.2438   -1.0086 C   0  0  0  0  0  0  0  0  0  0  0  0
    5.1013    0.3268    0.3342 C   0  0  0  0  0  0  0  0  0  0  0  0
    6.0681    0.4566    1.2832 F   0  0  0  0  0  0  0  0  0  0  0  0
    3.7717    0.2792    0.7677 C   0  0  0  0  0  0  0  0  0  0  0  0
   -2.2459   -0.1894   -0.6384 C   0  0  0  0  0  0  0  0  0  0  0  0
   -2.2625   -0.3024   -2.1257 C   0  0  0  0  0  0  0  0  0  0  0  0
  1  2  1  0
  2  3  2  0
  2  4  1  0
  4  5  2  0
  5  6  1  0
  5  7  1  0
  7  8  1  0
  8  9  1  0
  9 10  2  0
  9 11  1  0
 11 12  1  0
 12 13  2  0
 13 14  1  0
 14 15  2  0
 15 16  1  0
 16 17  1  0
 16 18  2  0
  8 19  2  0
 19 20  1  0
 19  4  1  0
 18 12  1  0
M  END
>  <zinc_id>  (1) 
ZINC000000429463

>  <smiles>  (1) 
CC(=O)c1c(C)[nH]c(C(=O)Nc2cccc(F)c2)c1C

$$$$
