
     RDKit          3D

 21 22  0  0  0  0  0  0  0  0999 V2000
   -4.9466    1.7194    0.7585 C   0  0  0  0  0  0  0  0  0  0  0  0
   -3.7004    2.1738    1.5293 C   0  0  0  0  0  0  0  0  0  0  0  0
   -2.5724    1.6970    0.8206 O   0  0  0  0  0  0  0  0  0  0  0  0
   -2.4046    0.3394    0.6197 C   0  0  0  0  0  0  0  0  0  0  0  0
   -3.2666   -0.4376    1.0765 O   0  0  0  0  0  0  0  0  0  0  0  0
   -1.2306   -0.1863   -0.1201 C   0  0  0  0  0  0  0  0  0  0  0  0
   -0.3260    0.5834   -0.6029 C   0  0  0  0  0  0  0  0  0  0  0  0
   -0.4977    2.0711   -0.3898 C   0  0  0  0  0  0  0  0  0  0  0  0
    0.9101    0.1354   -1.3740 C   0  0  1  0  0  0  0  0  0  0  0  0
    2.0152    0.4196   -0.2997 C   0  0  0  0  0  0  0  0  0  0  0  0
    1.9370    1.6172    0.3470 C   0  0  0  0  0  0  0  0  0  0  0  0
    2.9024    1.9460    1.3301 C   0  0  0  0  0  0  0  0  0  0  0  0
    3.8882    1.0376    1.5960 C   0  0  0  0  0  0  0  0  0  0  0  0
    3.9493   -0.1522    0.9401 C   0  0  0  0  0  0  0  0  0  0  0  0
    3.0019   -0.4408   -0.0045 C   0  0  0  0  0  0  0  0  0  0  0  0
    2.9917   -1.6005   -0.7008 F   0  0  0  0  0  0  0  0  0  0  0  0
    0.8730   -1.3267   -1.4600 N   0  0  0  0  0  0  0  0  0  0  0  0
   -0.0790   -2.1344   -0.9518 C   0  0  0  0  0  0  0  0  0  0  0  0
   -0.0469   -3.4046   -1.0652 O   0  0  0  0  0  0  0  0  0  0  0  0
   -1.1880   -1.6013   -0.2505 N   0  0  0  0  0  0  0  0  0  0  0  0
   -2.2100   -2.4555    0.2961 C   0  0  0  0  0  0  0  0  0  0  0  0
  1  2  1  0
  2  3  1  0
  3  4  1  0
  4  5  2  0
  4  6  1  0
  6  7  2  0
  7  8  1  0
  7  9  1  0
  9 10  1  1
 10 11  2  0
 11 12  1  0
 12 13  2  0
 13 14  1  0
 14 15  2  0
 15 16  1  0
  9 17  1  0
 17 18  1  0
 18 19  2  0
 18 20  1  0
 20 21  1  0
 20  6  1  0
 15 10  1  0
M  END
>  <zinc_id>  (1) 
ZINC000000234811

>  <smiles>  (1) 
CCOC(=O)C1=C(C)[C@@H](c2ccccc2F)NC(=O)N1C

$$$$
