
     RDKit          3D

 19 21  0  0  0  0  0  0  0  0999 V2000
   -2.6972    2.5589    2.2496 C   0  0  0  0  0  0  0  0  0  0  0  0
   -2.4705    1.4627    1.2380 C   0  0  0  0  0  0  0  0  0  0  0  0
   -3.5996    0.8391    0.6798 C   0  0  0  0  0  0  0  0  0  0  0  0
   -3.4002   -0.1507   -0.2351 C   0  0  0  0  0  0  0  0  0  0  0  0
   -4.5300   -0.7881   -0.8146 N   0  0  0  0  0  0  0  0  0  0  0  0
   -2.1571   -0.5028   -0.5720 N   0  0  0  0  0  0  0  0  0  0  0  0
   -1.6843   -1.4179   -1.3944 N   0  0  0  0  0  0  0  0  0  0  0  0
   -0.3395   -1.4291   -1.4024 C   0  0  0  0  0  0  0  0  0  0  0  0
    0.4882   -2.3490   -2.2303 C   0  0  0  0  0  0  0  0  0  0  0  0
    0.0932   -0.4477   -0.5193 C   0  0  0  0  0  0  0  0  0  0  0  0
    1.4833   -0.1447   -0.1818 C   0  0  0  0  0  0  0  0  0  0  0  0
    1.9512   -0.5506    1.0470 C   0  0  0  0  0  0  0  0  0  0  0  0
    3.2448   -0.3460    1.4398 C   0  0  0  0  0  0  0  0  0  0  0  0
    4.1311    0.3004    0.5616 C   0  0  0  0  0  0  0  0  0  0  0  0
    5.7867    0.5850    1.0016 Cl  0  0  0  0  0  0  0  0  0  0  0  0
    3.6658    0.6968   -0.6454 C   0  0  0  0  0  0  0  0  0  0  0  0
    2.3516    0.5003   -1.0663 C   0  0  0  0  0  0  0  0  0  0  0  0
   -1.0703    0.1072   -0.0236 C   0  0  0  0  0  0  0  0  0  0  0  0
   -1.2472    1.0765    0.8678 N   0  0  0  0  0  0  0  0  0  0  0  0
  1  2  1  0
  2  3  1  0
  3  4  2  0
  4  5  1  0
  4  6  1  0
  6  7  1  0
  7  8  2  0
  8  9  1  0
  8 10  1  0
 10 11  1  0
 11 12  2  0
 12 13  1  0
 13 14  2  0
 14 15  1  0
 14 16  1  0
 16 17  2  0
 10 18  2  0
 18 19  1  0
 19  2  2  0
 18  6  1  0
 17 11  1  0
M  END
>  <zinc_id>  (1) 
ZINC000000208671

>  <smiles>  (1) 
Cc1cc(N)n2nc(C)c(-c3ccc(Cl)cc3)c2n1

$$$$
