
     RDKit          3D

 19 20  0  0  0  0  0  0  0  0999 V2000
   -4.8896   -0.9086    1.1398 C   0  0  0  0  0  0  0  0  0  0  0  0
   -4.4220   -0.3000    0.0608 C   0  0  0  0  0  0  0  0  0  0  0  0
   -5.0851    0.9734   -0.3214 C   0  0  0  0  0  0  0  0  0  0  0  0
   -4.0684    2.0896   -0.3073 C   0  0  0  0  0  0  0  0  0  0  0  0
   -3.3422   -0.8451   -0.6852 N   0  0  0  0  0  0  0  0  0  0  0  0
   -2.0217   -0.4256   -0.5164 N   0  0  0  0  0  0  0  0  0  0  0  0
   -0.9742   -1.2704   -0.0692 C   0  0  0  0  0  0  0  0  0  0  0  0
   -1.2414   -2.4645    0.1918 O   0  0  0  0  0  0  0  0  0  0  0  0
    0.4054   -0.7741    0.0917 C   0  0  0  0  0  0  0  0  0  0  0  0
    0.7325    0.5372   -0.1879 C   0  0  0  0  0  0  0  0  0  0  0  0
    1.9956    1.0534   -0.0570 C   0  0  0  0  0  0  0  0  0  0  0  0
    2.3230    2.3624   -0.3363 C   0  0  0  0  0  0  0  0  0  0  0  0
    3.6000    2.8610   -0.1981 C   0  0  0  0  0  0  0  0  0  0  0  0
    4.5608    1.9782    0.2411 C   0  0  0  0  0  0  0  0  0  0  0  0
    4.2669    0.6643    0.5288 C   0  0  0  0  0  0  0  0  0  0  0  0
    2.9846    0.1883    0.3835 C   0  0  0  0  0  0  0  0  0  0  0  0
    2.6803   -1.1326    0.6705 C   0  0  0  0  0  0  0  0  0  0  0  0
    1.3831   -1.6334    0.5282 C   0  0  0  0  0  0  0  0  0  0  0  0
    1.1125   -2.9535    0.8222 O   0  0  0  0  0  0  0  0  0  0  0  0
  1  2  2  0
  2  3  1  0
  3  4  1  0
  2  5  1  0
  5  6  1  0
  6  7  1  0
  7  8  2  0
  7  9  1  0
  9 10  2  0
 10 11  1  0
 11 12  2  0
 12 13  1  0
 13 14  2  0
 14 15  1  0
 15 16  2  0
 16 17  1  0
 17 18  2  0
 18 19  1  0
 18  9  1  0
 16 11  1  0
M  END
>  <zinc_id>  (1) 
ZINC000001881588

>  <smiles>  (1) 
C=C(CC)NNC(=O)c1cc2ccccc2cc1O

$$$$
