
     RDKit          3D

 22 24  0  0  0  0  0  0  0  0999 V2000
    1.9440    1.2029   -1.2484 C   0  0  0  0  0  0  0  0  0  0  0  0
    2.9910    0.9988   -0.2942 C   0  0  0  0  0  0  0  0  0  0  0  0
    3.7972    2.2155    0.1096 C   0  0  0  0  0  0  0  0  0  0  0  0
    2.4615    0.4192    1.1249 C   0  0  1  0  0  0  0  0  0  0  0  0
    1.1159   -0.2233    0.5956 N   0  0  0  0  0  0  0  0  0  0  0  0
    0.0205    0.6495    0.7133 C   0  0  0  0  0  0  0  0  0  0  0  0
    0.2398    1.7859    1.2048 O   0  0  0  0  0  0  0  0  0  0  0  0
   -1.3437    0.3303    0.3077 C   0  0  0  0  0  0  0  0  0  0  0  0
   -1.7176   -0.8817   -0.2206 C   0  0  0  0  0  0  0  0  0  0  0  0
   -3.0394   -1.1236   -0.5893 C   0  0  0  0  0  0  0  0  0  0  0  0
   -4.0118   -0.1779   -0.4439 C   0  0  0  0  0  0  0  0  0  0  0  0
   -5.3647   -0.4011   -0.8123 N   0  0  0  0  0  4  0  0  0  0  0  0
   -5.7696   -1.4754   -1.2951 O   0  0  0  0  0  0  0  0  0  0  0  0
   -6.3060    0.5800   -0.6484 O   0  0  0  0  0  1  0  0  0  0  0  0
   -3.6500    1.0423    0.0845 C   0  0  0  0  0  0  0  0  0  0  0  0
   -2.3360    1.2751    0.4482 C   0  0  0  0  0  0  0  0  0  0  0  0
    3.3291   -0.9702    1.1429 C   0  0  1  0  0  0  0  0  0  0  0  0
    3.1902   -1.3925    2.5597 C   0  0  0  0  0  0  0  0  0  0  0  0
    2.8400   -1.9413    0.2148 C   0  0  0  0  0  0  0  0  0  0  0  0
    2.9603   -1.2842   -1.0356 C   0  0  0  0  0  0  0  0  0  0  0  0
    4.0588   -0.0833   -0.8391 C   0  0  2  0  0  0  0  0  0  0  0  0
    4.5903   -0.5448    0.6520 C   0  0  0  0  0  0  0  0  0  0  0  0
  1  2  1  0
  2  3  1  0
  2  4  1  0
  4  5  1  6
  5  6  1  0
  6  7  2  0
  6  8  1  0
  8  9  2  0
  9 10  1  0
 10 11  2  0
 11 12  1  0
 12 13  2  0
 12 14  1  0
 11 15  1  0
 15 16  2  0
  4 17  1  0
 17 18  1  1
 17 19  1  0
 19 20  1  0
 21 20  1  1
 21 22  1  0
 21  2  1  0
 16  8  1  0
 22 17  1  0
M  CHG  2  12   1  14  -1
M  END
>  <zinc_id>  (1) 
ZINC000001042172

>  <smiles>  (1) 
CC1(C)[C@@H](NC(=O)c2ccc([N+](=O)[O-])cc2)[C@@]2(C)CC[C@@H]1C2

$$$$
