
     RDKit          3D

 20 20  0  0  0  0  0  0  0  0999 V2000
   -1.0218    1.3050    0.0272 C   0  0  0  0  0  0  0  0  0  0  0  0
   -1.6477   -0.0213    0.1702 C   0  0  0  0  0  0  0  0  0  0  0  0
   -0.9130   -1.1393    0.4709 C   0  0  0  0  0  0  0  0  0  0  0  0
    0.5579   -1.0697    0.6399 C   0  0  0  0  0  0  0  0  0  0  0  0
    1.1638   -1.8266    1.4017 O   0  0  0  0  0  0  0  0  0  0  0  0
    1.3355   -0.1644   -0.0462 N   0  0  0  0  0  0  0  0  0  0  0  0
    2.5409    0.3131   -0.2963 C   0  0  0  0  0  0  0  0  0  0  0  0
    3.7847   -0.3411    0.0269 C   0  0  0  0  0  0  0  0  0  0  0  0
    4.0895   -1.6654   -0.5305 C   0  0  0  0  0  0  0  0  0  0  0  0
    4.6843    0.2686    1.0080 C   0  0  0  0  0  0  0  0  0  0  0  0
    2.6705    1.8145   -0.2415 C   0  0  0  0  0  0  0  0  0  0  0  0
    4.0539    2.2605   -0.5346 C   0  0  0  0  0  0  0  0  0  0  0  0
    2.1155    2.2599    1.0931 C   0  0  0  0  0  0  0  0  0  0  0  0
   -1.5649   -2.3343    0.5813 C   0  0  0  0  0  0  0  0  0  0  0  0
   -2.9634   -2.4715    0.3964 C   0  0  0  0  0  0  0  0  0  0  0  0
   -3.6373   -1.3120    0.0954 C   0  0  0  0  0  0  0  0  0  0  0  0
   -3.0349   -0.0952   -0.0226 C   0  0  0  0  0  0  0  0  0  0  0  0
   -3.8327    1.0507   -0.3154 N   0  0  0  0  0  4  0  0  0  0  0  0
   -4.9235    0.8527   -0.9622 O   0  0  0  0  0  0  0  0  0  0  0  0
   -3.4572    2.3159    0.0883 O   0  0  0  0  0  1  0  0  0  0  0  0
  1  2  1  0
  2  3  2  0
  3  4  1  0
  4  5  2  0
  4  6  1  0
  6  7  1  0
  7  8  1  0
  8  9  1  0
  8 10  1  0
  7 11  1  0
 11 12  1  0
 11 13  1  0
  3 14  1  0
 14 15  2  0
 15 16  1  0
 16 17  2  0
 17 18  1  0
 18 19  2  0
 18 20  1  0
 17  2  1  0
M  CHG  2  18   1  20  -1
M  END
>  <zinc_id>  (1) 
ZINC000000452350

>  <smiles>  (1) 
Cc1c(C(=O)NC(C(C)C)C(C)C)cccc1[N+](=O)[O-]

$$$$
