
     RDKit          3D

 21 23  0  0  0  0  0  0  0  0999 V2000
    0.0076    0.2285   -4.1327 O   0  0  0  0  0  0  0  0  0  0  0  0
    0.3519   -0.2490   -3.0409 N   0  0  0  0  0  4  0  0  0  0  0  0
    1.6096   -0.7751   -2.9299 O   0  0  0  0  0  1  0  0  0  0  0  0
   -0.5028   -0.2693   -1.9127 C   0  0  0  0  0  0  0  0  0  0  0  0
   -1.8701   -0.2938   -2.1396 C   0  0  0  0  0  0  0  0  0  0  0  0
   -2.7606   -0.3143   -1.0890 C   0  0  0  0  0  0  0  0  0  0  0  0
   -2.3187   -0.3112    0.2387 C   0  0  0  0  0  0  0  0  0  0  0  0
   -3.2161   -0.3319    1.3252 N   0  0  0  0  0  0  0  0  0  0  0  0
   -2.8398   -0.3322    2.7117 C   0  0  0  0  0  0  0  0  0  0  0  0
   -4.0355    0.2721    3.4509 C   0  0  0  0  0  0  0  0  0  0  0  0
   -5.0368    0.6149    2.3638 C   0  0  0  0  0  0  0  0  0  0  0  0
   -4.6491   -0.3561    1.2657 C   0  0  0  0  0  0  0  0  0  0  0  0
   -0.9378   -0.2863    0.4219 C   0  0  0  0  0  0  0  0  0  0  0  0
   -0.0312   -0.2655   -0.6151 C   0  0  0  0  0  0  0  0  0  0  0  0
    1.3813   -0.2401   -0.3899 N   0  0  0  0  0  0  0  0  0  0  0  0
    1.9626   -0.2340    0.9196 C   0  0  0  0  0  0  0  0  0  0  0  0
    3.4547   -0.2057    0.7648 C   0  0  0  0  0  0  0  0  0  0  0  0
    4.3021   -0.1895    1.8508 C   0  0  0  0  0  0  0  0  0  0  0  0
    5.5687   -0.1655    1.3192 C   0  0  0  0  0  0  0  0  0  0  0  0
    5.4183   -0.1686   -0.0521 C   0  0  0  0  0  0  0  0  0  0  0  0
    4.1417   -0.1929   -0.3305 O   0  0  0  0  0  0  0  0  0  0  0  0
  1  2  2  0
  2  3  1  0
  2  4  1  0
  4  5  2  0
  5  6  1  0
  6  7  2  0
  7  8  1  0
  8  9  1  0
  9 10  1  0
 10 11  1  0
 11 12  1  0
  7 13  1  0
 13 14  2  0
 14 15  1  0
 15 16  1  0
 16 17  1  0
 17 18  2  0
 18 19  1  0
 19 20  2  0
 20 21  1  0
 14  4  1  0
 21 17  1  0
 12  8  1  0
M  CHG  2   2   1   3  -1
M  END
>  <zinc_id>  (1) 
ZINC000004104318

>  <smiles>  (1) 
O=[N+]([O-])c1ccc(N2CCCC2)cc1NCc1ccco1

$$$$
