
     RDKit          3D

 19 20  0  0  0  0  0  0  0  0999 V2000
   -3.5411    3.1500    0.7240 C   0  0  0  0  0  0  0  0  0  0  0  0
   -3.9021    2.1006   -0.2887 C   0  0  0  0  0  0  0  0  0  0  0  0
   -3.2507    0.8865   -0.1003 O   0  0  0  0  0  0  0  0  0  0  0  0
   -1.8688    0.7486   -0.1243 C   0  0  0  0  0  0  0  0  0  0  0  0
   -1.0032    1.7987   -0.3368 C   0  0  0  0  0  0  0  0  0  0  0  0
    0.3662    1.6219   -0.3536 C   0  0  0  0  0  0  0  0  0  0  0  0
    0.9463    0.3832   -0.1584 C   0  0  0  0  0  0  0  0  0  0  0  0
    2.3909    0.1863   -0.1744 C   0  0  0  0  0  0  0  0  0  0  0  0
    3.0324   -1.0135    0.0119 C   0  0  0  0  0  0  0  0  0  0  0  0
    4.3791   -0.7600   -0.0788 C   0  0  0  0  0  0  0  0  0  0  0  0
    5.4551   -1.6942    0.0462 N   0  0  0  0  0  0  0  0  0  0  0  0
    4.5430    0.5090   -0.3051 O   0  0  0  0  0  0  0  0  0  0  0  0
    3.3815    1.0633   -0.3612 N   0  0  0  0  0  0  0  0  0  0  0  0
    0.0650   -0.6584    0.0531 C   0  0  0  0  0  0  0  0  0  0  0  0
   -1.3064   -0.4973    0.0727 C   0  0  0  0  0  0  0  0  0  0  0  0
   -2.2154   -1.6603    0.3064 C   0  0  0  0  0  0  0  0  0  0  0  0
   -1.3467   -2.8868    0.4894 C   0  0  0  0  0  0  0  0  0  0  0  0
   -3.0480   -1.8808   -0.9382 C   0  0  0  0  0  0  0  0  0  0  0  0
   -3.0770   -1.3967    1.5160 C   0  0  0  0  0  0  0  0  0  0  0  0
  1  2  1  0
  2  3  1  0
  3  4  1  0
  4  5  2  0
  5  6  1  0
  6  7  2  0
  7  8  1  0
  8  9  1  0
  9 10  2  0
 10 11  1  0
 10 12  1  0
 12 13  1  0
  7 14  1  0
 14 15  2  0
 15 16  1  0
 16 17  1  0
 16 18  1  0
 16 19  1  0
 15  4  1  0
 13  8  2  0
M  END
>  <zinc_id>  (1) 
ZINC000003704559

>  <smiles>  (1) 
CCOc1ccc(-c2cc(N)on2)cc1C(C)(C)C

$$$$
