
     RDKit          3D

 20 23  0  0  0  0  0  0  0  0999 V2000
   -1.3061    0.5487    2.2681 O   0  0  0  0  0  0  0  0  0  0  0  0
   -0.6025    0.2951    1.2721 C   0  0  0  0  0  0  0  0  0  0  0  0
    0.7724    0.1238    1.4297 N   0  0  0  0  0  0  0  0  0  0  0  0
    1.3815   -1.0551    0.5217 C   0  0  2  0  0  0  0  0  0  0  0  0
    2.9172   -0.5151    0.6204 C   0  0  0  0  0  0  0  0  0  0  0  0
    3.8732   -1.4468    0.8676 C   0  0  0  0  0  0  0  0  0  0  0  0
    5.1671   -0.9730    0.9488 C   0  0  0  0  0  0  0  0  0  0  0  0
    5.4492    0.3262    0.7919 N   0  0  0  0  0  0  0  0  0  0  0  0
    4.4727    1.2078    0.5496 C   0  0  0  0  0  0  0  0  0  0  0  0
    3.1646    0.7828    0.4595 C   0  0  0  0  0  0  0  0  0  0  0  0
    1.0807   -0.2683   -0.8363 N   0  0  0  0  0  0  0  0  0  0  0  0
   -0.3363   -0.1029   -1.0645 C   0  0  0  0  0  0  0  0  0  0  0  0
   -1.3558   -0.1646   -2.4631 S   0  0  0  0  0  0  0  0  0  0  0  0
   -2.8508    0.1642   -1.7326 C   0  0  0  0  0  0  0  0  0  0  0  0
   -2.5300    0.3158   -0.4132 C   0  0  0  0  0  0  0  0  0  0  0  0
   -1.2195    0.1749   -0.0769 C   0  0  0  0  0  0  0  0  0  0  0  0
   -3.7725    0.6240    0.4280 C   0  0  0  0  0  0  0  0  0  0  0  0
   -4.7930   -0.4318    0.0555 C   0  0  0  0  0  0  0  0  0  0  0  0
   -5.2838   -0.1779   -1.3454 C   0  0  0  0  0  0  0  0  0  0  0  0
   -4.2283    0.2833   -2.2808 C   0  0  0  0  0  0  0  0  0  0  0  0
  1  2  2  0
  2  3  1  0
  3  4  1  0
  4  5  1  1
  5  6  2  0
  6  7  1  0
  7  8  2  0
  8  9  1  0
  9 10  2  0
  4 11  1  0
 11 12  1  0
 12 13  1  0
 13 14  1  0
 14 15  2  0
 15 16  1  0
 15 17  1  0
 17 18  1  0
 18 19  1  0
 19 20  1  0
 16  2  1  0
 10  5  1  0
 16 12  2  0
 20 14  1  0
M  END
>  <zinc_id>  (1) 
ZINC000000565717

>  <smiles>  (1) 
O=C1N[C@H](c2ccncc2)Nc2sc3c(c21)CCCC3

$$$$
