
     RDKit          3D

 21 23  0  0  0  0  0  0  0  0999 V2000
    5.1906   -1.7784   -0.3031 C   0  0  0  0  0  0  0  0  0  0  0  0
    4.4370   -0.5095   -0.1917 C   0  0  0  0  0  0  0  0  0  0  0  0
    5.1457    0.6622   -0.2961 C   0  0  0  0  0  0  0  0  0  0  0  0
    4.5145    1.8812   -0.2027 C   0  0  0  0  0  0  0  0  0  0  0  0
    3.1499    1.9211   -0.0014 C   0  0  0  0  0  0  0  0  0  0  0  0
    2.4002    0.7592    0.1091 C   0  0  0  0  0  0  0  0  0  0  0  0
    3.0821   -0.4565    0.0083 C   0  0  0  0  0  0  0  0  0  0  0  0
    2.1306   -1.5001    0.1485 N   0  0  0  0  0  0  0  0  0  0  0  0
    0.8134   -0.9440    0.3430 C   0  0  0  0  0  0  0  0  0  0  0  0
   -0.2657   -1.5623    0.5021 O   0  0  0  0  0  0  0  0  0  0  0  0
    0.9892    0.4938    0.3173 C   0  0  0  0  0  0  0  0  0  0  0  0
    0.0709    1.3639    0.4530 N   0  0  0  0  0  0  0  0  0  0  0  0
   -1.2828    1.0420    0.6527 N   0  0  0  0  0  0  0  0  0  0  0  0
   -2.0788    0.5443   -0.4287 C   0  0  0  0  0  0  0  0  0  0  0  0
   -1.4978    0.4185   -1.5402 O   0  0  0  0  0  0  0  0  0  0  0  0
   -3.4938    0.2025   -0.2410 C   0  0  0  0  0  0  0  0  0  0  0  0
   -4.4398    0.8336    0.5435 C   0  0  0  0  0  0  0  0  0  0  0  0
   -5.6275    0.1665    0.4095 C   0  0  0  0  0  0  0  0  0  0  0  0
   -5.4190   -0.8277   -0.4188 O   0  0  0  0  0  0  0  0  0  0  0  0
   -4.1746   -0.8479   -0.8299 C   0  0  0  0  0  0  0  0  0  0  0  0
   -3.6442   -1.8625   -1.7762 C   0  0  0  0  0  0  0  0  0  0  0  0
  1  2  1  0
  2  3  2  0
  3  4  1  0
  4  5  2  0
  5  6  1  0
  6  7  2  0
  7  8  1  0
  8  9  1  0
  9 10  2  0
  9 11  1  0
 11 12  2  0
 12 13  1  0
 13 14  1  0
 14 15  2  0
 14 16  1  0
 16 17  1  0
 17 18  2  0
 18 19  1  0
 19 20  1  0
 20 21  1  0
  7  2  1  0
 20 16  2  0
 11  6  1  0
M  END
>  <zinc_id>  (1) 
ZINC000004466101

>  <smiles>  (1) 
Cc1cccc2c1NC(=O)/C2=N\NC(=O)c1ccoc1C

$$$$
