
     RDKit          3D

 21 23  0  0  0  0  0  0  0  0999 V2000
    5.4147   -0.1579    0.3094 C   0  0  0  0  0  0  0  0  0  0  0  0
    4.3591    0.4515   -0.3736 O   0  0  0  0  0  0  0  0  0  0  0  0
    3.0146    0.1343   -0.1422 C   0  0  0  0  0  0  0  0  0  0  0  0
    2.6363   -0.8054    0.7796 C   0  0  0  0  0  0  0  0  0  0  0  0
    1.2733   -1.1037    0.9908 C   0  0  0  0  0  0  0  0  0  0  0  0
    0.3352   -0.4346    0.2554 C   0  0  0  0  0  0  0  0  0  0  0  0
    0.7352    0.5139   -0.6738 C   0  0  0  0  0  0  0  0  0  0  0  0
    2.0650    0.8115   -0.8865 C   0  0  0  0  0  0  0  0  0  0  0  0
    2.4891    1.7544   -1.8085 O   0  0  0  0  0  0  0  0  0  0  0  0
    1.5378    2.4612   -2.5827 C   0  0  0  0  0  0  0  0  0  0  0  0
   -1.1069   -0.7111    0.4394 C   0  0  0  0  0  0  0  0  0  0  0  0
   -2.0309    0.0313   -0.3690 C   0  0  0  0  0  0  0  0  0  0  0  0
   -1.6322    0.9700   -1.2884 C   0  0  0  0  0  0  0  0  0  0  0  0
   -2.5564    1.6512   -2.0349 C   0  0  0  0  0  0  0  0  0  0  0  0
   -3.8905    1.3871   -1.8564 C   0  0  0  0  0  0  0  0  0  0  0  0
   -4.3300    0.4703   -0.9617 C   0  0  0  0  0  0  0  0  0  0  0  0
   -3.3820   -0.2118   -0.2126 C   0  0  0  0  0  0  0  0  0  0  0  0
   -3.8280   -1.1784    0.7317 N   0  0  0  0  0  0  0  0  0  0  0  0
   -1.4475   -1.5918    1.3041 N   0  0  0  0  0  0  0  0  0  0  0  0
   -0.5452   -2.3326    2.1094 C   0  0  0  0  0  0  0  0  0  0  0  0
    0.8894   -2.1094    1.9787 C   0  0  0  0  0  0  0  0  0  0  0  0
  1  2  1  0
  2  3  1  0
  3  4  2  0
  4  5  1  0
  5  6  2  0
  6  7  1  0
  7  8  2  0
  8  9  1  0
  9 10  1  0
  6 11  1  0
 11 12  1  0
 12 13  2  0
 13 14  1  0
 14 15  2  0
 15 16  1  0
 16 17  2  0
 17 18  1  0
 11 19  2  0
 19 20  1  0
 20 21  1  0
  8  3  1  0
 17 12  1  0
 21  5  1  0
M  END
>  <zinc_id>  (1) 
ZINC000000164865

>  <smiles>  (1) 
COc1cc2c(cc1OC)C(c1ccccc1N)=NCC2

$$$$
