
     RDKit          3D

 21 23  0  0  0  0  0  0  0  0999 V2000
    5.0950   -1.5420    0.4921 C   0  0  0  0  0  0  0  0  0  0  0  0
    4.4654   -0.1944    0.3742 C   0  0  0  0  0  0  0  0  0  0  0  0
    5.0646    0.5660   -0.7578 C   0  0  0  0  0  0  0  0  0  0  0  0
    4.6488    0.6249    1.6664 C   0  0  0  0  0  0  0  0  0  0  0  0
    2.9831   -0.2555    0.1903 C   0  0  0  0  0  0  0  0  0  0  0  0
    2.2761   -1.4091    0.3858 C   0  0  0  0  0  0  0  0  0  0  0  0
    0.8935   -1.4098    0.2450 C   0  0  0  0  0  0  0  0  0  0  0  0
    0.1891   -0.2911   -0.0862 C   0  0  0  0  0  0  0  0  0  0  0  0
   -1.2303   -0.2887   -0.1466 N   0  0  0  0  0  0  0  0  0  0  0  0
   -2.1245   -1.1476   -0.6152 C   0  0  0  0  0  0  0  0  0  0  0  0
   -1.8479   -2.4389   -1.2926 C   0  0  0  0  0  0  0  0  0  0  0  0
   -3.0009   -3.2277   -1.3600 O   0  0  0  0  0  0  0  0  0  0  0  0
   -3.4026   -0.6997   -0.4088 N   0  0  0  0  0  0  0  0  0  0  0  0
   -3.3201    0.4936    0.2131 C   0  0  0  0  0  0  0  0  0  0  0  0
   -4.2069    1.4251    0.6936 C   0  0  0  0  0  0  0  0  0  0  0  0
   -3.7745    2.5747    1.3191 C   0  0  0  0  0  0  0  0  0  0  0  0
   -2.4370    2.8326    1.4882 C   0  0  0  0  0  0  0  0  0  0  0  0
   -1.5240    1.8901    0.9984 C   0  0  0  0  0  0  0  0  0  0  0  0
   -1.9837    0.7535    0.3768 C   0  0  0  0  0  0  0  0  0  0  0  0
    0.9206    0.8624   -0.2841 C   0  0  0  0  0  0  0  0  0  0  0  0
    2.3164    0.8815   -0.1488 C   0  0  0  0  0  0  0  0  0  0  0  0
  1  2  1  0
  2  3  1  0
  2  4  1  0
  2  5  1  0
  5  6  2  0
  6  7  1  0
  7  8  2  0
  8  9  1  0
  9 10  1  0
 10 11  1  0
 11 12  1  0
 10 13  2  0
 13 14  1  0
 14 15  2  0
 15 16  1  0
 16 17  2  0
 17 18  1  0
 18 19  2  0
  8 20  1  0
 20 21  2  0
 21  5  1  0
 19  9  1  0
 19 14  1  0
M  END
>  <zinc_id>  (1) 
ZINC000001470617

>  <smiles>  (1) 
CC(C)(C)c1ccc(-n2c(CO)nc3ccccc32)cc1

$$$$
