
     RDKit          3D

 21 22  0  0  0  0  0  0  0  0999 V2000
   -4.7447    0.5163    2.8063 C   0  0  0  0  0  0  0  0  0  0  0  0
   -4.1808    0.1256    1.4679 C   0  0  0  0  0  0  0  0  0  0  0  0
   -5.0917   -0.1641    0.4959 C   0  0  0  0  0  0  0  0  0  0  0  0
   -4.5992   -0.5240   -0.7349 C   0  0  0  0  0  0  0  0  0  0  0  0
   -3.2202   -0.6005   -1.0085 C   0  0  0  0  0  0  0  0  0  0  0  0
   -2.6565   -1.0034   -2.2978 C   0  0  0  0  0  0  0  0  0  0  0  0
   -2.3318   -0.2965    0.0401 C   0  0  0  0  0  0  0  0  0  0  0  0
   -0.9213   -0.3796   -0.1075 N   0  0  0  0  0  0  0  0  0  0  0  0
    0.0018   -0.0880    0.8971 C   0  0  0  0  0  0  0  0  0  0  0  0
   -0.4154    0.2948    2.0388 O   0  0  0  0  0  0  0  0  0  0  0  0
    1.4385   -0.2287    0.7074 C   0  0  0  0  0  0  0  0  0  0  0  0
    2.2213   -0.9979    1.5530 C   0  0  0  0  0  0  0  0  0  0  0  0
    3.5960   -1.1596    1.2838 C   0  0  0  0  0  0  0  0  0  0  0  0
    4.1681   -0.5653    0.2029 C   0  0  0  0  0  0  0  0  0  0  0  0
    3.3995    0.2191   -0.6599 C   0  0  0  0  0  0  0  0  0  0  0  0
    4.0373    0.8698   -1.7685 N   0  0  0  0  0  4  0  0  0  0  0  0
    3.4338    1.1091   -2.8109 O   0  0  0  0  0  0  0  0  0  0  0  0
    5.3423    1.2396   -1.6180 O   0  0  0  0  0  1  0  0  0  0  0  0
    2.0780    0.3627   -0.3934 C   0  0  0  0  0  0  0  0  0  0  0  0
    1.2804    1.2089   -1.3500 C   0  0  0  0  0  0  0  0  0  0  0  0
   -2.8354    0.0615    1.2563 C   0  0  0  0  0  0  0  0  0  0  0  0
  1  2  1  0
  2  3  2  0
  3  4  1  0
  4  5  2  0
  5  6  1  0
  5  7  1  0
  7  8  1  0
  8  9  1  0
  9 10  2  0
  9 11  1  0
 11 12  2  0
 12 13  1  0
 13 14  2  0
 14 15  1  0
 15 16  1  0
 16 17  2  0
 16 18  1  0
 15 19  2  0
 19 20  1  0
  7 21  2  0
 21  2  1  0
 19 11  1  0
M  CHG  2  16   1  18  -1
M  END
>  <zinc_id>  (1) 
ZINC000003479014

>  <smiles>  (1) 
Cc1ccc(C)c(NC(=O)c2cccc([N+](=O)[O-])c2C)c1

$$$$
