
     RDKit          3D

 19 20  0  0  0  0  0  0  0  0999 V2000
    3.8152   -0.3089    2.3534 C   0  0  0  0  0  0  0  0  0  0  0  0
    4.4377   -0.0676    1.0161 C   0  0  0  0  0  0  0  0  0  0  0  0
    3.5043    0.8044    0.1686 C   0  0  0  0  0  0  0  0  0  0  0  0
    3.3052    2.1173    0.8965 C   0  0  0  0  0  0  0  0  0  0  0  0
    4.2320    1.0454   -1.1425 C   0  0  0  0  0  0  0  0  0  0  0  0
    2.2509    0.0862   -0.1214 C   0  0  0  0  0  0  0  0  0  0  0  0
    2.1092   -0.6542   -1.2872 C   0  0  0  0  0  0  0  0  0  0  0  0
    0.9569   -1.3189   -1.5942 C   0  0  0  0  0  0  0  0  0  0  0  0
   -0.1393   -1.2747   -0.7217 C   0  0  0  0  0  0  0  0  0  0  0  0
   -1.2693   -1.9566   -1.0842 O   0  0  0  0  0  0  0  0  0  0  0  0
   -2.4721   -2.0413   -0.3536 C   0  0  0  0  0  0  0  0  0  0  0  0
   -3.0212   -0.7084   -0.1312 N   0  0  0  0  0  0  0  0  0  0  0  0
   -2.7990    0.0549    0.9465 C   0  0  0  0  0  0  0  0  0  0  0  0
   -3.4391    1.2633    0.7990 C   0  0  0  0  0  0  0  0  0  0  0  0
   -4.0612    1.1689   -0.4460 C   0  0  0  0  0  0  0  0  0  0  0  0
   -4.8327    2.2311   -0.9961 N   0  0  0  0  0  0  0  0  0  0  0  0
   -3.7872   -0.0231   -0.9671 N   0  0  0  0  0  0  0  0  0  0  0  0
    0.0192   -0.5470    0.4193 C   0  0  0  0  0  0  0  0  0  0  0  0
    1.1905    0.1292    0.7236 C   0  0  0  0  0  0  0  0  0  0  0  0
  1  2  1  0
  2  3  1  0
  3  4  1  0
  3  5  1  0
  3  6  1  0
  6  7  2  0
  7  8  1  0
  8  9  2  0
  9 10  1  0
 10 11  1  0
 11 12  1  0
 12 13  1  0
 13 14  2  0
 14 15  1  0
 15 16  1  0
 15 17  2  0
  9 18  1  0
 18 19  2  0
 19  6  1  0
 17 12  1  0
M  END
>  <zinc_id>  (1) 
ZINC000002534829

>  <smiles>  (1) 
CCC(C)(C)c1ccc(OCn2ccc(N)n2)cc1

$$$$
