
     RDKit          3D

 21 22  0  0  0  0  0  0  0  0999 V2000
    6.1028    0.2794   -0.1325 C   0  0  0  0  0  0  0  0  0  0  0  0
    4.6353    0.1280   -0.2234 C   0  0  0  0  0  0  0  0  0  0  0  0
    3.9760    0.2602   -1.4329 C   0  0  0  0  0  0  0  0  0  0  0  0
    2.6182    0.1116   -1.5068 C   0  0  0  0  0  0  0  0  0  0  0  0
    1.8196   -0.1743   -0.4321 C   0  0  0  0  0  0  0  0  0  0  0  0
    0.4150   -0.2785   -0.5691 N   0  0  0  0  0  0  0  0  0  0  0  0
   -0.4823   -0.7670    0.4040 C   0  0  0  0  0  0  0  0  0  0  0  0
   -0.0046   -1.1609    1.5053 O   0  0  0  0  0  0  0  0  0  0  0  0
   -1.9240   -0.8403    0.1873 C   0  0  0  0  0  0  0  0  0  0  0  0
   -2.6085   -1.9684   -0.1795 C   0  0  0  0  0  0  0  0  0  0  0  0
   -3.9666   -1.9715   -0.4448 C   0  0  0  0  0  0  0  0  0  0  0  0
   -4.6336   -0.7788   -0.3253 C   0  0  0  0  0  0  0  0  0  0  0  0
   -4.0191    0.3920    0.0392 C   0  0  0  0  0  0  0  0  0  0  0  0
   -4.8335    1.6012    0.1377 C   0  0  0  0  0  0  0  0  0  0  0  0
   -2.6569    0.3503    0.2956 C   0  0  0  0  0  0  0  0  0  0  0  0
   -1.9814    1.5080    0.7170 N   0  0  0  0  0  4  0  0  0  0  0  0
   -1.7211    2.4202   -0.0617 O   0  0  0  0  0  0  0  0  0  0  0  0
   -1.6036    1.6465    2.0530 O   0  0  0  0  0  1  0  0  0  0  0  0
    2.4737   -0.3091    0.7879 C   0  0  0  0  0  0  0  0  0  0  0  0
    3.8687   -0.1586    0.8894 C   0  0  0  0  0  0  0  0  0  0  0  0
    4.5261   -0.2901    2.2098 C   0  0  0  0  0  0  0  0  0  0  0  0
  1  2  1  0
  2  3  2  0
  3  4  1  0
  4  5  2  0
  5  6  1  0
  6  7  1  0
  7  8  2  0
  7  9  1  0
  9 10  2  0
 10 11  1  0
 11 12  2  0
 12 13  1  0
 13 14  1  0
 13 15  2  0
 15 16  1  0
 16 17  2  0
 16 18  1  0
  5 19  1  0
 19 20  2  0
 20 21  1  0
 20  2  1  0
 15  9  1  0
M  CHG  2  16   1  18  -1
M  END
>  <zinc_id>  (1) 
ZINC000000466494

>  <smiles>  (1) 
Cc1ccc(NC(=O)c2cccc(C)c2[N+](=O)[O-])cc1C

$$$$
