
     RDKit          3D

 19 20  0  0  0  0  0  0  0  0999 V2000
   -2.5629    3.2359    1.0744 C   0  0  0  0  0  0  0  0  0  0  0  0
   -3.2114    1.6430    1.6034 S   0  0  0  0  0  0  0  0  0  0  0  0
   -2.2016    0.3282    0.8859 C   0  0  0  0  0  0  0  0  0  0  0  0
   -1.2056    0.5726    0.1358 N   0  0  0  0  0  0  0  0  0  0  0  0
   -0.3279   -0.3882   -0.4929 C   0  0  1  0  0  0  0  0  0  0  0  0
   -0.6819   -0.5132   -1.9760 C   0  0  0  0  0  0  0  0  0  0  0  0
    1.0475    0.1038   -0.3796 C   0  0  0  0  0  0  0  0  0  0  0  0
    1.7961    0.3500   -1.4925 C   0  0  0  0  0  0  0  0  0  0  0  0
    3.0963    0.8145   -1.4128 C   0  0  0  0  0  0  0  0  0  0  0  0
    3.6956    1.0503   -0.1887 C   0  0  0  0  0  0  0  0  0  0  0  0
    5.0005    1.5168   -0.0928 O   0  0  0  0  0  0  0  0  0  0  0  0
    2.9263    0.7969    0.9308 C   0  0  0  0  0  0  0  0  0  0  0  0
    1.6349    0.3356    0.8559 C   0  0  0  0  0  0  0  0  0  0  0  0
    0.8502    0.0766    1.9688 O   0  0  0  0  0  0  0  0  0  0  0  0
   -0.4942   -1.7587    0.1615 C   0  0  0  0  0  0  0  0  0  0  0  0
   -1.9854   -2.0107    0.2340 C   0  0  0  0  0  0  0  0  0  0  0  0
   -2.5602   -1.6998   -1.1348 C   0  0  0  0  0  0  0  0  0  0  0  0
   -2.2997   -3.4224    0.6635 C   0  0  0  0  0  0  0  0  0  0  0  0
   -2.5167   -1.0311    1.1594 N   0  0  0  0  0  0  0  0  0  0  0  0
  1  2  1  0
  2  3  1  0
  3  4  2  0
  4  5  1  0
  5  6  1  6
  5  7  1  0
  7  8  2  0
  8  9  1  0
  9 10  2  0
 10 11  1  0
 10 12  1  0
 12 13  2  0
 13 14  1  0
  5 15  1  0
 15 16  1  0
 16 17  1  0
 16 18  1  0
 16 19  1  0
 19  3  1  0
 13  7  1  0
M  END
>  <zinc_id>  (1) 
ZINC000000033342

>  <smiles>  (1) 
CSC1=N[C@@](C)(c2ccc(O)cc2O)CC(C)(C)N1

$$$$
