
     RDKit          3D

 18 18  0  0  0  0  0  0  0  0999 V2000
    0.7231    0.4032   -1.2604 C   0  0  0  0  0  0  0  0  0  0  0  0
    1.1352   -0.2530   -0.1755 C   0  0  0  0  0  0  0  0  0  0  0  0
    0.1914   -0.9907    0.6094 N   0  0  0  0  0  0  0  0  0  0  0  0
   -0.9576   -0.3129    1.0965 N   0  0  0  0  0  0  0  0  0  0  0  0
   -2.1526   -0.2661    0.3502 C   0  0  0  0  0  0  0  0  0  0  0  0
   -2.1623   -0.8501   -0.7687 O   0  0  0  0  0  0  0  0  0  0  0  0
   -3.3099    0.3606    0.7346 O   0  0  0  0  0  0  0  0  0  0  0  0
   -4.4857    0.3770   -0.0562 C   0  0  0  0  0  0  0  0  0  0  0  0
   -4.2417    1.0306   -1.3983 C   0  0  0  0  0  0  0  0  0  0  0  0
   -5.5161    1.2503    0.6636 C   0  0  0  0  0  0  0  0  0  0  0  0
   -5.0951   -0.9807   -0.2259 C   0  0  0  0  0  0  0  0  0  0  0  0
    2.5257   -0.2230    0.2106 C   0  0  0  0  0  0  0  0  0  0  0  0
    2.9458   -0.9035    1.3366 C   0  0  0  0  0  0  0  0  0  0  0  0
    4.2606   -0.8701    1.6938 C   0  0  0  0  0  0  0  0  0  0  0  0
    5.1731   -0.1743    0.9569 C   0  0  0  0  0  0  0  0  0  0  0  0
    4.7440    0.5016   -0.1652 C   0  0  0  0  0  0  0  0  0  0  0  0
    3.4353    0.4932   -0.5570 C   0  0  0  0  0  0  0  0  0  0  0  0
    2.7868    1.4079   -2.0968 Br  0  0  0  0  0  0  0  0  0  0  0  0
  1  2  2  0
  2  3  1  0
  3  4  1  0
  4  5  1  0
  5  6  2  0
  5  7  1  0
  7  8  1  0
  8  9  1  0
  8 10  1  0
  8 11  1  0
  2 12  1  0
 12 13  2  0
 13 14  1  0
 14 15  2  0
 15 16  1  0
 16 17  2  0
 17 18  1  0
 17 12  1  0
M  END
>  <zinc_id>  (1) 
ZINC000003270427

>  <smiles>  (1) 
C=C(NNC(=O)OC(C)(C)C)c1ccccc1Br

$$$$
