
     RDKit          3D

 21 23  0  0  0  0  0  0  0  0999 V2000
    0.0209    0.8870    0.6541 O   0  0  0  0  0  0  0  0  0  0  0  0
   -0.4804   -0.2577    0.6370 C   0  0  0  0  0  0  0  0  0  0  0  0
    0.3654   -1.3657    0.4220 N   0  0  0  0  0  0  0  0  0  0  0  0
    1.7717   -1.1716    0.2280 C   0  0  0  0  0  0  0  0  0  0  0  0
    2.5409   -2.3042    0.0224 C   0  0  0  0  0  0  0  0  0  0  0  0
    3.8888   -2.1594   -0.1670 C   0  0  0  0  0  0  0  0  0  0  0  0
    4.4788   -0.9214   -0.1556 C   0  0  0  0  0  0  0  0  0  0  0  0
    3.7180    0.2317    0.0505 C   0  0  0  0  0  0  0  0  0  0  0  0
    4.3260    1.5062    0.0622 N   0  0  0  0  0  4  0  0  0  0  0  0
    5.5459    1.5990   -0.1124 O   0  0  0  0  0  0  0  0  0  0  0  0
    3.5475    2.6071    0.2668 O   0  0  0  0  0  1  0  0  0  0  0  0
    2.3652    0.0496    0.2375 C   0  0  0  0  0  0  0  0  0  0  0  0
   -1.9260   -0.5179    0.8311 C   0  0  0  0  0  0  0  0  0  0  0  0
   -2.3442   -1.5880    1.5683 C   0  0  0  0  0  0  0  0  0  0  0  0
   -4.0416   -1.4687    1.5137 S   0  0  0  0  0  0  0  0  0  0  0  0
   -4.1792   -0.0663    0.5582 C   0  0  0  0  0  0  0  0  0  0  0  0
   -2.8744    0.2760    0.3039 C   0  0  0  0  0  0  0  0  0  0  0  0
   -2.7570    1.5281   -0.5529 C   0  0  0  0  0  0  0  0  0  0  0  0
   -3.6044    1.2328   -1.7840 C   0  0  0  0  0  0  0  0  0  0  0  0
   -5.0580    1.1255   -1.4433 C   0  0  0  0  0  0  0  0  0  0  0  0
   -5.3040    0.7780   -0.0005 C   0  0  0  0  0  0  0  0  0  0  0  0
  1  2  2  0
  2  3  1  0
  3  4  1  0
  4  5  2  0
  5  6  1  0
  6  7  2  0
  7  8  1  0
  8  9  1  0
  9 10  2  0
  9 11  1  0
  8 12  2  0
  2 13  1  0
 13 14  2  0
 14 15  1  0
 15 16  1  0
 16 17  2  0
 17 18  1  0
 18 19  1  0
 19 20  1  0
 20 21  1  0
 12  4  1  0
 17 13  1  0
 21 16  1  0
M  CHG  2   9   1  11  -1
M  END
>  <zinc_id>  (1) 
ZINC000000443255

>  <smiles>  (1) 
O=C(Nc1cccc([N+](=O)[O-])c1)c1csc2c1CCCC2

$$$$
