
     RDKit          3D

 19 20  0  0  0  0  0  0  0  0999 V2000
   -2.4091   -2.1686    1.7673 C   0  0  0  0  0  0  0  0  0  0  0  0
   -1.6193   -2.2549    0.4984 C   0  0  0  0  0  0  0  0  0  0  0  0
   -2.4162   -2.8895   -0.6236 C   0  0  0  0  0  0  0  0  0  0  0  0
   -0.9929   -1.0264    0.0976 N   0  0  0  0  0  0  0  0  0  0  0  0
    0.3647   -1.1208   -0.4033 C   0  0  0  0  0  0  0  0  0  0  0  0
    0.9656   -2.2197   -0.4144 O   0  0  0  0  0  0  0  0  0  0  0  0
    1.0355    0.1013   -0.9097 C   0  0  0  0  0  0  0  0  0  0  0  0
    2.1439    0.4507   -0.0004 N   0  0  0  0  0  4  0  0  0  0  0  0
    1.9960    1.2514    1.0119 C   0  0  0  0  0  0  0  0  0  0  0  0
    3.0703    1.5313    1.7991 C   0  0  0  0  0  0  0  0  0  0  0  0
    4.2912    0.6089    1.0335 S   0  0  0  0  0  0  0  0  0  0  0  0
    3.3649   -0.0648   -0.2199 C   0  0  0  0  0  0  0  0  0  0  0  0
    3.7496   -0.9762   -1.2827 N   0  0  0  0  0  0  0  0  0  0  0  0
   -1.6488    0.2344    0.1458 C   0  0  0  0  0  0  0  0  0  0  0  0
   -2.6723    0.4614    1.0135 C   0  0  0  0  0  0  0  0  0  0  0  0
   -3.3010    1.6786    1.0553 C   0  0  0  0  0  0  0  0  0  0  0  0
   -2.8694    2.6622    0.2019 C   0  0  0  0  0  0  0  0  0  0  0  0
   -1.8358    2.4860   -0.6971 C   0  0  0  0  0  0  0  0  0  0  0  0
   -1.2167    1.2546   -0.7293 C   0  0  0  0  0  0  0  0  0  0  0  0
  1  2  1  0
  2  3  1  0
  2  4  1  0
  4  5  1  0
  5  6  2  0
  5  7  1  0
  7  8  1  0
  8  9  1  0
  9 10  2  0
 10 11  1  0
 11 12  1  0
 12 13  1  0
  4 14  1  0
 14 15  2  0
 15 16  1  0
 16 17  2  0
 17 18  1  0
 18 19  2  0
 12  8  2  0
 19 14  1  0
M  CHG  1   8   1
M  END
>  <zinc_id>  (1) 
ZINC000001883728

>  <smiles>  (1) 
CC(C)N(C(=O)C[n+]1ccsc1N)c1ccccc1

$$$$
