MODEL 1
REMARK VINA RESULT:      -7.2      0.000      0.000
REMARK  Name = 
REMARK  8 active torsions:
REMARK  status: ('A' for Active; 'I' for Inactive)
REMARK    1  A    between atoms: C_2  and  N_3
REMARK    2  A    between atoms: N_3  and  C_4
REMARK    3  A    between atoms: N_3  and  C_6
REMARK    4  A    between atoms: C_6  and  C_7
REMARK    5  A    between atoms: C_7  and  C_9
REMARK    6  A    between atoms: C_9  and  N_10
REMARK    7  A    between atoms: C_11  and  C_12
REMARK    8  A    between atoms: C_18  and  C_19
REMARK                            x       y       z     vdW  Elec       q    Type
REMARK                         _______ _______ _______ _____ _____    ______ ____
ROOT
ATOM      1  N   UNL     1      38.148   0.559  13.989  0.00  0.00    +0.000 N 
ATOM      2  C   UNL     1      38.588  -0.655  14.350  0.00  0.00    +0.000 A 
ATOM      3  C   UNL     1      37.745  -1.131  15.373  0.00  0.00    +0.000 A 
ATOM      4  C   UNL     1      36.797  -0.176  15.615  0.00  0.00    +0.000 A 
ATOM      5  C   UNL     1      35.736  -0.149  16.513  0.00  0.00    +0.000 A 
ATOM      6  C   UNL     1      34.944   0.978  16.506  0.00  0.00    +0.000 A 
ATOM      7  C   UNL     1      35.180   2.039  15.653  0.00  0.00    +0.000 A 
ATOM      8  C   UNL     1      34.396   3.177  15.634  0.00  0.00    +0.000 A 
ATOM      9  C   UNL     1      34.616   4.246  14.791  0.00  0.00    +0.000 A 
ATOM     10  C   UNL     1      35.680   4.179  13.915  0.00  0.00    +0.000 A 
ATOM     11  C   UNL     1      36.483   3.057  13.908  0.00  0.00    +0.000 A 
ATOM     12  C   UNL     1      36.248   1.979  14.769  0.00  0.00    +0.000 A 
ATOM     13  C   UNL     1      37.055   0.867  14.753  0.00  0.00    +0.000 A 
ENDROOT
BRANCH   2  14
ATOM     14  C   UNL     1      39.740  -1.445  13.949  0.00  0.00    +0.000 A 
ATOM     15  C   UNL     1      40.988  -1.242  14.552  0.00  0.00    +0.000 A 
ATOM     16  C   UNL     1      42.106  -1.957  14.238  0.00  0.00    +0.000 A 
ATOM     17  C   UNL     1      42.025  -2.935  13.281  0.00  0.00    +0.000 A 
ATOM     18  C   UNL     1      40.826  -3.188  12.646  0.00  0.00    +0.000 A 
ATOM     19  C   UNL     1      39.745  -2.429  13.014  0.00  0.00    +0.000 A 
ENDBRANCH   2  14
BRANCH   3  20
ATOM     20  C   UNL     1      37.877  -2.410  16.036  0.00  0.00    +0.000 A 
ATOM     21  C   UNL     1      37.200  -3.543  15.598  0.00  0.00    +0.000 A 
ATOM     22  C   UNL     1      37.333  -4.746  16.252  0.00  0.00    +0.000 A 
ATOM     23  C   UNL     1      38.148  -4.850  17.366  0.00  0.00    +0.000 A 
ATOM     24  C   UNL     1      38.818  -3.750  17.808  0.00  0.00    +0.000 A 
ATOM     25  C   UNL     1      38.673  -2.569  17.147  0.00  0.00    +0.000 A 
ENDBRANCH   3  20
BRANCH   1  26
ATOM     26  C   UNL     1      38.585   1.421  12.955  0.00  0.00    +0.000 C 
BRANCH  26  27
ATOM     27  C   UNL     1      38.445   0.621  11.519  0.00  0.00    +0.000 C 
ATOM     28  O   UNL     1      37.317   1.520  11.015  0.00  0.00    +0.000 OA
BRANCH  27  29
ATOM     29  C   UNL     1      39.626   1.431  10.738  0.00  0.00    +0.000 C 
BRANCH  29  30
ATOM     30  N   UNL     1      40.544   0.507  10.217  0.00  0.00    +0.000 NA
BRANCH  30  32
ATOM     31  C   UNL     1      42.190   1.132  11.926  0.00  0.00    +0.000 C 
ATOM     32  C   UNL     1      41.625   0.065  11.005  0.00  0.00    +0.000 C 
ENDBRANCH  30  32
BRANCH  30  33
ATOM     33  C   UNL     1      40.147  -0.289   9.116  0.00  0.00    +0.000 C 
ATOM     34  C   UNL     1      40.551  -1.727   9.236  0.00  0.00    +0.000 C 
ENDBRANCH  30  33
ENDBRANCH  29  30
ENDBRANCH  27  29
ENDBRANCH  26  27
ENDBRANCH   1  26
TORSDOF 8
ENDMDL
MODEL 2
REMARK VINA RESULT:      -6.9      1.849      2.994
REMARK  Name = 
REMARK  8 active torsions:
REMARK  status: ('A' for Active; 'I' for Inactive)
REMARK    1  A    between atoms: C_2  and  N_3
REMARK    2  A    between atoms: N_3  and  C_4
REMARK    3  A    between atoms: N_3  and  C_6
REMARK    4  A    between atoms: C_6  and  C_7
REMARK    5  A    between atoms: C_7  and  C_9
REMARK    6  A    between atoms: C_9  and  N_10
REMARK    7  A    between atoms: C_11  and  C_12
REMARK    8  A    between atoms: C_18  and  C_19
REMARK                            x       y       z     vdW  Elec       q    Type
REMARK                         _______ _______ _______ _____ _____    ______ ____
ROOT
ATOM      1  N   UNL     1      38.128   0.533  14.062  0.00  0.00    +0.000 N 
ATOM      2  C   UNL     1      38.570  -0.679  14.431  0.00  0.00    +0.000 A 
ATOM      3  C   UNL     1      37.726  -1.150  15.455  0.00  0.00    +0.000 A 
ATOM      4  C   UNL     1      36.776  -0.196  15.690  0.00  0.00    +0.000 A 
ATOM      5  C   UNL     1      35.714  -0.167  16.587  0.00  0.00    +0.000 A 
ATOM      6  C   UNL     1      34.919   0.958  16.572  0.00  0.00    +0.000 A 
ATOM      7  C   UNL     1      35.155   2.015  15.713  0.00  0.00    +0.000 A 
ATOM      8  C   UNL     1      34.368   3.151  15.687  0.00  0.00    +0.000 A 
ATOM      9  C   UNL     1      34.587   4.216  14.838  0.00  0.00    +0.000 A 
ATOM     10  C   UNL     1      35.652   4.147  13.964  0.00  0.00    +0.000 A 
ATOM     11  C   UNL     1      36.457   3.027  13.965  0.00  0.00    +0.000 A 
ATOM     12  C   UNL     1      36.224   1.952  14.831  0.00  0.00    +0.000 A 
ATOM     13  C   UNL     1      37.033   0.842  14.823  0.00  0.00    +0.000 A 
ENDROOT
BRANCH   2  14
ATOM     14  C   UNL     1      39.724  -1.468  14.036  0.00  0.00    +0.000 A 
ATOM     15  C   UNL     1      39.641  -2.365  12.964  0.00  0.00    +0.000 A 
ATOM     16  C   UNL     1      40.687  -3.124  12.528  0.00  0.00    +0.000 A 
ATOM     17  C   UNL     1      41.898  -3.017  13.161  0.00  0.00    +0.000 A 
ATOM     18  C   UNL     1      42.051  -2.153  14.225  0.00  0.00    +0.000 A 
ATOM     19  C   UNL     1      40.955  -1.422  14.607  0.00  0.00    +0.000 A 
ENDBRANCH   2  14
BRANCH   3  20
ATOM     20  C   UNL     1      37.860  -2.425  16.125  0.00  0.00    +0.000 A 
ATOM     21  C   UNL     1      38.635  -2.581  17.269  0.00  0.00    +0.000 A 
ATOM     22  C   UNL     1      38.756  -3.806  17.884  0.00  0.00    +0.000 A 
ATOM     23  C   UNL     1      38.104  -4.914  17.368  0.00  0.00    +0.000 A 
ATOM     24  C   UNL     1      37.342  -4.779  16.248  0.00  0.00    +0.000 A 
ATOM     25  C   UNL     1      37.236  -3.558  15.656  0.00  0.00    +0.000 A 
ENDBRANCH   3  20
BRANCH   1  26
ATOM     26  C   UNL     1      38.565   1.390  13.024  0.00  0.00    +0.000 C 
BRANCH  26  27
ATOM     27  C   UNL     1      40.044   1.992  13.437  0.00  0.00    +0.000 C 
ATOM     28  O   UNL     1      40.729   1.436  12.188  0.00  0.00    +0.000 OA
BRANCH  27  29
ATOM     29  C   UNL     1      39.818   3.484  12.818  0.00  0.00    +0.000 C 
BRANCH  29  30
ATOM     30  N   UNL     1      40.417   4.425  13.669  0.00  0.00    +0.000 NA
BRANCH  30  32
ATOM     31  C   UNL     1      42.080   6.184  14.070  0.00  0.00    +0.000 C 
ATOM     32  C   UNL     1      41.741   4.845  13.438  0.00  0.00    +0.000 C 
ENDBRANCH  30  32
BRANCH  30  33
ATOM     33  C   UNL     1      39.578   5.254  14.452  0.00  0.00    +0.000 C 
ATOM     34  C   UNL     1      39.176   4.642  15.760  0.00  0.00    +0.000 C 
ENDBRANCH  30  33
ENDBRANCH  29  30
ENDBRANCH  27  29
ENDBRANCH  26  27
ENDBRANCH   1  26
TORSDOF 8
ENDMDL
MODEL 3
REMARK VINA RESULT:      -6.5     27.547     31.403
REMARK  Name = 
REMARK  8 active torsions:
REMARK  status: ('A' for Active; 'I' for Inactive)
REMARK    1  A    between atoms: C_2  and  N_3
REMARK    2  A    between atoms: N_3  and  C_4
REMARK    3  A    between atoms: N_3  and  C_6
REMARK    4  A    between atoms: C_6  and  C_7
REMARK    5  A    between atoms: C_7  and  C_9
REMARK    6  A    between atoms: C_9  and  N_10
REMARK    7  A    between atoms: C_11  and  C_12
REMARK    8  A    between atoms: C_18  and  C_19
REMARK                            x       y       z     vdW  Elec       q    Type
REMARK                         _______ _______ _______ _____ _____    ______ ____
ROOT
ATOM      1  N   UNL     1      25.342  16.572  35.877  0.00  0.00    +0.000 N 
ATOM      2  C   UNL     1      25.514  16.603  37.207  0.00  0.00    +0.000 A 
ATOM      3  C   UNL     1      25.149  17.886  37.658  0.00  0.00    +0.000 A 
ATOM      4  C   UNL     1      24.759  18.619  36.572  0.00  0.00    +0.000 A 
ATOM      5  C   UNL     1      24.306  19.930  36.470  0.00  0.00    +0.000 A 
ATOM      6  C   UNL     1      23.981  20.377  35.208  0.00  0.00    +0.000 A 
ATOM      7  C   UNL     1      24.096  19.575  34.089  0.00  0.00    +0.000 A 
ATOM      8  C   UNL     1      23.775  20.010  32.817  0.00  0.00    +0.000 A 
ATOM      9  C   UNL     1      23.883  19.224  31.688  0.00  0.00    +0.000 A 
ATOM     10  C   UNL     1      24.338  17.930  31.834  0.00  0.00    +0.000 A 
ATOM     11  C   UNL     1      24.666  17.465  33.090  0.00  0.00    +0.000 A 
ATOM     12  C   UNL     1      24.552  18.272  34.228  0.00  0.00    +0.000 A 
ATOM     13  C   UNL     1      24.883  17.797  35.474  0.00  0.00    +0.000 A 
ENDROOT
BRANCH   2  14
ATOM     14  C   UNL     1      26.048  15.638  38.153  0.00  0.00    +0.000 A 
ATOM     15  C   UNL     1      27.405  15.654  38.498  0.00  0.00    +0.000 A 
ATOM     16  C   UNL     1      27.970  14.791  39.390  0.00  0.00    +0.000 A 
ATOM     17  C   UNL     1      27.183  13.847  39.996  0.00  0.00    +0.000 A 
ATOM     18  C   UNL     1      25.837  13.775  39.702  0.00  0.00    +0.000 A 
ATOM     19  C   UNL     1      25.339  14.676  38.796  0.00  0.00    +0.000 A 
ENDBRANCH   2  14
BRANCH   3  20
ATOM     20  C   UNL     1      25.187  18.328  39.035  0.00  0.00    +0.000 A 
ATOM     21  C   UNL     1      24.141  18.086  39.918  0.00  0.00    +0.000 A 
ATOM     22  C   UNL     1      24.195  18.526  41.221  0.00  0.00    +0.000 A 
ATOM     23  C   UNL     1      25.300  19.224  41.677  0.00  0.00    +0.000 A 
ATOM     24  C   UNL     1      26.333  19.471  40.826  0.00  0.00    +0.000 A 
ATOM     25  C   UNL     1      26.259  19.026  39.541  0.00  0.00    +0.000 A 
ENDBRANCH   3  20
BRANCH   1  26
ATOM     26  C   UNL     1      25.480  15.503  34.961  0.00  0.00    +0.000 C 
BRANCH  26  27
ATOM     27  C   UNL     1      27.032  14.952  35.036  0.00  0.00    +0.000 C 
ATOM     28  O   UNL     1      26.743  13.723  34.174  0.00  0.00    +0.000 OA
BRANCH  27  29
ATOM     29  C   UNL     1      27.610  15.851  33.804  0.00  0.00    +0.000 C 
BRANCH  29  30
ATOM     30  N   UNL     1      28.636  16.678  34.285  0.00  0.00    +0.000 NA
BRANCH  30  32
ATOM     31  C   UNL     1      28.575  18.402  36.029  0.00  0.00    +0.000 C 
ATOM     32  C   UNL     1      28.376  18.033  34.570  0.00  0.00    +0.000 C 
ENDBRANCH  30  32
BRANCH  30  33
ATOM     33  C   UNL     1      29.763  16.070  34.889  0.00  0.00    +0.000 C 
ATOM     34  C   UNL     1      31.052  16.346  34.176  0.00  0.00    +0.000 C 
ENDBRANCH  30  33
ENDBRANCH  29  30
ENDBRANCH  27  29
ENDBRANCH  26  27
ENDBRANCH   1  26
TORSDOF 8
ENDMDL
MODEL 4
REMARK VINA RESULT:      -6.2     27.714     31.019
REMARK  Name = 
REMARK  8 active torsions:
REMARK  status: ('A' for Active; 'I' for Inactive)
REMARK    1  A    between atoms: C_2  and  N_3
REMARK    2  A    between atoms: N_3  and  C_4
REMARK    3  A    between atoms: N_3  and  C_6
REMARK    4  A    between atoms: C_6  and  C_7
REMARK    5  A    between atoms: C_7  and  C_9
REMARK    6  A    between atoms: C_9  and  N_10
REMARK    7  A    between atoms: C_11  and  C_12
REMARK    8  A    between atoms: C_18  and  C_19
REMARK                            x       y       z     vdW  Elec       q    Type
REMARK                         _______ _______ _______ _____ _____    ______ ____
ROOT
ATOM      1  N   UNL     1      27.889  15.676  38.519  0.00  0.00    +0.000 N 
ATOM      2  C   UNL     1      27.838  15.790  37.184  0.00  0.00    +0.000 A 
ATOM      3  C   UNL     1      26.496  15.630  36.789  0.00  0.00    +0.000 A 
ATOM      4  C   UNL     1      25.749  15.415  37.914  0.00  0.00    +0.000 A 
ATOM      5  C   UNL     1      24.384  15.204  38.078  0.00  0.00    +0.000 A 
ATOM      6  C   UNL     1      23.935  15.024  39.367  0.00  0.00    +0.000 A 
ATOM      7  C   UNL     1      24.786  15.049  40.455  0.00  0.00    +0.000 A 
ATOM      8  C   UNL     1      24.351  14.868  41.755  0.00  0.00    +0.000 A 
ATOM      9  C   UNL     1      25.185  14.889  42.853  0.00  0.00    +0.000 A 
ATOM     10  C   UNL     1      26.533  15.101  42.646  0.00  0.00    +0.000 A 
ATOM     11  C   UNL     1      27.000  15.284  41.361  0.00  0.00    +0.000 A 
ATOM     12  C   UNL     1      26.143  15.261  40.255  0.00  0.00    +0.000 A 
ATOM     13  C   UNL     1      26.620  15.445  38.980  0.00  0.00    +0.000 A 
ENDROOT
BRANCH   2  14
ATOM     14  C   UNL     1      28.866  15.953  36.170  0.00  0.00    +0.000 A 
ATOM     15  C   UNL     1      29.085  17.201  35.572  0.00  0.00    +0.000 A 
ATOM     16  C   UNL     1      30.043  17.430  34.628  0.00  0.00    +0.000 A 
ATOM     17  C   UNL     1      30.848  16.395  34.228  0.00  0.00    +0.000 A 
ATOM     18  C   UNL     1      30.685  15.139  34.776  0.00  0.00    +0.000 A 
ATOM     19  C   UNL     1      29.703  14.984  35.720  0.00  0.00    +0.000 A 
ENDBRANCH   2  14
BRANCH   3  20
ATOM     20  C   UNL     1      26.014  15.687  35.426  0.00  0.00    +0.000 A 
ATOM     21  C   UNL     1      26.097  14.597  34.567  0.00  0.00    +0.000 A 
ATOM     22  C   UNL     1      25.642  14.679  33.271  0.00  0.00    +0.000 A 
ATOM     23  C   UNL     1      25.091  15.858  32.797  0.00  0.00    +0.000 A 
ATOM     24  C   UNL     1      25.003  16.935  33.625  0.00  0.00    +0.000 A 
ATOM     25  C   UNL     1      25.459  16.832  34.904  0.00  0.00    +0.000 A 
ENDBRANCH   3  20
BRANCH   1  26
ATOM     26  C   UNL     1      28.974  15.842  39.412  0.00  0.00    +0.000 C 
BRANCH  26  27
ATOM     27  C   UNL     1      30.023  14.588  39.191  0.00  0.00    +0.000 C 
ATOM     28  O   UNL     1      31.251  15.421  39.557  0.00  0.00    +0.000 OA
BRANCH  27  29
ATOM     29  C   UNL     1      29.851  13.937  40.677  0.00  0.00    +0.000 C 
BRANCH  29  30
ATOM     30  N   UNL     1      29.635  12.557  40.547  0.00  0.00    +0.000 NA
BRANCH  30  32
ATOM     31  C   UNL     1      30.778  10.386  40.511  0.00  0.00    +0.000 C 
ATOM     32  C   UNL     1      30.580  11.753  39.880  0.00  0.00    +0.000 C 
ENDBRANCH  30  32
BRANCH  30  33
ATOM     33  C   UNL     1      28.733  11.930  41.440  0.00  0.00    +0.000 C 
ATOM     34  C   UNL     1      27.348  11.776  40.890  0.00  0.00    +0.000 C 
ENDBRANCH  30  33
ENDBRANCH  29  30
ENDBRANCH  27  29
ENDBRANCH  26  27
ENDBRANCH   1  26
TORSDOF 8
ENDMDL
MODEL 5
REMARK VINA RESULT:      -6.1      5.245     10.060
REMARK  Name = 
REMARK  8 active torsions:
REMARK  status: ('A' for Active; 'I' for Inactive)
REMARK    1  A    between atoms: C_2  and  N_3
REMARK    2  A    between atoms: N_3  and  C_4
REMARK    3  A    between atoms: N_3  and  C_6
REMARK    4  A    between atoms: C_6  and  C_7
REMARK    5  A    between atoms: C_7  and  C_9
REMARK    6  A    between atoms: C_9  and  N_10
REMARK    7  A    between atoms: C_11  and  C_12
REMARK    8  A    between atoms: C_18  and  C_19
REMARK                            x       y       z     vdW  Elec       q    Type
REMARK                         _______ _______ _______ _____ _____    ______ ____
ROOT
ATOM      1  N   UNL     1      37.407   7.031  15.367  0.00  0.00    +0.000 N 
ATOM      2  C   UNL     1      36.651   7.800  14.569  0.00  0.00    +0.000 A 
ATOM      3  C   UNL     1      36.363   8.989  15.266  0.00  0.00    +0.000 A 
ATOM      4  C   UNL     1      36.959   8.913  16.494  0.00  0.00    +0.000 A 
ATOM      5  C   UNL     1      36.988   9.814  17.553  0.00  0.00    +0.000 A 
ATOM      6  C   UNL     1      37.696   9.434  18.672  0.00  0.00    +0.000 A 
ATOM      7  C   UNL     1      38.351   8.220  18.753  0.00  0.00    +0.000 A 
ATOM      8  C   UNL     1      39.065   7.824  19.868  0.00  0.00    +0.000 A 
ATOM      9  C   UNL     1      39.724   6.616  19.968  0.00  0.00    +0.000 A 
ATOM     10  C   UNL     1      39.670   5.751  18.894  0.00  0.00    +0.000 A 
ATOM     11  C   UNL     1      38.966   6.116  17.766  0.00  0.00    +0.000 A 
ATOM     12  C   UNL     1      38.301   7.344  17.677  0.00  0.00    +0.000 A 
ATOM     13  C   UNL     1      37.603   7.696  16.547  0.00  0.00    +0.000 A 
ENDROOT
BRANCH   2  14
ATOM     14  C   UNL     1      36.068   7.581  13.257  0.00  0.00    +0.000 A 
ATOM     15  C   UNL     1      34.739   7.158  13.129  0.00  0.00    +0.000 A 
ATOM     16  C   UNL     1      34.122   6.950  11.930  0.00  0.00    +0.000 A 
ATOM     17  C   UNL     1      34.824   7.163  10.772  0.00  0.00    +0.000 A 
ATOM     18  C   UNL     1      36.138   7.580  10.825  0.00  0.00    +0.000 A 
ATOM     19  C   UNL     1      36.692   7.769  12.066  0.00  0.00    +0.000 A 
ENDBRANCH   2  14
BRANCH   3  20
ATOM     20  C   UNL     1      35.573  10.087  14.752  0.00  0.00    +0.000 A 
ATOM     21  C   UNL     1      36.093  11.017  13.859  0.00  0.00    +0.000 A 
ATOM     22  C   UNL     1      35.325  12.059  13.392  0.00  0.00    +0.000 A 
ATOM     23  C   UNL     1      34.012  12.200  13.808  0.00  0.00    +0.000 A 
ATOM     24  C   UNL     1      33.487  11.299  14.682  0.00  0.00    +0.000 A 
ATOM     25  C   UNL     1      34.264  10.275  15.132  0.00  0.00    +0.000 A 
ENDBRANCH   3  20
BRANCH   1  26
ATOM     26  C   UNL     1      38.032   5.787  15.115  0.00  0.00    +0.000 C 
BRANCH  26  27
ATOM     27  C   UNL     1      36.874   4.612  15.130  0.00  0.00    +0.000 C 
ATOM     28  O   UNL     1      37.028   4.302  13.641  0.00  0.00    +0.000 OA
BRANCH  27  29
ATOM     29  C   UNL     1      37.844   3.398  15.624  0.00  0.00    +0.000 C 
BRANCH  29  30
ATOM     30  N   UNL     1      37.063   2.256  15.855  0.00  0.00    +0.000 NA
BRANCH  30  32
ATOM     31  C   UNL     1      38.660   1.099  14.395  0.00  0.00    +0.000 C 
ATOM     32  C   UNL     1      37.428   1.023  15.281  0.00  0.00    +0.000 C 
ENDBRANCH  30  32
BRANCH  30  33
ATOM     33  C   UNL     1      36.204   2.243  16.980  0.00  0.00    +0.000 C 
ATOM     34  C   UNL     1      34.897   1.553  16.734  0.00  0.00    +0.000 C 
ENDBRANCH  30  33
ENDBRANCH  29  30
ENDBRANCH  27  29
ENDBRANCH  26  27
ENDBRANCH   1  26
TORSDOF 8
ENDMDL
MODEL 6
REMARK VINA RESULT:      -5.7     25.865     29.739
REMARK  Name = 
REMARK  8 active torsions:
REMARK  status: ('A' for Active; 'I' for Inactive)
REMARK    1  A    between atoms: C_2  and  N_3
REMARK    2  A    between atoms: N_3  and  C_4
REMARK    3  A    between atoms: N_3  and  C_6
REMARK    4  A    between atoms: C_6  and  C_7
REMARK    5  A    between atoms: C_7  and  C_9
REMARK    6  A    between atoms: C_9  and  N_10
REMARK    7  A    between atoms: C_11  and  C_12
REMARK    8  A    between atoms: C_18  and  C_19
REMARK                            x       y       z     vdW  Elec       q    Type
REMARK                         _______ _______ _______ _____ _____    ______ ____
ROOT
ATOM      1  N   UNL     1      20.151 -15.188  30.326  0.00  0.00    +0.000 N 
ATOM      2  C   UNL     1      19.688 -15.072  29.073  0.00  0.00    +0.000 A 
ATOM      3  C   UNL     1      18.318 -14.754  29.148  0.00  0.00    +0.000 A 
ATOM      4  C   UNL     1      17.974 -14.685  30.469  0.00  0.00    +0.000 A 
ATOM      5  C   UNL     1      16.758 -14.402  31.083  0.00  0.00    +0.000 A 
ATOM      6  C   UNL     1      16.743 -14.405  32.461  0.00  0.00    +0.000 A 
ATOM      7  C   UNL     1      17.873 -14.674  33.210  0.00  0.00    +0.000 A 
ATOM      8  C   UNL     1      17.874 -14.681  34.592  0.00  0.00    +0.000 A 
ATOM      9  C   UNL     1      18.990 -14.948  35.357  0.00  0.00    +0.000 A 
ATOM     10  C   UNL     1      20.176 -15.224  34.708  0.00  0.00    +0.000 A 
ATOM     11  C   UNL     1      20.210 -15.224  33.329  0.00  0.00    +0.000 A 
ATOM     12  C   UNL     1      19.069 -14.952  32.564  0.00  0.00    +0.000 A 
ATOM     13  C   UNL     1      19.115 -14.956  31.191  0.00  0.00    +0.000 A 
ENDROOT
BRANCH   2  14
ATOM     14  C   UNL     1      20.301 -15.287  27.773  0.00  0.00    +0.000 A 
ATOM     15  C   UNL     1      20.995 -14.253  27.133  0.00  0.00    +0.000 A 
ATOM     16  C   UNL     1      21.610 -14.388  25.923  0.00  0.00    +0.000 A 
ATOM     17  C   UNL     1      21.556 -15.597  25.279  0.00  0.00    +0.000 A 
ATOM     18  C   UNL     1      20.888 -16.660  25.853  0.00  0.00    +0.000 A 
ATOM     19  C   UNL     1      20.295 -16.449  27.072  0.00  0.00    +0.000 A 
ENDBRANCH   2  14
BRANCH   3  20
ATOM     20  C   UNL     1      17.448 -14.540  28.013  0.00  0.00    +0.000 A 
ATOM     21  C   UNL     1      16.685 -15.564  27.463  0.00  0.00    +0.000 A 
ATOM     22  C   UNL     1      15.872 -15.339  26.375  0.00  0.00    +0.000 A 
ATOM     23  C   UNL     1      15.801 -14.079  25.806  0.00  0.00    +0.000 A 
ATOM     24  C   UNL     1      16.541 -13.065  26.331  0.00  0.00    +0.000 A 
ATOM     25  C   UNL     1      17.339 -13.309  27.407  0.00  0.00    +0.000 A 
ENDBRANCH   3  20
BRANCH   1  26
ATOM     26  C   UNL     1      21.465 -15.408  30.800  0.00  0.00    +0.000 C 
BRANCH  26  27
ATOM     27  C   UNL     1      21.981 -16.871  30.238  0.00  0.00    +0.000 C 
ATOM     28  O   UNL     1      23.461 -16.515  30.380  0.00  0.00    +0.000 OA
BRANCH  27  29
ATOM     29  C   UNL     1      21.893 -17.660  31.663  0.00  0.00    +0.000 C 
BRANCH  29  30
ATOM     30  N   UNL     1      20.795 -18.532  31.632  0.00  0.00    +0.000 NA
BRANCH  30  32
ATOM     31  C   UNL     1      18.691 -18.510  30.371  0.00  0.00    +0.000 C 
ATOM     32  C   UNL     1      20.172 -18.842  30.407  0.00  0.00    +0.000 C 
ENDBRANCH  30  32
BRANCH  30  33
ATOM     33  C   UNL     1      20.606 -19.416  32.722  0.00  0.00    +0.000 C 
ATOM     34  C   UNL     1      19.774 -18.841  33.828  0.00  0.00    +0.000 C 
ENDBRANCH  30  33
ENDBRANCH  29  30
ENDBRANCH  27  29
ENDBRANCH  26  27
ENDBRANCH   1  26
TORSDOF 8
ENDMDL
MODEL 7
REMARK VINA RESULT:      -5.7     27.709     31.097
REMARK  Name = 
REMARK  8 active torsions:
REMARK  status: ('A' for Active; 'I' for Inactive)
REMARK    1  A    between atoms: C_2  and  N_3
REMARK    2  A    between atoms: N_3  and  C_4
REMARK    3  A    between atoms: N_3  and  C_6
REMARK    4  A    between atoms: C_6  and  C_7
REMARK    5  A    between atoms: C_7  and  C_9
REMARK    6  A    between atoms: C_9  and  N_10
REMARK    7  A    between atoms: C_11  and  C_12
REMARK    8  A    between atoms: C_18  and  C_19
REMARK                            x       y       z     vdW  Elec       q    Type
REMARK                         _______ _______ _______ _____ _____    ______ ____
ROOT
ATOM      1  N   UNL     1      28.975  15.543  38.115  0.00  0.00    +0.000 N 
ATOM      2  C   UNL     1      27.794  15.651  37.489  0.00  0.00    +0.000 A 
ATOM      3  C   UNL     1      28.041  15.653  36.103  0.00  0.00    +0.000 A 
ATOM      4  C   UNL     1      29.390  15.547  35.915  0.00  0.00    +0.000 A 
ATOM      5  C   UNL     1      30.150  15.499  34.751  0.00  0.00    +0.000 A 
ATOM      6  C   UNL     1      31.514  15.381  34.904  0.00  0.00    +0.000 A 
ATOM      7  C   UNL     1      32.113  15.312  36.148  0.00  0.00    +0.000 A 
ATOM      8  C   UNL     1      33.479  15.193  36.318  0.00  0.00    +0.000 A 
ATOM      9  C   UNL     1      34.095  15.124  37.550  0.00  0.00    +0.000 A 
ATOM     10  C   UNL     1      33.305  15.175  38.680  0.00  0.00    +0.000 A 
ATOM     11  C   UNL     1      31.937  15.293  38.545  0.00  0.00    +0.000 A 
ATOM     12  C   UNL     1      31.324  15.362  37.289  0.00  0.00    +0.000 A 
ATOM     13  C   UNL     1      29.961  15.480  37.167  0.00  0.00    +0.000 A 
ENDROOT
BRANCH   2  14
ATOM     14  C   UNL     1      26.436  15.835  37.973  0.00  0.00    +0.000 A 
ATOM     15  C   UNL     1      25.608  14.730  38.207  0.00  0.00    +0.000 A 
ATOM     16  C   UNL     1      24.331  14.827  38.677  0.00  0.00    +0.000 A 
ATOM     17  C   UNL     1      23.810  16.067  38.943  0.00  0.00    +0.000 A 
ATOM     18  C   UNL     1      24.572  17.198  38.735  0.00  0.00    +0.000 A 
ATOM     19  C   UNL     1      25.847  17.023  38.261  0.00  0.00    +0.000 A 
ENDBRANCH   2  14
BRANCH   3  20
ATOM     20  C   UNL     1      27.027  15.750  35.075  0.00  0.00    +0.000 A 
ATOM     21  C   UNL     1      26.548  16.975  34.622  0.00  0.00    +0.000 A 
ATOM     22  C   UNL     1      25.576  17.042  33.651  0.00  0.00    +0.000 A 
ATOM     23  C   UNL     1      25.052  15.882  33.105  0.00  0.00    +0.000 A 
ATOM     24  C   UNL     1      25.509  14.675  33.537  0.00  0.00    +0.000 A 
ATOM     25  C   UNL     1      26.472  14.631  34.499  0.00  0.00    +0.000 A 
ENDBRANCH   3  20
BRANCH   1  26
ATOM     26  C   UNL     1      29.273  15.409  39.491  0.00  0.00    +0.000 C 
BRANCH  26  27
ATOM     27  C   UNL     1      28.829  13.895  39.973  0.00  0.00    +0.000 C 
ATOM     28  O   UNL     1      30.151  13.627  40.691  0.00  0.00    +0.000 OA
BRANCH  27  29
ATOM     29  C   UNL     1      28.031  14.354  41.319  0.00  0.00    +0.000 C 
BRANCH  29  30
ATOM     30  N   UNL     1      26.756  13.767  41.316  0.00  0.00    +0.000 NA
BRANCH  30  32
ATOM     31  C   UNL     1      26.215  11.488  42.046  0.00  0.00    +0.000 C 
ATOM     32  C   UNL     1      26.598  12.426  40.914  0.00  0.00    +0.000 C 
ENDBRANCH  30  32
BRANCH  30  33
ATOM     33  C   UNL     1      25.743  14.353  42.111  0.00  0.00    +0.000 C 
ATOM     34  C   UNL     1      25.746  15.851  42.085  0.00  0.00    +0.000 C 
ENDBRANCH  30  33
ENDBRANCH  29  30
ENDBRANCH  27  29
ENDBRANCH  26  27
ENDBRANCH   1  26
TORSDOF 8
ENDMDL
MODEL 8
REMARK VINA RESULT:      -5.6     20.060     24.899
REMARK  Name = 
REMARK  8 active torsions:
REMARK  status: ('A' for Active; 'I' for Inactive)
REMARK    1  A    between atoms: C_2  and  N_3
REMARK    2  A    between atoms: N_3  and  C_4
REMARK    3  A    between atoms: N_3  and  C_6
REMARK    4  A    between atoms: C_6  and  C_7
REMARK    5  A    between atoms: C_7  and  C_9
REMARK    6  A    between atoms: C_9  and  N_10
REMARK    7  A    between atoms: C_11  and  C_12
REMARK    8  A    between atoms: C_18  and  C_19
REMARK                            x       y       z     vdW  Elec       q    Type
REMARK                         _______ _______ _______ _____ _____    ______ ____
ROOT
ATOM      1  N   UNL     1      31.160 -17.471  28.443  0.00  0.00    +0.000 N 
ATOM      2  C   UNL     1      31.118 -17.960  29.691  0.00  0.00    +0.000 A 
ATOM      3  C   UNL     1      31.783 -17.047  30.533  0.00  0.00    +0.000 A 
ATOM      4  C   UNL     1      32.224 -16.008  29.762  0.00  0.00    +0.000 A 
ATOM      5  C   UNL     1      32.926 -14.855  30.098  0.00  0.00    +0.000 A 
ATOM      6  C   UNL     1      33.218 -13.985  29.071  0.00  0.00    +0.000 A 
ATOM      7  C   UNL     1      32.840 -14.232  27.765  0.00  0.00    +0.000 A 
ATOM      8  C   UNL     1      33.127 -13.370  26.724  0.00  0.00    +0.000 A 
ATOM      9  C   UNL     1      32.759 -13.600  25.415  0.00  0.00    +0.000 A 
ATOM     10  C   UNL     1      32.064 -14.756  25.124  0.00  0.00    +0.000 A 
ATOM     11  C   UNL     1      31.761 -15.638  26.141  0.00  0.00    +0.000 A 
ATOM     12  C   UNL     1      32.141 -15.393  27.466  0.00  0.00    +0.000 A 
ATOM     13  C   UNL     1      31.834 -16.279  28.469  0.00  0.00    +0.000 A 
ENDROOT
BRANCH   2  14
ATOM     14  C   UNL     1      30.615 -19.206  30.244  0.00  0.00    +0.000 A 
ATOM     15  C   UNL     1      29.266 -19.336  30.596  0.00  0.00    +0.000 A 
ATOM     16  C   UNL     1      28.722 -20.480  31.102  0.00  0.00    +0.000 A 
ATOM     17  C   UNL     1      29.524 -21.576  31.285  0.00  0.00    +0.000 A 
ATOM     18  C   UNL     1      30.864 -21.517  30.959  0.00  0.00    +0.000 A 
ATOM     19  C   UNL     1      31.340 -20.334  30.455  0.00  0.00    +0.000 A 
ENDBRANCH   2  14
BRANCH   3  20
ATOM     20  C   UNL     1      31.956 -17.203  31.961  0.00  0.00    +0.000 A 
ATOM     21  C   UNL     1      33.139 -17.679  32.514  0.00  0.00    +0.000 A 
ATOM     22  C   UNL     1      33.276 -17.828  33.875  0.00  0.00    +0.000 A 
ATOM     23  C   UNL     1      32.229 -17.507  34.723  0.00  0.00    +0.000 A 
ATOM     24  C   UNL     1      31.063 -17.041  34.197  0.00  0.00    +0.000 A 
ATOM     25  C   UNL     1      30.949 -16.900  32.848  0.00  0.00    +0.000 A 
ENDBRANCH   3  20
BRANCH   1  26
ATOM     26  C   UNL     1      30.570 -17.952  27.250  0.00  0.00    +0.000 C 
BRANCH  26  27
ATOM     27  C   UNL     1      28.955 -17.624  27.302  0.00  0.00    +0.000 C 
ATOM     28  O   UNL     1      28.876 -17.276  25.816  0.00  0.00    +0.000 OA
BRANCH  27  29
ATOM     29  C   UNL     1      28.445 -19.161  27.111  0.00  0.00    +0.000 C 
BRANCH  29  30
ATOM     30  N   UNL     1      27.108 -19.253  27.528  0.00  0.00    +0.000 NA
BRANCH  30  32
ATOM     31  C   UNL     1      27.409 -21.665  27.859  0.00  0.00    +0.000 C 
ATOM     32  C   UNL     1      26.468 -20.507  27.577  0.00  0.00    +0.000 C 
ENDBRANCH  30  32
BRANCH  30  33
ATOM     33  C   UNL     1      26.568 -18.194  28.297  0.00  0.00    +0.000 C 
ATOM     34  C   UNL     1      25.782 -18.653  29.487  0.00  0.00    +0.000 C 
ENDBRANCH  30  33
ENDBRANCH  29  30
ENDBRANCH  27  29
ENDBRANCH  26  27
ENDBRANCH   1  26
TORSDOF 8
ENDMDL
MODEL 9
REMARK VINA RESULT:      -5.6     29.340     33.460
REMARK  Name = 
REMARK  8 active torsions:
REMARK  status: ('A' for Active; 'I' for Inactive)
REMARK    1  A    between atoms: C_2  and  N_3
REMARK    2  A    between atoms: N_3  and  C_4
REMARK    3  A    between atoms: N_3  and  C_6
REMARK    4  A    between atoms: C_6  and  C_7
REMARK    5  A    between atoms: C_7  and  C_9
REMARK    6  A    between atoms: C_9  and  N_10
REMARK    7  A    between atoms: C_11  and  C_12
REMARK    8  A    between atoms: C_18  and  C_19
REMARK                            x       y       z     vdW  Elec       q    Type
REMARK                         _______ _______ _______ _____ _____    ______ ____
ROOT
ATOM      1  N   UNL     1      26.752 -13.542  41.083  0.00  0.00    +0.000 N 
ATOM      2  C   UNL     1      27.087 -14.367  42.087  0.00  0.00    +0.000 A 
ATOM      3  C   UNL     1      27.940 -13.660  42.957  0.00  0.00    +0.000 A 
ATOM      4  C   UNL     1      28.107 -12.401  42.451  0.00  0.00    +0.000 A 
ATOM      5  C   UNL     1      28.841 -11.318  42.922  0.00  0.00    +0.000 A 
ATOM      6  C   UNL     1      28.797 -10.164  42.170  0.00  0.00    +0.000 A 
ATOM      7  C   UNL     1      28.065 -10.073  41.002  0.00  0.00    +0.000 A 
ATOM      8  C   UNL     1      28.012  -8.923  40.237  0.00  0.00    +0.000 A 
ATOM      9  C   UNL     1      27.287  -8.813  39.068  0.00  0.00    +0.000 A 
ATOM     10  C   UNL     1      26.573  -9.912  38.635  0.00  0.00    +0.000 A 
ATOM     11  C   UNL     1      26.605 -11.075  39.377  0.00  0.00    +0.000 A 
ATOM     12  C   UNL     1      27.344 -11.174  40.561  0.00  0.00    +0.000 A 
ATOM     13  C   UNL     1      27.368 -12.338  41.291  0.00  0.00    +0.000 A 
ENDROOT
BRANCH   2  14
ATOM     14  C   UNL     1      26.804 -15.768  42.346  0.00  0.00    +0.000 A 
ATOM     15  C   UNL     1      27.711 -16.762  41.958  0.00  0.00    +0.000 A 
ATOM     16  C   UNL     1      27.518 -18.093  42.184  0.00  0.00    +0.000 A 
ATOM     17  C   UNL     1      26.379 -18.503  42.827  0.00  0.00    +0.000 A 
ATOM     18  C   UNL     1      25.443 -17.576  43.237  0.00  0.00    +0.000 A 
ATOM     19  C   UNL     1      25.704 -16.255  42.975  0.00  0.00    +0.000 A 
ENDBRANCH   2  14
BRANCH   3  20
ATOM     20  C   UNL     1      28.523 -14.193  44.168  0.00  0.00    +0.000 A 
ATOM     21  C   UNL     1      27.829 -14.221  45.372  0.00  0.00    +0.000 A 
ATOM     22  C   UNL     1      28.409 -14.724  46.515  0.00  0.00    +0.000 A 
ATOM     23  C   UNL     1      29.704 -15.212  46.484  0.00  0.00    +0.000 A 
ATOM     24  C   UNL     1      30.399 -15.191  45.314  0.00  0.00    +0.000 A 
ATOM     25  C   UNL     1      29.806 -14.690  44.195  0.00  0.00    +0.000 A 
ENDBRANCH   3  20
BRANCH   1  26
ATOM     26  C   UNL     1      25.856 -13.731  40.004  0.00  0.00    +0.000 C 
BRANCH  26  27
ATOM     27  C   UNL     1      24.320 -13.760  40.604  0.00  0.00    +0.000 C 
ATOM     28  O   UNL     1      23.905 -12.481  39.876  0.00  0.00    +0.000 OA
BRANCH  27  29
ATOM     29  C   UNL     1      23.700 -14.765  39.480  0.00  0.00    +0.000 C 
BRANCH  29  30
ATOM     30  N   UNL     1      22.435 -15.199  39.905  0.00  0.00    +0.000 NA
BRANCH  30  32
ATOM     31  C   UNL     1      22.235 -17.051  41.502  0.00  0.00    +0.000 C 
ATOM     32  C   UNL     1      22.226 -15.553  41.253  0.00  0.00    +0.000 C 
ENDBRANCH  30  32
BRANCH  30  33
ATOM     33  C   UNL     1      21.307 -14.861  39.119  0.00  0.00    +0.000 C 
ATOM     34  C   UNL     1      21.646 -14.099  37.874  0.00  0.00    +0.000 C 
ENDBRANCH  30  33
ENDBRANCH  29  30
ENDBRANCH  27  29
ENDBRANCH  26  27
ENDBRANCH   1  26
TORSDOF 8
ENDMDL
MODEL 10
REMARK VINA RESULT:      -5.4      9.322     11.908
REMARK  Name = 
REMARK  8 active torsions:
REMARK  status: ('A' for Active; 'I' for Inactive)
REMARK    1  A    between atoms: C_2  and  N_3
REMARK    2  A    between atoms: N_3  and  C_4
REMARK    3  A    between atoms: N_3  and  C_6
REMARK    4  A    between atoms: C_6  and  C_7
REMARK    5  A    between atoms: C_7  and  C_9
REMARK    6  A    between atoms: C_9  and  N_10
REMARK    7  A    between atoms: C_11  and  C_12
REMARK    8  A    between atoms: C_18  and  C_19
REMARK                            x       y       z     vdW  Elec       q    Type
REMARK                         _______ _______ _______ _____ _____    ______ ____
ROOT
ATOM      1  N   UNL     1      42.193   6.593  19.125  0.00  0.00    +0.000 N 
ATOM      2  C   UNL     1      43.359   6.853  19.735  0.00  0.00    +0.000 A 
ATOM      3  C   UNL     1      44.345   6.983  18.739  0.00  0.00    +0.000 A 
ATOM      4  C   UNL     1      43.746   6.794  17.525  0.00  0.00    +0.000 A 
ATOM      5  C   UNL     1      44.266   6.822  16.235  0.00  0.00    +0.000 A 
ATOM      6  C   UNL     1      43.380   6.594  15.204  0.00  0.00    +0.000 A 
ATOM      7  C   UNL     1      42.039   6.349  15.425  0.00  0.00    +0.000 A 
ATOM      8  C   UNL     1      41.138   6.118  14.402  0.00  0.00    +0.000 A 
ATOM      9  C   UNL     1      39.796   5.871  14.603  0.00  0.00    +0.000 A 
ATOM     10  C   UNL     1      39.322   5.852  15.899  0.00  0.00    +0.000 A 
ATOM     11  C   UNL     1      40.194   6.079  16.943  0.00  0.00    +0.000 A 
ATOM     12  C   UNL     1      41.554   6.328  16.726  0.00  0.00    +0.000 A 
ATOM     13  C   UNL     1      42.413   6.553  17.774  0.00  0.00    +0.000 A 
ENDROOT
BRANCH   2  14
ATOM     14  C   UNL     1      43.742   6.928  21.134  0.00  0.00    +0.000 A 
ATOM     15  C   UNL     1      43.858   8.168  21.775  0.00  0.00    +0.000 A 
ATOM     16  C   UNL     1      44.195   8.313  23.089  0.00  0.00    +0.000 A 
ATOM     17  C   UNL     1      44.439   7.195  23.843  0.00  0.00    +0.000 A 
ATOM     18  C   UNL     1      44.343   5.941  23.274  0.00  0.00    +0.000 A 
ATOM     19  C   UNL     1      43.999   5.873  21.948  0.00  0.00    +0.000 A 
ENDBRANCH   2  14
BRANCH   3  20
ATOM     20  C   UNL     1      45.743   7.269  18.981  0.00  0.00    +0.000 A 
ATOM     21  C   UNL     1      46.250   8.563  18.944  0.00  0.00    +0.000 A 
ATOM     22  C   UNL     1      47.585   8.810  19.167  0.00  0.00    +0.000 A 
ATOM     23  C   UNL     1      48.453   7.764  19.433  0.00  0.00    +0.000 A 
ATOM     24  C   UNL     1      47.974   6.491  19.472  0.00  0.00    +0.000 A 
ATOM     25  C   UNL     1      46.649   6.269  19.249  0.00  0.00    +0.000 A 
ENDBRANCH   3  20
BRANCH   1  26
ATOM     26  C   UNL     1      40.889   6.463  19.658  0.00  0.00    +0.000 C 
BRANCH  26  27
ATOM     27  C   UNL     1      40.463   7.902  20.343  0.00  0.00    +0.000 C 
ATOM     28  O   UNL     1      40.598   8.678  19.033  0.00  0.00    +0.000 OA
BRANCH  27  29
ATOM     29  C   UNL     1      38.850   7.699  20.217  0.00  0.00    +0.000 C 
BRANCH  29  30
ATOM     30  N   UNL     1      38.239   8.958  20.116  0.00  0.00    +0.000 NA
BRANCH  30  32
ATOM     31  C   UNL     1      37.309   8.633  17.869  0.00  0.00    +0.000 C 
ATOM     32  C   UNL     1      37.112   9.132  19.290  0.00  0.00    +0.000 C 
ENDBRANCH  30  32
BRANCH  30  33
ATOM     33  C   UNL     1      38.467   9.902  21.146  0.00  0.00    +0.000 C 
ATOM     34  C   UNL     1      38.580  11.314  20.656  0.00  0.00    +0.000 C 
ENDBRANCH  30  33
ENDBRANCH  29  30
ENDBRANCH  27  29
ENDBRANCH  26  27
ENDBRANCH   1  26
TORSDOF 8
ENDMDL
