MODEL 1
REMARK VINA RESULT:      -6.9      0.000      0.000
REMARK  Name = 
REMARK  3 active torsions:
REMARK  status: ('A' for Active; 'I' for Inactive)
REMARK    1  A    between atoms: C_2  and  C_5
REMARK    2  A    between atoms: C_8  and  C_9
REMARK    3  A    between atoms: C_14  and  C_15
REMARK                            x       y       z     vdW  Elec       q    Type
REMARK                         _______ _______ _______ _____ _____    ______ ____
ROOT
ATOM      1  C   UNL     1      14.852  12.575  32.525  0.00  0.00    +0.000 A 
ATOM      2  C   UNL     1      15.321  11.368  32.971  0.00  0.00    +0.000 A 
ATOM      3  C   UNL     1      15.242  11.043  34.288  0.00  0.00    +0.000 A 
ATOM      4  C   UNL     1      14.685  11.892  35.240  0.00  0.00    +0.000 A 
ATOM      5  C   UNL     1      14.221  13.099  34.783  0.00  0.00    +0.000 A 
ATOM      6  C   UNL     1      14.289  13.464  33.421  0.00  0.00    +0.000 A 
ENDROOT
BRANCH   4   7
ATOM      7  C   UNL     1      14.594  11.487  36.673  0.00  0.00    +0.000 A 
ATOM      8  C   UNL     1      13.367  11.487  37.294  0.00  0.00    +0.000 A 
ATOM      9  S   UNL     1      13.689  10.894  38.846  0.00  0.00    +0.000 S 
ATOM     10  C   UNL     1      15.362  10.649  38.715  0.00  0.00    +0.000 A 
ATOM     11  N   UNL     1      16.344  10.116  39.682  0.00  0.00    +0.000 NA
ATOM     12  C   UNL     1      15.649  11.057  37.409  0.00  0.00    +0.000 A 
BRANCH  12  13
ATOM     13  C   UNL     1      17.069  10.999  36.956  0.00  0.00    +0.000 C 
ATOM     14  N   UNL     1      17.635   9.813  36.467  0.00  0.00    +0.000 NA
ATOM     15  O   UNL     1      17.791  12.015  36.990  0.00  0.00    +0.000 OA
ENDBRANCH  12  13
ENDBRANCH   4   7
BRANCH   1  17
ATOM     16  C   UNL     1      14.454  11.844  30.224  0.00  0.00    +0.000 C 
ATOM     17  C   UNL     1      14.957  12.940  31.082  0.00  0.00    +0.000 C 
ATOM     18  C   UNL     1      16.397  13.310  30.720  0.00  0.00    +0.000 C 
ATOM     19  C   UNL     1      14.051  14.181  30.927  0.00  0.00    +0.000 C 
ENDBRANCH   1  17
TORSDOF 3
ENDMDL
MODEL 2
REMARK VINA RESULT:      -6.8      2.101      2.512
REMARK  Name = 
REMARK  3 active torsions:
REMARK  status: ('A' for Active; 'I' for Inactive)
REMARK    1  A    between atoms: C_2  and  C_5
REMARK    2  A    between atoms: C_8  and  C_9
REMARK    3  A    between atoms: C_14  and  C_15
REMARK                            x       y       z     vdW  Elec       q    Type
REMARK                         _______ _______ _______ _____ _____    ______ ____
ROOT
ATOM      1  C   UNL     1      14.771  12.576  32.376  0.00  0.00    +0.000 A 
ATOM      2  C   UNL     1      15.281  11.355  32.730  0.00  0.00    +0.000 A 
ATOM      3  C   UNL     1      15.363  10.998  34.040  0.00  0.00    +0.000 A 
ATOM      4  C   UNL     1      14.936  11.827  35.073  0.00  0.00    +0.000 A 
ATOM      5  C   UNL     1      14.430  13.048  34.706  0.00  0.00    +0.000 A 
ATOM      6  C   UNL     1      14.332  13.446  33.355  0.00  0.00    +0.000 A 
ENDROOT
BRANCH   4   7
ATOM      7  C   UNL     1      15.020  11.388  36.496  0.00  0.00    +0.000 A 
ATOM      8  C   UNL     1      16.253  11.123  37.045  0.00  0.00    +0.000 A 
ATOM      9  S   UNL     1      15.915  10.750  38.661  0.00  0.00    +0.000 S 
ATOM     10  C   UNL     1      14.228  10.924  38.646  0.00  0.00    +0.000 A 
ATOM     11  N   UNL     1      13.227  10.780  39.723  0.00  0.00    +0.000 NA
ATOM     12  C   UNL     1      13.950  11.279  37.322  0.00  0.00    +0.000 A 
BRANCH  12  13
ATOM     13  C   UNL     1      12.523  11.487  36.941  0.00  0.00    +0.000 C 
ATOM     14  N   UNL     1      11.652  10.406  36.741  0.00  0.00    +0.000 NA
ATOM     15  O   UNL     1      12.061  12.637  36.802  0.00  0.00    +0.000 OA
ENDBRANCH  12  13
ENDBRANCH   4   7
BRANCH   1  17
ATOM     16  C   UNL     1      14.501  11.793  30.073  0.00  0.00    +0.000 C 
ATOM     17  C   UNL     1      14.699  12.976  30.940  0.00  0.00    +0.000 C 
ATOM     18  C   UNL     1      15.950  13.756  30.532  0.00  0.00    +0.000 C 
ATOM     19  C   UNL     1      13.464  13.898  30.853  0.00  0.00    +0.000 C 
ENDBRANCH   1  17
TORSDOF 3
ENDMDL
MODEL 3
REMARK VINA RESULT:      -6.6     17.645     20.392
REMARK  Name = 
REMARK  3 active torsions:
REMARK  status: ('A' for Active; 'I' for Inactive)
REMARK    1  A    between atoms: C_2  and  C_5
REMARK    2  A    between atoms: C_8  and  C_9
REMARK    3  A    between atoms: C_14  and  C_15
REMARK                            x       y       z     vdW  Elec       q    Type
REMARK                         _______ _______ _______ _____ _____    ______ ____
ROOT
ATOM      1  C   UNL     1      27.218  22.981  28.455  0.00  0.00    +0.000 A 
ATOM      2  C   UNL     1      26.478  23.935  27.808  0.00  0.00    +0.000 A 
ATOM      3  C   UNL     1      26.580  24.087  26.460  0.00  0.00    +0.000 A 
ATOM      4  C   UNL     1      27.415  23.297  25.676  0.00  0.00    +0.000 A 
ATOM      5  C   UNL     1      28.153  22.349  26.335  0.00  0.00    +0.000 A 
ATOM      6  C   UNL     1      28.068  22.166  27.732  0.00  0.00    +0.000 A 
ENDROOT
BRANCH   4   7
ATOM      7  C   UNL     1      27.479  23.480  24.197  0.00  0.00    +0.000 A 
ATOM      8  C   UNL     1      26.317  23.423  23.462  0.00  0.00    +0.000 A 
ATOM      9  S   UNL     1      26.812  23.761  21.879  0.00  0.00    +0.000 S 
ATOM     10  C   UNL     1      28.475  23.970  22.139  0.00  0.00    +0.000 A 
ATOM     11  N   UNL     1      29.568  24.317  21.208  0.00  0.00    +0.000 NA
ATOM     12  C   UNL     1      28.617  23.758  23.515  0.00  0.00    +0.000 A 
BRANCH  12  13
ATOM     13  C   UNL     1      29.990  23.840  24.094  0.00  0.00    +0.000 C 
ATOM     14  N   UNL     1      30.462  25.014  24.699  0.00  0.00    +0.000 NA
ATOM     15  O   UNL     1      30.753  22.855  24.067  0.00  0.00    +0.000 OA
ENDBRANCH  12  13
ENDBRANCH   4   7
BRANCH   1  17
ATOM     16  C   UNL     1      28.464  22.852  30.558  0.00  0.00    +0.000 C 
ATOM     17  C   UNL     1      27.121  22.827  29.936  0.00  0.00    +0.000 C 
ATOM     18  C   UNL     1      26.368  21.546  30.299  0.00  0.00    +0.000 C 
ATOM     19  C   UNL     1      26.308  24.054  30.403  0.00  0.00    +0.000 C 
ENDBRANCH   1  17
TORSDOF 3
ENDMDL
MODEL 4
REMARK VINA RESULT:      -6.2     20.882     23.559
REMARK  Name = 
REMARK  3 active torsions:
REMARK  status: ('A' for Active; 'I' for Inactive)
REMARK    1  A    between atoms: C_2  and  C_5
REMARK    2  A    between atoms: C_8  and  C_9
REMARK    3  A    between atoms: C_14  and  C_15
REMARK                            x       y       z     vdW  Elec       q    Type
REMARK                         _______ _______ _______ _____ _____    ______ ____
ROOT
ATOM      1  C   UNL     1      33.128  25.198  25.006  0.00  0.00    +0.000 A 
ATOM      2  C   UNL     1      32.877  23.907  24.625  0.00  0.00    +0.000 A 
ATOM      3  C   UNL     1      31.604  23.499  24.376  0.00  0.00    +0.000 A 
ATOM      4  C   UNL     1      30.508  24.350  24.481  0.00  0.00    +0.000 A 
ATOM      5  C   UNL     1      30.771  25.639  24.866  0.00  0.00    +0.000 A 
ATOM      6  C   UNL     1      32.082  26.092  25.131  0.00  0.00    +0.000 A 
ENDROOT
BRANCH   4   7
ATOM      7  C   UNL     1      29.129  23.869  24.175  0.00  0.00    +0.000 A 
ATOM      8  C   UNL     1      28.416  23.208  25.148  0.00  0.00    +0.000 A 
ATOM      9  S   UNL     1      26.909  22.921  24.434  0.00  0.00    +0.000 S 
ATOM     10  C   UNL     1      27.174  23.628  22.915  0.00  0.00    +0.000 A 
ATOM     11  N   UNL     1      26.283  23.786  21.748  0.00  0.00    +0.000 NA
ATOM     12  C   UNL     1      28.492  24.089  22.998  0.00  0.00    +0.000 A 
BRANCH  12  13
ATOM     13  C   UNL     1      29.074  24.754  21.796  0.00  0.00    +0.000 C 
ATOM     14  N   UNL     1      28.966  26.139  21.600  0.00  0.00    +0.000 NA
ATOM     15  O   UNL     1      29.688  24.094  20.936  0.00  0.00    +0.000 OA
ENDBRANCH  12  13
ENDBRANCH   4   7
BRANCH   1  17
ATOM     16  C   UNL     1      34.662  27.103  25.113  0.00  0.00    +0.000 C 
ATOM     17  C   UNL     1      34.523  25.641  25.299  0.00  0.00    +0.000 C 
ATOM     18  C   UNL     1      35.526  24.876  24.434  0.00  0.00    +0.000 C 
ATOM     19  C   UNL     1      34.742  25.282  26.785  0.00  0.00    +0.000 C 
ENDBRANCH   1  17
TORSDOF 3
ENDMDL
MODEL 5
REMARK VINA RESULT:      -5.7     19.462     21.111
REMARK  Name = 
REMARK  3 active torsions:
REMARK  status: ('A' for Active; 'I' for Inactive)
REMARK    1  A    between atoms: C_2  and  C_5
REMARK    2  A    between atoms: C_8  and  C_9
REMARK    3  A    between atoms: C_14  and  C_15
REMARK                            x       y       z     vdW  Elec       q    Type
REMARK                         _______ _______ _______ _____ _____    ______ ____
ROOT
ATOM      1  C   UNL     1      30.561  22.792  28.406  0.00  0.00    +0.000 A 
ATOM      2  C   UNL     1      30.527  21.940  27.333  0.00  0.00    +0.000 A 
ATOM      3  C   UNL     1      29.622  22.126  26.336  0.00  0.00    +0.000 A 
ATOM      4  C   UNL     1      28.703  23.171  26.340  0.00  0.00    +0.000 A 
ATOM      5  C   UNL     1      28.744  24.015  27.419  0.00  0.00    +0.000 A 
ATOM      6  C   UNL     1      29.673  23.849  28.469  0.00  0.00    +0.000 A 
ENDROOT
BRANCH   4   7
ATOM      7  C   UNL     1      27.742  23.353  25.213  0.00  0.00    +0.000 A 
ATOM      8  C   UNL     1      26.435  22.955  25.374  0.00  0.00    +0.000 A 
ATOM      9  S   UNL     1      25.683  23.410  23.928  0.00  0.00    +0.000 S 
ATOM     10  C   UNL     1      27.008  24.096  23.122  0.00  0.00    +0.000 A 
ATOM     11  N   UNL     1      27.112  24.740  21.796  0.00  0.00    +0.000 NA
ATOM     12  C   UNL     1      28.057  23.945  24.035  0.00  0.00    +0.000 A 
BRANCH  12  13
ATOM     13  C   UNL     1      29.409  24.427  23.629  0.00  0.00    +0.000 C 
ATOM     14  N   UNL     1      29.806  25.758  23.832  0.00  0.00    +0.000 NA
ATOM     15  O   UNL     1      30.233  23.651  23.106  0.00  0.00    +0.000 OA
ENDBRANCH  12  13
ENDBRANCH   4   7
BRANCH   1  17
ATOM     16  C   UNL     1      32.348  23.797  29.743  0.00  0.00    +0.000 C 
ATOM     17  C   UNL     1      31.542  22.578  29.510  0.00  0.00    +0.000 C 
ATOM     18  C   UNL     1      32.435  21.372  29.213  0.00  0.00    +0.000 C 
ATOM     19  C   UNL     1      30.672  22.283  30.751  0.00  0.00    +0.000 C 
ENDBRANCH   1  17
TORSDOF 3
ENDMDL
MODEL 6
REMARK VINA RESULT:      -5.7     20.516     23.218
REMARK  Name = 
REMARK  3 active torsions:
REMARK  status: ('A' for Active; 'I' for Inactive)
REMARK    1  A    between atoms: C_2  and  C_5
REMARK    2  A    between atoms: C_8  and  C_9
REMARK    3  A    between atoms: C_14  and  C_15
REMARK                            x       y       z     vdW  Elec       q    Type
REMARK                         _______ _______ _______ _____ _____    ______ ____
ROOT
ATOM      1  C   UNL     1      29.368  27.234  20.511  0.00  0.00    +0.000 A 
ATOM      2  C   UNL     1      29.303  27.603  21.829  0.00  0.00    +0.000 A 
ATOM      3  C   UNL     1      29.302  26.660  22.808  0.00  0.00    +0.000 A 
ATOM      4  C   UNL     1      29.373  25.296  22.539  0.00  0.00    +0.000 A 
ATOM      5  C   UNL     1      29.435  24.939  21.217  0.00  0.00    +0.000 A 
ATOM      6  C   UNL     1      29.439  25.894  20.178  0.00  0.00    +0.000 A 
ENDROOT
BRANCH   4   7
ATOM      7  C   UNL     1      29.394  24.295  23.644  0.00  0.00    +0.000 A 
ATOM      8  C   UNL     1      30.604  23.885  24.156  0.00  0.00    +0.000 A 
ATOM      9  S   UNL     1      30.185  22.839  25.419  0.00  0.00    +0.000 S 
ATOM     10  C   UNL     1      28.495  22.913  25.302  0.00  0.00    +0.000 A 
ATOM     11  N   UNL     1      27.435  22.270  26.106  0.00  0.00    +0.000 NA
ATOM     12  C   UNL     1      28.282  23.787  24.230  0.00  0.00    +0.000 A 
BRANCH  12  13
ATOM     13  C   UNL     1      26.873  24.063  23.825  0.00  0.00    +0.000 C 
ATOM     14  N   UNL     1      26.200  23.246  22.905  0.00  0.00    +0.000 NA
ATOM     15  O   UNL     1      26.248  25.028  24.308  0.00  0.00    +0.000 OA
ENDBRANCH  12  13
ENDBRANCH   4   7
BRANCH   1  17
ATOM     16  C   UNL     1      30.163  29.443  19.821  0.00  0.00    +0.000 C 
ATOM     17  C   UNL     1      29.349  28.268  19.436  0.00  0.00    +0.000 C 
ATOM     18  C   UNL     1      27.914  28.675  19.100  0.00  0.00    +0.000 C 
ATOM     19  C   UNL     1      29.987  27.570  18.214  0.00  0.00    +0.000 C 
ENDBRANCH   1  17
TORSDOF 3
ENDMDL
MODEL 7
REMARK VINA RESULT:      -5.6     19.989     22.693
REMARK  Name = 
REMARK  3 active torsions:
REMARK  status: ('A' for Active; 'I' for Inactive)
REMARK    1  A    between atoms: C_2  and  C_5
REMARK    2  A    between atoms: C_8  and  C_9
REMARK    3  A    between atoms: C_14  and  C_15
REMARK                            x       y       z     vdW  Elec       q    Type
REMARK                         _______ _______ _______ _____ _____    ______ ____
ROOT
ATOM      1  C   UNL     1      32.950  24.884  24.953  0.00  0.00    +0.000 A 
ATOM      2  C   UNL     1      32.039  25.900  24.839  0.00  0.00    +0.000 A 
ATOM      3  C   UNL     1      30.759  25.637  24.461  0.00  0.00    +0.000 A 
ATOM      4  C   UNL     1      30.308  24.351  24.181  0.00  0.00    +0.000 A 
ATOM      5  C   UNL     1      31.230  23.343  24.295  0.00  0.00    +0.000 A 
ATOM      6  C   UNL     1      32.565  23.585  24.687  0.00  0.00    +0.000 A 
ENDROOT
BRANCH   4   7
ATOM      7  C   UNL     1      28.889  24.101  23.793  0.00  0.00    +0.000 A 
ATOM      8  C   UNL     1      28.513  24.266  22.480  0.00  0.00    +0.000 A 
ATOM      9  S   UNL     1      26.885  23.808  22.456  0.00  0.00    +0.000 S 
ATOM     10  C   UNL     1      26.675  23.414  24.092  0.00  0.00    +0.000 A 
ATOM     11  N   UNL     1      25.499  22.902  24.825  0.00  0.00    +0.000 NA
ATOM     12  C   UNL     1      27.933  23.663  24.649  0.00  0.00    +0.000 A 
BRANCH  12  13
ATOM     13  C   UNL     1      28.102  23.443  26.115  0.00  0.00    +0.000 C 
ATOM     14  N   UNL     1      27.927  24.484  27.038  0.00  0.00    +0.000 NA
ATOM     15  O   UNL     1      28.393  22.316  26.562  0.00  0.00    +0.000 OA
ENDBRANCH  12  13
ENDBRANCH   4   7
BRANCH   1  17
ATOM     16  C   UNL     1      35.312  24.426  24.499  0.00  0.00    +0.000 C 
ATOM     17  C   UNL     1      34.359  25.176  25.349  0.00  0.00    +0.000 C 
ATOM     18  C   UNL     1      34.580  24.868  26.831  0.00  0.00    +0.000 C 
ATOM     19  C   UNL     1      34.527  26.692  25.106  0.00  0.00    +0.000 C 
ENDBRANCH   1  17
TORSDOF 3
ENDMDL
MODEL 8
REMARK VINA RESULT:      -5.5     17.420     19.308
REMARK  Name = 
REMARK  3 active torsions:
REMARK  status: ('A' for Active; 'I' for Inactive)
REMARK    1  A    between atoms: C_2  and  C_5
REMARK    2  A    between atoms: C_8  and  C_9
REMARK    3  A    between atoms: C_14  and  C_15
REMARK                            x       y       z     vdW  Elec       q    Type
REMARK                         _______ _______ _______ _____ _____    ______ ____
ROOT
ATOM      1  C   UNL     1      27.469  24.280  23.753  0.00  0.00    +0.000 A 
ATOM      2  C   UNL     1      28.234  24.910  24.699  0.00  0.00    +0.000 A 
ATOM      3  C   UNL     1      28.066  24.628  26.018  0.00  0.00    +0.000 A 
ATOM      4  C   UNL     1      27.136  23.699  26.476  0.00  0.00    +0.000 A 
ATOM      5  C   UNL     1      26.374  23.077  25.520  0.00  0.00    +0.000 A 
ATOM      6  C   UNL     1      26.527  23.348  24.143  0.00  0.00    +0.000 A 
ENDROOT
BRANCH   4   7
ATOM      7  C   UNL     1      27.000  23.400  27.931  0.00  0.00    +0.000 A 
ATOM      8  C   UNL     1      27.612  22.282  28.447  0.00  0.00    +0.000 A 
ATOM      9  S   UNL     1      27.289  22.362  30.106  0.00  0.00    +0.000 S 
ATOM     10  C   UNL     1      26.384  23.795  30.151  0.00  0.00    +0.000 A 
ATOM     11  N   UNL     1      25.773  24.524  31.282  0.00  0.00    +0.000 NA
ATOM     12  C   UNL     1      26.346  24.197  28.812  0.00  0.00    +0.000 A 
BRANCH  12  13
ATOM     13  C   UNL     1      25.589  25.438  28.478  0.00  0.00    +0.000 C 
ATOM     14  N   UNL     1      26.171  26.709  28.598  0.00  0.00    +0.000 NA
ATOM     15  O   UNL     1      24.414  25.377  28.067  0.00  0.00    +0.000 OA
ENDBRANCH  12  13
ENDBRANCH   4   7
BRANCH   1  17
ATOM     16  C   UNL     1      28.943  24.108  21.806  0.00  0.00    +0.000 C 
ATOM     17  C   UNL     1      27.641  24.604  22.306  0.00  0.00    +0.000 C 
ATOM     18  C   UNL     1      27.493  26.107  22.067  0.00  0.00    +0.000 C 
ATOM     19  C   UNL     1      26.491  23.852  21.600  0.00  0.00    +0.000 C 
ENDBRANCH   1  17
TORSDOF 3
ENDMDL
MODEL 9
REMARK VINA RESULT:      -5.3     22.510     23.975
REMARK  Name = 
REMARK  3 active torsions:
REMARK  status: ('A' for Active; 'I' for Inactive)
REMARK    1  A    between atoms: C_2  and  C_5
REMARK    2  A    between atoms: C_8  and  C_9
REMARK    3  A    between atoms: C_14  and  C_15
REMARK                            x       y       z     vdW  Elec       q    Type
REMARK                         _______ _______ _______ _____ _____    ______ ____
ROOT
ATOM      1  C   UNL     1      19.628  -7.619  26.261  0.00  0.00    +0.000 A 
ATOM      2  C   UNL     1      20.065  -6.489  25.623  0.00  0.00    +0.000 A 
ATOM      3  C   UNL     1      21.249  -6.491  24.954  0.00  0.00    +0.000 A 
ATOM      4  C   UNL     1      22.063  -7.616  24.871  0.00  0.00    +0.000 A 
ATOM      5  C   UNL     1      21.617  -8.741  25.516  0.00  0.00    +0.000 A 
ATOM      6  C   UNL     1      20.392  -8.769  26.218  0.00  0.00    +0.000 A 
ENDROOT
BRANCH   4   7
ATOM      7  C   UNL     1      23.344  -7.584  24.106  0.00  0.00    +0.000 A 
ATOM      8  C   UNL     1      24.289  -6.635  24.419  0.00  0.00    +0.000 A 
ATOM      9  S   UNL     1      25.591  -6.996  23.400  0.00  0.00    +0.000 S 
ATOM     10  C   UNL     1      24.948  -8.335  22.581  0.00  0.00    +0.000 A 
ATOM     11  N   UNL     1      25.529  -9.210  21.542  0.00  0.00    +0.000 NA
ATOM     12  C   UNL     1      23.673  -8.476  23.140  0.00  0.00    +0.000 A 
BRANCH  12  13
ATOM     13  C   UNL     1      22.800  -9.567  22.618  0.00  0.00    +0.000 C 
ATOM     14  N   UNL     1      22.934 -10.891  23.063  0.00  0.00    +0.000 NA
ATOM     15  O   UNL     1      21.913  -9.327  21.776  0.00  0.00    +0.000 OA
ENDBRANCH  12  13
ENDBRANCH   4   7
BRANCH   1  17
ATOM     16  C   UNL     1      17.947  -6.230  27.372  0.00  0.00    +0.000 C 
ATOM     17  C   UNL     1      18.338  -7.611  27.011  0.00  0.00    +0.000 C 
ATOM     18  C   UNL     1      18.427  -8.502  28.251  0.00  0.00    +0.000 C 
ATOM     19  C   UNL     1      17.309  -8.202  26.023  0.00  0.00    +0.000 C 
ENDBRANCH   1  17
TORSDOF 3
ENDMDL
MODEL 10
REMARK VINA RESULT:      -5.3      4.348      6.293
REMARK  Name = 
REMARK  3 active torsions:
REMARK  status: ('A' for Active; 'I' for Inactive)
REMARK    1  A    between atoms: C_2  and  C_5
REMARK    2  A    between atoms: C_8  and  C_9
REMARK    3  A    between atoms: C_14  and  C_15
REMARK                            x       y       z     vdW  Elec       q    Type
REMARK                         _______ _______ _______ _____ _____    ______ ____
ROOT
ATOM      1  C   UNL     1      16.726  10.671  37.558  0.00  0.00    +0.000 A 
ATOM      2  C   UNL     1      17.791  10.025  36.988  0.00  0.00    +0.000 A 
ATOM      3  C   UNL     1      18.548   9.168  37.723  0.00  0.00    +0.000 A 
ATOM      4  C   UNL     1      18.289   8.895  39.063  0.00  0.00    +0.000 A 
ATOM      5  C   UNL     1      17.222   9.550  39.623  0.00  0.00    +0.000 A 
ATOM      6  C   UNL     1      16.417  10.445  38.885  0.00  0.00    +0.000 A 
ENDROOT
BRANCH   4   7
ATOM      7  C   UNL     1      19.129   7.928  39.827  0.00  0.00    +0.000 A 
ATOM      8  C   UNL     1      18.674   6.644  40.015  0.00  0.00    +0.000 A 
ATOM      9  S   UNL     1      19.937   5.872  40.834  0.00  0.00    +0.000 S 
ATOM     10  C   UNL     1      21.035   7.161  40.943  0.00  0.00    +0.000 A 
ATOM     11  N   UNL     1      22.394   7.233  41.517  0.00  0.00    +0.000 NA
ATOM     12  C   UNL     1      20.362   8.214  40.316  0.00  0.00    +0.000 A 
BRANCH  12  13
ATOM     13  C   UNL     1      21.043   9.540  40.256  0.00  0.00    +0.000 C 
ATOM     14  N   UNL     1      21.918   9.868  39.210  0.00  0.00    +0.000 NA
ATOM     15  O   UNL     1      20.841  10.401  41.134  0.00  0.00    +0.000 OA
ENDBRANCH  12  13
ENDBRANCH   4   7
BRANCH   1  17
ATOM     16  C   UNL     1      14.531  11.722  37.294  0.00  0.00    +0.000 C 
ATOM     17  C   UNL     1      15.907  11.627  36.757  0.00  0.00    +0.000 C 
ATOM     18  C   UNL     1      15.897  11.226  35.280  0.00  0.00    +0.000 C 
ATOM     19  C   UNL     1      16.624  12.985  36.918  0.00  0.00    +0.000 C 
ENDBRANCH   1  17
TORSDOF 3
ENDMDL
