MODEL 1
REMARK VINA RESULT:      -7.7      0.000      0.000
REMARK  Name = 
REMARK  2 active torsions:
REMARK  status: ('A' for Active; 'I' for Inactive)
REMARK    1  A    between atoms: C_12  and  N_13
REMARK    2  A    between atoms: N_13  and  C_14
REMARK                            x       y       z     vdW  Elec       q    Type
REMARK                         _______ _______ _______ _____ _____    ______ ____
ROOT
ATOM      1  C   UNL     1      15.325  11.167  31.293  0.00  0.00    +0.000 C 
ATOM      2  C   UNL     1      15.323  10.598  32.852  0.00  0.00    +0.000 C 
ATOM      3  C   UNL     1      16.936  10.765  33.011  0.00  0.00    +0.000 C 
ATOM      4  C   UNL     1      17.362  10.740  34.376  0.00  0.00    +0.000 C 
ATOM      5  C   UNL     1      16.291  11.055  35.402  0.00  0.00    +0.000 A 
ATOM      6  C   UNL     1      15.194  11.735  34.929  0.00  0.00    +0.000 A 
ATOM      7  S   UNL     1      14.218  11.925  36.316  0.00  0.00    +0.000 S 
ATOM      8  C   UNL     1      15.213  11.146  37.449  0.00  0.00    +0.000 A 
ATOM      9  N   UNL     1      15.075  10.909  38.785  0.00  0.00    +0.000 NA
ATOM     10  C   UNL     1      16.035  10.247  39.488  0.00  0.00    +0.000 A 
ATOM     11  N   UNL     1      17.090   9.860  38.781  0.00  0.00    +0.000 NA
ATOM     12  C   UNL     1      17.269  10.068  37.473  0.00  0.00    +0.000 A 
ATOM     13  C   UNL     1      16.293  10.749  36.726  0.00  0.00    +0.000 A 
ATOM     14  C   UNL     1      15.069  12.129  33.470  0.00  0.00    +0.000 C 
ENDROOT
BRANCH  12  15
ATOM     15  N   UNL     1      18.457   9.586  36.882  0.00  0.00    +0.000 NA
BRANCH  15  16
ATOM     16  C   UNL     1      19.723  10.164  37.145  0.00  0.00    +0.000 A 
ATOM     17  C   UNL     1      19.776  11.256  37.982  0.00  0.00    +0.000 A 
ATOM     18  C   UNL     1      20.987  11.881  38.289  0.00  0.00    +0.000 A 
ATOM     19  C   UNL     1      22.117  11.352  37.716  0.00  0.00    +0.000 A 
ATOM     20  C   UNL     1      22.119  10.262  36.871  0.00  0.00    +0.000 A 
ATOM     21  O   UNL     1      23.309   9.768  36.316  0.00  0.00    +0.000 OA
ATOM     22  C   UNL     1      20.892   9.683  36.602  0.00  0.00    +0.000 A 
ENDBRANCH  15  16
ENDBRANCH  12  15
TORSDOF 2
ENDMDL
MODEL 2
REMARK VINA RESULT:      -7.5     20.584     22.193
REMARK  Name = 
REMARK  2 active torsions:
REMARK  status: ('A' for Active; 'I' for Inactive)
REMARK    1  A    between atoms: C_12  and  N_13
REMARK    2  A    between atoms: N_13  and  C_14
REMARK                            x       y       z     vdW  Elec       q    Type
REMARK                         _______ _______ _______ _____ _____    ______ ____
ROOT
ATOM      1  C   UNL     1      32.935  23.865  27.542  0.00  0.00    +0.000 C 
ATOM      2  C   UNL     1      31.448  24.130  26.854  0.00  0.00    +0.000 C 
ATOM      3  C   UNL     1      31.929  23.598  25.391  0.00  0.00    +0.000 C 
ATOM      4  C   UNL     1      30.832  23.286  24.529  0.00  0.00    +0.000 C 
ATOM      5  C   UNL     1      29.509  23.026  25.220  0.00  0.00    +0.000 A 
ATOM      6  C   UNL     1      29.588  22.690  26.551  0.00  0.00    +0.000 A 
ATOM      7  S   UNL     1      27.957  22.465  27.000  0.00  0.00    +0.000 S 
ATOM      8  C   UNL     1      27.222  22.798  25.507  0.00  0.00    +0.000 A 
ATOM      9  N   UNL     1      25.919  22.813  25.106  0.00  0.00    +0.000 NA
ATOM     10  C   UNL     1      25.578  23.119  23.824  0.00  0.00    +0.000 A 
ATOM     11  N   UNL     1      26.595  23.394  23.017  0.00  0.00    +0.000 NA
ATOM     12  C   UNL     1      27.886  23.392  23.363  0.00  0.00    +0.000 A 
ATOM     13  C   UNL     1      28.263  23.080  24.680  0.00  0.00    +0.000 A 
ATOM     14  C   UNL     1      30.919  22.602  27.273  0.00  0.00    +0.000 C 
ENDROOT
BRANCH  12  15
ATOM     15  N   UNL     1      28.838  23.711  22.371  0.00  0.00    +0.000 NA
BRANCH  15  16
ATOM     16  C   UNL     1      29.027  25.033  21.900  0.00  0.00    +0.000 A 
ATOM     17  C   UNL     1      28.735  26.073  22.753  0.00  0.00    +0.000 A 
ATOM     18  C   UNL     1      28.896  27.405  22.361  0.00  0.00    +0.000 A 
ATOM     19  C   UNL     1      29.359  27.621  21.086  0.00  0.00    +0.000 A 
ATOM     20  C   UNL     1      29.665  26.616  20.193  0.00  0.00    +0.000 A 
ATOM     21  O   UNL     1      30.134  26.902  18.902  0.00  0.00    +0.000 OA
ATOM     22  C   UNL     1      29.487  25.317  20.634  0.00  0.00    +0.000 A 
ENDBRANCH  15  16
ENDBRANCH  12  15
TORSDOF 2
ENDMDL
MODEL 3
REMARK VINA RESULT:      -7.0     20.010     21.609
REMARK  Name = 
REMARK  2 active torsions:
REMARK  status: ('A' for Active; 'I' for Inactive)
REMARK    1  A    between atoms: C_12  and  N_13
REMARK    2  A    between atoms: N_13  and  C_14
REMARK                            x       y       z     vdW  Elec       q    Type
REMARK                         _______ _______ _______ _____ _____    ______ ____
ROOT
ATOM      1  C   UNL     1      28.968  22.693  30.307  0.00  0.00    +0.000 C 
ATOM      2  C   UNL     1      28.948  23.356  28.786  0.00  0.00    +0.000 C 
ATOM      3  C   UNL     1      30.260  22.517  28.304  0.00  0.00    +0.000 C 
ATOM      4  C   UNL     1      30.405  22.489  26.883  0.00  0.00    +0.000 C 
ATOM      5  C   UNL     1      29.146  22.776  26.089  0.00  0.00    +0.000 A 
ATOM      6  C   UNL     1      27.963  22.600  26.766  0.00  0.00    +0.000 A 
ATOM      7  S   UNL     1      26.779  22.993  25.601  0.00  0.00    +0.000 S 
ATOM      8  C   UNL     1      27.802  23.368  24.299  0.00  0.00    +0.000 A 
ATOM      9  N   UNL     1      27.553  23.771  23.020  0.00  0.00    +0.000 NA
ATOM     10  C   UNL     1      28.568  24.013  22.146  0.00  0.00    +0.000 A 
ATOM     11  N   UNL     1      29.791  23.829  22.631  0.00  0.00    +0.000 NA
ATOM     12  C   UNL     1      30.083  23.435  23.874  0.00  0.00    +0.000 A 
ATOM     13  C   UNL     1      29.053  23.179  24.795  0.00  0.00    +0.000 A 
ATOM     14  C   UNL     1      27.932  22.159  28.216  0.00  0.00    +0.000 C 
ENDROOT
BRANCH  12  15
ATOM     15  N   UNL     1      31.444  23.290  24.220  0.00  0.00    +0.000 NA
BRANCH  15  16
ATOM     16  C   UNL     1      32.253  24.393  24.589  0.00  0.00    +0.000 A 
ATOM     17  C   UNL     1      31.627  25.567  24.942  0.00  0.00    +0.000 A 
ATOM     18  C   UNL     1      32.357  26.698  25.319  0.00  0.00    +0.000 A 
ATOM     19  C   UNL     1      33.725  26.577  25.318  0.00  0.00    +0.000 A 
ATOM     20  C   UNL     1      34.401  25.426  24.972  0.00  0.00    +0.000 A 
ATOM     21  O   UNL     1      35.802  25.366  24.991  0.00  0.00    +0.000 OA
ATOM     22  C   UNL     1      33.628  24.338  24.608  0.00  0.00    +0.000 A 
ENDBRANCH  15  16
ENDBRANCH  12  15
TORSDOF 2
ENDMDL
MODEL 4
REMARK VINA RESULT:      -6.7     17.795     18.793
REMARK  Name = 
REMARK  2 active torsions:
REMARK  status: ('A' for Active; 'I' for Inactive)
REMARK    1  A    between atoms: C_12  and  N_13
REMARK    2  A    between atoms: N_13  and  C_14
REMARK                            x       y       z     vdW  Elec       q    Type
REMARK                         _______ _______ _______ _____ _____    ______ ____
ROOT
ATOM      1  C   UNL     1      22.508  27.565  25.238  0.00  0.00    +0.000 C 
ATOM      2  C   UNL     1      23.031  26.342  26.231  0.00  0.00    +0.000 C 
ATOM      3  C   UNL     1      24.320  26.007  25.292  0.00  0.00    +0.000 C 
ATOM      4  C   UNL     1      25.310  25.230  25.970  0.00  0.00    +0.000 C 
ATOM      5  C   UNL     1      25.252  25.271  27.484  0.00  0.00    +0.000 A 
ATOM      6  C   UNL     1      24.582  26.342  28.025  0.00  0.00    +0.000 A 
ATOM      7  S   UNL     1      24.715  26.082  29.706  0.00  0.00    +0.000 S 
ATOM      8  C   UNL     1      25.606  24.639  29.683  0.00  0.00    +0.000 A 
ATOM      9  N   UNL     1      26.085  23.836  30.676  0.00  0.00    +0.000 NA
ATOM     10  C   UNL     1      26.787  22.704  30.394  0.00  0.00    +0.000 A 
ATOM     11  N   UNL     1      26.963  22.454  29.102  0.00  0.00    +0.000 NA
ATOM     12  C   UNL     1      26.515  23.209  28.095  0.00  0.00    +0.000 A 
ATOM     13  C   UNL     1      25.787  24.382  28.361  0.00  0.00    +0.000 A 
ATOM     14  C   UNL     1      23.935  27.401  27.154  0.00  0.00    +0.000 C 
ENDROOT
BRANCH  12  15
ATOM     15  N   UNL     1      26.796  22.790  26.777  0.00  0.00    +0.000 NA
BRANCH  15  16
ATOM     16  C   UNL     1      28.112  22.768  26.253  0.00  0.00    +0.000 A 
ATOM     17  C   UNL     1      29.121  22.286  27.056  0.00  0.00    +0.000 A 
ATOM     18  C   UNL     1      30.445  22.232  26.610  0.00  0.00    +0.000 A 
ATOM     19  C   UNL     1      30.685  22.683  25.336  0.00  0.00    +0.000 A 
ATOM     20  C   UNL     1      29.712  23.176  24.492  0.00  0.00    +0.000 A 
ATOM     21  O   UNL     1      30.021  23.623  23.199  0.00  0.00    +0.000 OA
ATOM     22  C   UNL     1      28.419  23.206  24.985  0.00  0.00    +0.000 A 
ENDBRANCH  15  16
ENDBRANCH  12  15
TORSDOF 2
ENDMDL
MODEL 5
REMARK VINA RESULT:      -6.6     20.353     22.242
REMARK  Name = 
REMARK  2 active torsions:
REMARK  status: ('A' for Active; 'I' for Inactive)
REMARK    1  A    between atoms: C_12  and  N_13
REMARK    2  A    between atoms: N_13  and  C_14
REMARK                            x       y       z     vdW  Elec       q    Type
REMARK                         _______ _______ _______ _____ _____    ______ ____
ROOT
ATOM      1  C   UNL     1      35.242  26.476  25.856  0.00  0.00    +0.000 C 
ATOM      2  C   UNL     1      33.666  26.008  26.084  0.00  0.00    +0.000 C 
ATOM      3  C   UNL     1      33.685  24.999  24.805  0.00  0.00    +0.000 C 
ATOM      4  C   UNL     1      32.609  24.058  24.828  0.00  0.00    +0.000 C 
ATOM      5  C   UNL     1      31.971  23.825  26.183  0.00  0.00    +0.000 A 
ATOM      6  C   UNL     1      32.736  24.177  27.270  0.00  0.00    +0.000 A 
ATOM      7  S   UNL     1      31.741  23.783  28.598  0.00  0.00    +0.000 S 
ATOM      8  C   UNL     1      30.394  23.189  27.754  0.00  0.00    +0.000 A 
ATOM      9  N   UNL     1      29.195  22.688  28.169  0.00  0.00    +0.000 NA
ATOM     10  C   UNL     1      28.258  22.268  27.276  0.00  0.00    +0.000 A 
ATOM     11  N   UNL     1      28.600  22.383  25.998  0.00  0.00    +0.000 NA
ATOM     12  C   UNL     1      29.760  22.867  25.544  0.00  0.00    +0.000 A 
ATOM     13  C   UNL     1      30.743  23.307  26.447  0.00  0.00    +0.000 A 
ATOM     14  C   UNL     1      34.122  24.771  27.110  0.00  0.00    +0.000 C 
ENDROOT
BRANCH  12  15
ATOM     15  N   UNL     1      29.955  22.917  24.147  0.00  0.00    +0.000 NA
BRANCH  15  16
ATOM     16  C   UNL     1      29.123  23.684  23.294  0.00  0.00    +0.000 A 
ATOM     17  C   UNL     1      29.510  24.971  22.997  0.00  0.00    +0.000 A 
ATOM     18  C   UNL     1      28.744  25.789  22.163  0.00  0.00    +0.000 A 
ATOM     19  C   UNL     1      27.589  25.245  21.657  0.00  0.00    +0.000 A 
ATOM     20  C   UNL     1      27.157  23.962  21.922  0.00  0.00    +0.000 A 
ATOM     21  O   UNL     1      25.966  23.463  21.374  0.00  0.00    +0.000 OA
ATOM     22  C   UNL     1      27.955  23.197  22.754  0.00  0.00    +0.000 A 
ENDBRANCH  15  16
ENDBRANCH  12  15
TORSDOF 2
ENDMDL
MODEL 6
REMARK VINA RESULT:      -6.5     20.477     22.333
REMARK  Name = 
REMARK  2 active torsions:
REMARK  status: ('A' for Active; 'I' for Inactive)
REMARK    1  A    between atoms: C_12  and  N_13
REMARK    2  A    between atoms: N_13  and  C_14
REMARK                            x       y       z     vdW  Elec       q    Type
REMARK                         _______ _______ _______ _____ _____    ______ ____
ROOT
ATOM      1  C   UNL     1      34.532  -7.178  28.269  0.00  0.00    +0.000 C 
ATOM      2  C   UNL     1      34.040  -7.261  29.852  0.00  0.00    +0.000 C 
ATOM      3  C   UNL     1      34.643  -5.791  30.212  0.00  0.00    +0.000 C 
ATOM      4  C   UNL     1      34.111  -5.259  31.427  0.00  0.00    +0.000 C 
ATOM      5  C   UNL     1      32.797  -5.858  31.886  0.00  0.00    +0.000 A 
ATOM      6  C   UNL     1      32.062  -6.496  30.915  0.00  0.00    +0.000 A 
ATOM      7  S   UNL     1      30.677  -7.032  31.754  0.00  0.00    +0.000 S 
ATOM      8  C   UNL     1      31.058  -6.442  33.299  0.00  0.00    +0.000 A 
ATOM      9  N   UNL     1      30.401  -6.497  34.493  0.00  0.00    +0.000 NA
ATOM     10  C   UNL     1      30.928  -5.934  35.616  0.00  0.00    +0.000 A 
ATOM     11  N   UNL     1      32.105  -5.341  35.454  0.00  0.00    +0.000 NA
ATOM     12  C   UNL     1      32.785  -5.261  34.307  0.00  0.00    +0.000 A 
ATOM     13  C   UNL     1      32.262  -5.834  33.134  0.00  0.00    +0.000 A 
ATOM     14  C   UNL     1      32.551  -6.597  29.483  0.00  0.00    +0.000 C 
ENDROOT
BRANCH  12  15
ATOM     15  N   UNL     1      34.026  -4.590  34.318  0.00  0.00    +0.000 NA
BRANCH  15  16
ATOM     16  C   UNL     1      34.131  -3.194  34.537  0.00  0.00    +0.000 A 
ATOM     17  C   UNL     1      33.475  -2.351  33.670  0.00  0.00    +0.000 A 
ATOM     18  C   UNL     1      33.529  -0.963  33.820  0.00  0.00    +0.000 A 
ATOM     19  C   UNL     1      34.269  -0.485  34.874  0.00  0.00    +0.000 A 
ATOM     20  C   UNL     1      34.945  -1.286  35.771  0.00  0.00    +0.000 A 
ATOM     21  O   UNL     1      35.685  -0.738  36.829  0.00  0.00    +0.000 OA
ATOM     22  C   UNL     1      34.856  -2.652  35.574  0.00  0.00    +0.000 A 
ENDBRANCH  15  16
ENDBRANCH  12  15
TORSDOF 2
ENDMDL
MODEL 7
REMARK VINA RESULT:      -6.3     18.046     19.612
REMARK  Name = 
REMARK  2 active torsions:
REMARK  status: ('A' for Active; 'I' for Inactive)
REMARK    1  A    between atoms: C_12  and  N_13
REMARK    2  A    between atoms: N_13  and  C_14
REMARK                            x       y       z     vdW  Elec       q    Type
REMARK                         _______ _______ _______ _____ _____    ______ ____
ROOT
ATOM      1  C   UNL     1      24.903  25.943  31.452  0.00  0.00    +0.000 C 
ATOM      2  C   UNL     1      26.038  24.844  30.941  0.00  0.00    +0.000 C 
ATOM      3  C   UNL     1      25.503  24.869  29.403  0.00  0.00    +0.000 C 
ATOM      4  C   UNL     1      26.450  24.327  28.480  0.00  0.00    +0.000 C 
ATOM      5  C   UNL     1      27.887  24.293  28.960  0.00  0.00    +0.000 A 
ATOM      6  C   UNL     1      28.191  25.147  29.993  0.00  0.00    +0.000 A 
ATOM      7  S   UNL     1      29.850  24.861  30.270  0.00  0.00    +0.000 S 
ATOM      8  C   UNL     1      30.116  23.678  29.083  0.00  0.00    +0.000 A 
ATOM      9  N   UNL     1      31.227  22.976  28.717  0.00  0.00    +0.000 NA
ATOM     10  C   UNL     1      31.183  22.060  27.710  0.00  0.00    +0.000 A 
ATOM     11  N   UNL     1      29.999  21.911  27.130  0.00  0.00    +0.000 NA
ATOM     12  C   UNL     1      28.885  22.575  27.453  0.00  0.00    +0.000 A 
ATOM     13  C   UNL     1      28.904  23.525  28.489  0.00  0.00    +0.000 A 
ATOM     14  C   UNL     1      27.143  26.052  30.612  0.00  0.00    +0.000 C 
ENDROOT
BRANCH  12  15
ATOM     15  N   UNL     1      27.709  22.288  26.727  0.00  0.00    +0.000 NA
BRANCH  15  16
ATOM     16  C   UNL     1      27.497  22.765  25.410  0.00  0.00    +0.000 A 
ATOM     17  C   UNL     1      26.201  22.954  24.989  0.00  0.00    +0.000 A 
ATOM     18  C   UNL     1      25.912  23.422  23.704  0.00  0.00    +0.000 A 
ATOM     19  C   UNL     1      26.984  23.683  22.887  0.00  0.00    +0.000 A 
ATOM     20  C   UNL     1      28.301  23.511  23.259  0.00  0.00    +0.000 A 
ATOM     21  O   UNL     1      29.354  23.796  22.378  0.00  0.00    +0.000 OA
ATOM     22  C   UNL     1      28.528  23.046  24.542  0.00  0.00    +0.000 A 
ENDBRANCH  15  16
ENDBRANCH  12  15
TORSDOF 2
ENDMDL
MODEL 8
REMARK VINA RESULT:      -6.3     17.819     19.146
REMARK  Name = 
REMARK  2 active torsions:
REMARK  status: ('A' for Active; 'I' for Inactive)
REMARK    1  A    between atoms: C_12  and  N_13
REMARK    2  A    between atoms: N_13  and  C_14
REMARK                            x       y       z     vdW  Elec       q    Type
REMARK                         _______ _______ _______ _____ _____    ______ ____
ROOT
ATOM      1  C   UNL     1      26.825  25.535  32.132  0.00  0.00    +0.000 C 
ATOM      2  C   UNL     1      26.914  25.490  30.476  0.00  0.00    +0.000 C 
ATOM      3  C   UNL     1      27.136  23.876  30.441  0.00  0.00    +0.000 C 
ATOM      4  C   UNL     1      26.890  23.312  29.151  0.00  0.00    +0.000 C 
ATOM      5  C   UNL     1      26.033  24.150  28.222  0.00  0.00    +0.000 A 
ATOM      6  C   UNL     1      25.249  25.101  28.832  0.00  0.00    +0.000 A 
ATOM      7  S   UNL     1      24.431  25.835  27.527  0.00  0.00    +0.000 S 
ATOM      8  C   UNL     1      25.095  24.929  26.254  0.00  0.00    +0.000 A 
ATOM      9  N   UNL     1      24.904  24.962  24.904  0.00  0.00    +0.000 NA
ATOM     10  C   UNL     1      25.570  24.111  24.076  0.00  0.00    +0.000 A 
ATOM     11  N   UNL     1      26.401  23.268  24.677  0.00  0.00    +0.000 NA
ATOM     12  C   UNL     1      26.621  23.199  25.994  0.00  0.00    +0.000 A 
ATOM     13  C   UNL     1      25.945  24.066  26.869  0.00  0.00    +0.000 A 
ATOM     14  C   UNL     1      25.260  25.299  30.335  0.00  0.00    +0.000 C 
ENDROOT
BRANCH  12  15
ATOM     15  N   UNL     1      27.542  22.237  26.461  0.00  0.00    +0.000 NA
BRANCH  15  16
ATOM     16  C   UNL     1      28.943  22.449  26.422  0.00  0.00    +0.000 A 
ATOM     17  C   UNL     1      29.656  22.289  27.588  0.00  0.00    +0.000 A 
ATOM     18  C   UNL     1      31.040  22.480  27.629  0.00  0.00    +0.000 A 
ATOM     19  C   UNL     1      31.648  22.833  26.450  0.00  0.00    +0.000 A 
ATOM     20  C   UNL     1      30.981  23.006  25.255  0.00  0.00    +0.000 A 
ATOM     21  O   UNL     1      31.660  23.367  24.083  0.00  0.00    +0.000 OA
ATOM     22  C   UNL     1      29.612  22.804  25.273  0.00  0.00    +0.000 A 
ENDBRANCH  15  16
ENDBRANCH  12  15
TORSDOF 2
ENDMDL
MODEL 9
REMARK VINA RESULT:      -6.2     17.954     19.341
REMARK  Name = 
REMARK  2 active torsions:
REMARK  status: ('A' for Active; 'I' for Inactive)
REMARK    1  A    between atoms: C_12  and  N_13
REMARK    2  A    between atoms: N_13  and  C_14
REMARK                            x       y       z     vdW  Elec       q    Type
REMARK                         _______ _______ _______ _____ _____    ______ ____
ROOT
ATOM      1  C   UNL     1      27.671  24.913  32.405  0.00  0.00    +0.000 C 
ATOM      2  C   UNL     1      27.417  25.207  30.792  0.00  0.00    +0.000 C 
ATOM      3  C   UNL     1      27.442  23.624  30.405  0.00  0.00    +0.000 C 
ATOM      4  C   UNL     1      26.876  23.361  29.119  0.00  0.00    +0.000 C 
ATOM      5  C   UNL     1      25.950  24.432  28.579  0.00  0.00    +0.000 A 
ATOM      6  C   UNL     1      25.421  25.289  29.514  0.00  0.00    +0.000 A 
ATOM      7  S   UNL     1      24.444  26.335  28.585  0.00  0.00    +0.000 S 
ATOM      8  C   UNL     1      24.728  25.669  27.050  0.00  0.00    +0.000 A 
ATOM      9  N   UNL     1      24.272  25.995  25.807  0.00  0.00    +0.000 NA
ATOM     10  C   UNL     1      24.656  25.291  24.706  0.00  0.00    +0.000 A 
ATOM     11  N   UNL     1      25.489  24.284  24.939  0.00  0.00    +0.000 NA
ATOM     12  C   UNL     1      25.962  23.927  26.137  0.00  0.00    +0.000 A 
ATOM     13  C   UNL     1      25.581  24.639  27.288  0.00  0.00    +0.000 A 
ATOM     14  C   UNL     1      25.759  25.168  30.987  0.00  0.00    +0.000 C 
ENDROOT
BRANCH  12  15
ATOM     15  N   UNL     1      26.843  22.826  26.199  0.00  0.00    +0.000 NA
BRANCH  15  16
ATOM     16  C   UNL     1      28.164  22.884  25.689  0.00  0.00    +0.000 A 
ATOM     17  C   UNL     1      29.188  22.426  26.487  0.00  0.00    +0.000 A 
ATOM     18  C   UNL     1      30.516  22.449  26.054  0.00  0.00    +0.000 A 
ATOM     19  C   UNL     1      30.746  22.951  24.797  0.00  0.00    +0.000 A 
ATOM     20  C   UNL     1      29.758  23.423  23.958  0.00  0.00    +0.000 A 
ATOM     21  O   UNL     1      30.056  23.924  22.683  0.00  0.00    +0.000 OA
ATOM     22  C   UNL     1      28.461  23.375  24.439  0.00  0.00    +0.000 A 
ENDBRANCH  15  16
ENDBRANCH  12  15
TORSDOF 2
ENDMDL
MODEL 10
REMARK VINA RESULT:      -6.2     20.825     22.867
REMARK  Name = 
REMARK  2 active torsions:
REMARK  status: ('A' for Active; 'I' for Inactive)
REMARK    1  A    between atoms: C_12  and  N_13
REMARK    2  A    between atoms: N_13  and  C_14
REMARK                            x       y       z     vdW  Elec       q    Type
REMARK                         _______ _______ _______ _____ _____    ______ ____
ROOT
ATOM      1  C   UNL     1      28.220  -2.511  17.095  0.00  0.00    +0.000 C 
ATOM      2  C   UNL     1      27.062  -1.500  17.720  0.00  0.00    +0.000 C 
ATOM      3  C   UNL     1      27.771  -0.163  17.116  0.00  0.00    +0.000 C 
ATOM      4  C   UNL     1      26.894   0.965  17.090  0.00  0.00    +0.000 C 
ATOM      5  C   UNL     1      25.413   0.644  17.141  0.00  0.00    +0.000 A 
ATOM      6  C   UNL     1      25.067  -0.634  16.772  0.00  0.00    +0.000 A 
ATOM      7  S   UNL     1      23.369  -0.647  16.933  0.00  0.00    +0.000 S 
ATOM      8  C   UNL     1      23.140   0.950  17.460  0.00  0.00    +0.000 A 
ATOM      9  N   UNL     1      22.023   1.658  17.792  0.00  0.00    +0.000 NA
ATOM     10  C   UNL     1      22.104   2.957  18.194  0.00  0.00    +0.000 A 
ATOM     11  N   UNL     1      23.330   3.464  18.234  0.00  0.00    +0.000 NA
ATOM     12  C   UNL     1      24.452   2.810  17.917  0.00  0.00    +0.000 A 
ATOM     13  C   UNL     1      24.395   1.469  17.500  0.00  0.00    +0.000 A 
ATOM     14  C   UNL     1      26.110  -1.653  16.355  0.00  0.00    +0.000 C 
ENDROOT
BRANCH  12  15
ATOM     15  N   UNL     1      25.675   3.508  18.018  0.00  0.00    +0.000 NA
BRANCH  15  16
ATOM     16  C   UNL     1      25.966   4.645  17.223  0.00  0.00    +0.000 A 
ATOM     17  C   UNL     1      26.430   5.776  17.855  0.00  0.00    +0.000 A 
ATOM     18  C   UNL     1      26.739   6.936  17.140  0.00  0.00    +0.000 A 
ATOM     19  C   UNL     1      26.556   6.889  15.780  0.00  0.00    +0.000 A 
ATOM     20  C   UNL     1      26.093   5.783  15.099  0.00  0.00    +0.000 A 
ATOM     21  O   UNL     1      25.927   5.797  13.706  0.00  0.00    +0.000 OA
ATOM     22  C   UNL     1      25.804   4.663  15.857  0.00  0.00    +0.000 A 
ENDBRANCH  15  16
ENDBRANCH  12  15
TORSDOF 2
ENDMDL
