MODEL 1
REMARK VINA RESULT:      -6.2      0.000      0.000
REMARK  Name = 
REMARK  3 active torsions:
REMARK  status: ('A' for Active; 'I' for Inactive)
REMARK    1  A    between atoms: C_5  and  C_6
REMARK    2  A    between atoms: N_8  and  C_9
REMARK    3  A    between atoms: C_17  and  N_18
REMARK                            x       y       z     vdW  Elec       q    Type
REMARK                         _______ _______ _______ _____ _____    ______ ____
ROOT
ATOM      1  C   UNL     1      29.740  29.683  19.259  0.00  0.00    +0.000 C 
ATOM      2  C   UNL     1      29.573  28.401  20.019  0.00  0.00    +0.000 A 
ATOM      3  C   UNL     1      29.048  28.379  21.290  0.00  0.00    +0.000 A 
ATOM      4  C   UNL     1      28.882  27.215  22.007  0.00  0.00    +0.000 A 
ATOM      5  C   UNL     1      29.248  25.992  21.458  0.00  0.00    +0.000 A 
ATOM      6  C   UNL     1      29.776  26.027  20.179  0.00  0.00    +0.000 A 
ATOM      7  C   UNL     1      29.942  27.187  19.459  0.00  0.00    +0.000 A 
ENDROOT
BRANCH   5   8
ATOM      8  C   UNL     1      29.097  24.745  22.189  0.00  0.00    +0.000 C 
ATOM      9  O   UNL     1      28.913  23.693  21.532  0.00  0.00    +0.000 OA
ATOM     10  N   UNL     1      29.150  24.681  23.577  0.00  0.00    +0.000 NA
BRANCH  10  11
ATOM     11  C   UNL     1      28.997  23.474  24.264  0.00  0.00    +0.000 C 
ATOM     12  C   UNL     1      27.721  23.098  24.854  0.00  0.00    +0.000 C 
ATOM     13  C   UNL     1      27.830  22.387  26.195  0.00  0.00    +0.000 C 
ATOM     14  C   UNL     1      28.852  23.149  27.037  0.00  0.00    +0.000 C 
ATOM     15  C   UNL     1      30.146  22.366  26.937  0.00  0.00    +0.000 C 
ATOM     16  C   UNL     1      30.921  22.752  25.706  0.00  0.00    +0.000 C 
ATOM     17  C   UNL     1      30.156  22.592  24.440  0.00  0.00    +0.000 C 
ENDBRANCH  10  11
ENDBRANCH   5   8
BRANCH   7  18
ATOM     18  N   UNL     1      30.491  27.205  18.149  0.00  0.00    +0.000 N 
ATOM     19  O   UNL     1      31.728  27.228  17.926  0.00  0.00    +0.000 OA
ATOM     20  O   UNL     1      29.632  27.204  17.060  0.00  0.00    +0.000 OA
ENDBRANCH   7  18
TORSDOF 3
ENDMDL
MODEL 2
REMARK VINA RESULT:      -5.8      2.805      7.598
REMARK  Name = 
REMARK  3 active torsions:
REMARK  status: ('A' for Active; 'I' for Inactive)
REMARK    1  A    between atoms: C_5  and  C_6
REMARK    2  A    between atoms: N_8  and  C_9
REMARK    3  A    between atoms: C_17  and  N_18
REMARK                            x       y       z     vdW  Elec       q    Type
REMARK                         _______ _______ _______ _____ _____    ______ ____
ROOT
ATOM      1  C   UNL     1      26.788  25.442  24.304  0.00  0.00    +0.000 C 
ATOM      2  C   UNL     1      27.515  26.005  23.119  0.00  0.00    +0.000 A 
ATOM      3  C   UNL     1      27.860  27.334  23.048  0.00  0.00    +0.000 A 
ATOM      4  C   UNL     1      28.529  27.874  21.973  0.00  0.00    +0.000 A 
ATOM      5  C   UNL     1      28.889  27.074  20.894  0.00  0.00    +0.000 A 
ATOM      6  C   UNL     1      28.536  25.739  20.977  0.00  0.00    +0.000 A 
ATOM      7  C   UNL     1      27.868  25.196  22.050  0.00  0.00    +0.000 A 
ENDROOT
BRANCH   5   8
ATOM      8  C   UNL     1      29.587  27.611  19.738  0.00  0.00    +0.000 C 
ATOM      9  O   UNL     1      29.478  28.838  19.499  0.00  0.00    +0.000 OA
ATOM     10  N   UNL     1      30.363  26.819  18.899  0.00  0.00    +0.000 NA
BRANCH  10  11
ATOM     11  C   UNL     1      31.023  27.352  17.789  0.00  0.00    +0.000 C 
ATOM     12  C   UNL     1      32.275  28.081  17.932  0.00  0.00    +0.000 C 
ATOM     13  C   UNL     1      32.418  29.279  17.005  0.00  0.00    +0.000 C 
ATOM     14  C   UNL     1      31.096  30.043  17.034  0.00  0.00    +0.000 C 
ATOM     15  C   UNL     1      30.347  29.634  15.783  0.00  0.00    +0.000 C 
ATOM     16  C   UNL     1      29.577  28.360  16.002  0.00  0.00    +0.000 C 
ATOM     17  C   UNL     1      30.419  27.221  16.458  0.00  0.00    +0.000 C 
ENDBRANCH  10  11
ENDBRANCH   5   8
BRANCH   7  18
ATOM     18  N   UNL     1      27.510  23.823  22.115  0.00  0.00    +0.000 N 
ATOM     19  O   UNL     1      28.257  22.945  22.618  0.00  0.00    +0.000 OA
ATOM     20  O   UNL     1      26.287  23.420  21.600  0.00  0.00    +0.000 OA
ENDBRANCH   7  18
TORSDOF 3
ENDMDL
MODEL 3
REMARK VINA RESULT:      -5.7      4.189      8.846
REMARK  Name = 
REMARK  3 active torsions:
REMARK  status: ('A' for Active; 'I' for Inactive)
REMARK    1  A    between atoms: C_5  and  C_6
REMARK    2  A    between atoms: N_8  and  C_9
REMARK    3  A    between atoms: C_17  and  N_18
REMARK                            x       y       z     vdW  Elec       q    Type
REMARK                         _______ _______ _______ _____ _____    ______ ____
ROOT
ATOM      1  C   UNL     1      29.139  22.242  31.623  0.00  0.00    +0.000 C 
ATOM      2  C   UNL     1      29.009  22.675  30.193  0.00  0.00    +0.000 A 
ATOM      3  C   UNL     1      30.110  22.831  29.384  0.00  0.00    +0.000 A 
ATOM      4  C   UNL     1      30.017  23.225  28.068  0.00  0.00    +0.000 A 
ATOM      5  C   UNL     1      28.776  23.485  27.497  0.00  0.00    +0.000 A 
ATOM      6  C   UNL     1      27.677  23.325  28.321  0.00  0.00    +0.000 A 
ATOM      7  C   UNL     1      27.765  22.931  29.636  0.00  0.00    +0.000 A 
ENDROOT
BRANCH   5   8
ATOM      8  C   UNL     1      28.641  23.912  26.115  0.00  0.00    +0.000 C 
ATOM      9  O   UNL     1      29.283  24.923  25.743  0.00  0.00    +0.000 OA
ATOM     10  N   UNL     1      27.833  23.243  25.201  0.00  0.00    +0.000 NA
BRANCH  10  11
ATOM     11  C   UNL     1      27.711  23.672  23.877  0.00  0.00    +0.000 C 
ATOM     12  C   UNL     1      28.682  23.284  22.865  0.00  0.00    +0.000 C 
ATOM     13  C   UNL     1      29.013  24.374  21.856  0.00  0.00    +0.000 C 
ATOM     14  C   UNL     1      29.216  25.673  22.633  0.00  0.00    +0.000 C 
ATOM     15  C   UNL     1      27.924  26.452  22.493  0.00  0.00    +0.000 C 
ATOM     16  C   UNL     1      26.918  26.028  23.529  0.00  0.00    +0.000 C 
ATOM     17  C   UNL     1      26.613  24.572  23.508  0.00  0.00    +0.000 C 
ENDBRANCH  10  11
ENDBRANCH   5   8
BRANCH   7  18
ATOM     18  N   UNL     1      26.625  22.777  30.470  0.00  0.00    +0.000 N 
ATOM     19  O   UNL     1      26.072  21.666  30.670  0.00  0.00    +0.000 OA
ATOM     20  O   UNL     1      26.087  23.894  31.089  0.00  0.00    +0.000 OA
ENDBRANCH   7  18
TORSDOF 3
ENDMDL
MODEL 4
REMARK VINA RESULT:      -5.7     22.395     26.353
REMARK  Name = 
REMARK  3 active torsions:
REMARK  status: ('A' for Active; 'I' for Inactive)
REMARK    1  A    between atoms: C_5  and  C_6
REMARK    2  A    between atoms: N_8  and  C_9
REMARK    3  A    between atoms: C_17  and  N_18
REMARK                            x       y       z     vdW  Elec       q    Type
REMARK                         _______ _______ _______ _____ _____    ______ ____
ROOT
ATOM      1  C   UNL     1      16.295   7.063  42.274  0.00  0.00    +0.000 C 
ATOM      2  C   UNL     1      17.174   7.744  41.268  0.00  0.00    +0.000 A 
ATOM      3  C   UNL     1      16.785   8.901  40.636  0.00  0.00    +0.000 A 
ATOM      4  C   UNL     1      17.574   9.546  39.710  0.00  0.00    +0.000 A 
ATOM      5  C   UNL     1      18.823   9.037  39.374  0.00  0.00    +0.000 A 
ATOM      6  C   UNL     1      19.203   7.872  40.016  0.00  0.00    +0.000 A 
ATOM      7  C   UNL     1      18.418   7.225  40.941  0.00  0.00    +0.000 A 
ENDROOT
BRANCH   5   8
ATOM      8  C   UNL     1      19.679   9.685  38.395  0.00  0.00    +0.000 C 
ATOM      9  O   UNL     1      19.134  10.269  37.428  0.00  0.00    +0.000 OA
ATOM     10  N   UNL     1      21.066   9.680  38.494  0.00  0.00    +0.000 NA
BRANCH  10  11
ATOM     11  C   UNL     1      21.874  10.304  37.540  0.00  0.00    +0.000 C 
ATOM     12  C   UNL     1      22.335   9.591  36.358  0.00  0.00    +0.000 C 
ATOM     13  C   UNL     1      23.758   9.924  35.933  0.00  0.00    +0.000 C 
ATOM     14  C   UNL     1      24.623   9.932  37.192  0.00  0.00    +0.000 C 
ATOM     15  C   UNL     1      24.792  11.387  37.577  0.00  0.00    +0.000 C 
ATOM     16  C   UNL     1      23.634  11.868  38.410  0.00  0.00    +0.000 C 
ATOM     17  C   UNL     1      22.310  11.688  37.756  0.00  0.00    +0.000 C 
ENDBRANCH  10  11
ENDBRANCH   5   8
BRANCH   7  18
ATOM     18  N   UNL     1      18.822   6.026  41.587  0.00  0.00    +0.000 N 
ATOM     19  O   UNL     1      18.621   4.886  41.097  0.00  0.00    +0.000 OA
ATOM     20  O   UNL     1      19.461   6.105  42.815  0.00  0.00    +0.000 OA
ENDBRANCH   7  18
TORSDOF 3
ENDMDL
MODEL 5
REMARK VINA RESULT:      -5.5     21.267     24.959
REMARK  Name = 
REMARK  3 active torsions:
REMARK  status: ('A' for Active; 'I' for Inactive)
REMARK    1  A    between atoms: C_5  and  C_6
REMARK    2  A    between atoms: N_8  and  C_9
REMARK    3  A    between atoms: C_17  and  N_18
REMARK                            x       y       z     vdW  Elec       q    Type
REMARK                         _______ _______ _______ _____ _____    ______ ____
ROOT
ATOM      1  C   UNL     1      24.554  12.446  37.577  0.00  0.00    +0.000 C 
ATOM      2  C   UNL     1      23.248  11.760  37.844  0.00  0.00    +0.000 A 
ATOM      3  C   UNL     1      22.197  12.415  38.443  0.00  0.00    +0.000 A 
ATOM      4  C   UNL     1      20.988  11.809  38.697  0.00  0.00    +0.000 A 
ATOM      5  C   UNL     1      20.781  10.479  38.348  0.00  0.00    +0.000 A 
ATOM      6  C   UNL     1      21.845   9.830  37.747  0.00  0.00    +0.000 A 
ATOM      7  C   UNL     1      23.055  10.433  37.491  0.00  0.00    +0.000 A 
ENDROOT
BRANCH   5   8
ATOM      8  C   UNL     1      19.522   9.803  38.609  0.00  0.00    +0.000 C 
ATOM      9  O   UNL     1      18.886   9.338  37.633  0.00  0.00    +0.000 OA
ATOM     10  N   UNL     1      19.005   9.655  39.892  0.00  0.00    +0.000 NA
BRANCH  10  11
ATOM     11  C   UNL     1      17.789   9.006  40.124  0.00  0.00    +0.000 C 
ATOM     12  C   UNL     1      16.522   9.714  40.011  0.00  0.00    +0.000 C 
ATOM     13  C   UNL     1      15.482   9.318  41.048  0.00  0.00    +0.000 C 
ATOM     14  C   UNL     1      16.186   9.250  42.402  0.00  0.00    +0.000 C 
ATOM     15  C   UNL     1      16.461   7.782  42.659  0.00  0.00    +0.000 C 
ATOM     16  C   UNL     1      17.745   7.346  42.006  0.00  0.00    +0.000 C 
ATOM     17  C   UNL     1      17.789   7.600  40.541  0.00  0.00    +0.000 C 
ENDBRANCH  10  11
ENDBRANCH   5   8
BRANCH   7  18
ATOM     18  N   UNL     1      24.138   9.750  36.877  0.00  0.00    +0.000 N 
ATOM     19  O   UNL     1      24.298   9.704  35.631  0.00  0.00    +0.000 OA
ATOM     20  O   UNL     1      25.063   9.097  37.678  0.00  0.00    +0.000 OA
ENDBRANCH   7  18
TORSDOF 3
ENDMDL
MODEL 6
REMARK VINA RESULT:      -5.4     17.468     19.170
REMARK  Name = 
REMARK  3 active torsions:
REMARK  status: ('A' for Active; 'I' for Inactive)
REMARK    1  A    between atoms: C_5  and  C_6
REMARK    2  A    between atoms: N_8  and  C_9
REMARK    3  A    between atoms: C_17  and  N_18
REMARK                            x       y       z     vdW  Elec       q    Type
REMARK                         _______ _______ _______ _____ _____    ______ ____
ROOT
ATOM      1  C   UNL     1      16.119  23.210  33.861  0.00  0.00    +0.000 C 
ATOM      2  C   UNL     1      16.954  22.503  34.886  0.00  0.00    +0.000 A 
ATOM      3  C   UNL     1      16.975  22.903  36.201  0.00  0.00    +0.000 A 
ATOM      4  C   UNL     1      17.731  22.269  37.161  0.00  0.00    +0.000 A 
ATOM      5  C   UNL     1      18.519  21.174  36.826  0.00  0.00    +0.000 A 
ATOM      6  C   UNL     1      18.491  20.781  35.500  0.00  0.00    +0.000 A 
ATOM      7  C   UNL     1      17.736  21.411  34.538  0.00  0.00    +0.000 A 
ENDROOT
BRANCH   5   8
ATOM      8  C   UNL     1      19.338  20.486  37.811  0.00  0.00    +0.000 C 
ATOM      9  O   UNL     1      20.135  21.169  38.497  0.00  0.00    +0.000 OA
ATOM     10  N   UNL     1      19.266  19.113  38.015  0.00  0.00    +0.000 NA
BRANCH  10  11
ATOM     11  C   UNL     1      20.064  18.468  38.962  0.00  0.00    +0.000 C 
ATOM     12  C   UNL     1      21.453  18.134  38.679  0.00  0.00    +0.000 C 
ATOM     13  C   UNL     1      21.909  16.797  39.243  0.00  0.00    +0.000 C 
ATOM     14  C   UNL     1      20.815  15.774  38.944  0.00  0.00    +0.000 C 
ATOM     15  C   UNL     1      20.020  15.622  40.225  0.00  0.00    +0.000 C 
ATOM     16  C   UNL     1      18.956  16.681  40.334  0.00  0.00    +0.000 C 
ATOM     17  C   UNL     1      19.481  18.070  40.249  0.00  0.00    +0.000 C 
ENDBRANCH  10  11
ENDBRANCH   5   8
BRANCH   7  18
ATOM     18  N   UNL     1      17.723  20.997  33.179  0.00  0.00    +0.000 N 
ATOM     19  O   UNL     1      16.840  20.238  32.706  0.00  0.00    +0.000 OA
ATOM     20  O   UNL     1      18.726  21.438  32.331  0.00  0.00    +0.000 OA
ENDBRANCH   7  18
TORSDOF 3
ENDMDL
MODEL 7
REMARK VINA RESULT:      -5.4      6.692      9.477
REMARK  Name = 
REMARK  3 active torsions:
REMARK  status: ('A' for Active; 'I' for Inactive)
REMARK    1  A    between atoms: C_5  and  C_6
REMARK    2  A    between atoms: N_8  and  C_9
REMARK    3  A    between atoms: C_17  and  N_18
REMARK                            x       y       z     vdW  Elec       q    Type
REMARK                         _______ _______ _______ _____ _____    ______ ____
ROOT
ATOM      1  C   UNL     1      22.822  27.860  30.297  0.00  0.00    +0.000 C 
ATOM      2  C   UNL     1      23.807  26.804  29.890  0.00  0.00    +0.000 A 
ATOM      3  C   UNL     1      24.013  26.480  28.570  0.00  0.00    +0.000 A 
ATOM      4  C   UNL     1      24.912  25.517  28.171  0.00  0.00    +0.000 A 
ATOM      5  C   UNL     1      25.661  24.821  29.112  0.00  0.00    +0.000 A 
ATOM      6  C   UNL     1      25.445  25.155  30.437  0.00  0.00    +0.000 A 
ATOM      7  C   UNL     1      24.548  26.117  30.840  0.00  0.00    +0.000 A 
ENDROOT
BRANCH   5   8
ATOM      8  C   UNL     1      26.612  23.791  28.729  0.00  0.00    +0.000 C 
ATOM      9  O   UNL     1      26.472  22.645  29.218  0.00  0.00    +0.000 OA
ATOM     10  N   UNL     1      27.659  24.031  27.846  0.00  0.00    +0.000 NA
BRANCH  10  11
ATOM     11  C   UNL     1      28.568  23.030  27.492  0.00  0.00    +0.000 C 
ATOM     12  C   UNL     1      29.757  22.773  28.291  0.00  0.00    +0.000 C 
ATOM     13  C   UNL     1      30.998  22.424  27.484  0.00  0.00    +0.000 C 
ATOM     14  C   UNL     1      31.076  23.404  26.315  0.00  0.00    +0.000 C 
ATOM     15  C   UNL     1      30.536  22.664  25.108  0.00  0.00    +0.000 C 
ATOM     16  C   UNL     1      29.035  22.754  25.041  0.00  0.00    +0.000 C 
ATOM     17  C   UNL     1      28.349  22.258  26.264  0.00  0.00    +0.000 C 
ENDBRANCH  10  11
ENDBRANCH   5   8
BRANCH   7  18
ATOM     18  N   UNL     1      24.334  26.444  32.205  0.00  0.00    +0.000 N 
ATOM     19  O   UNL     1      23.465  25.877  32.915  0.00  0.00    +0.000 OA
ATOM     20  O   UNL     1      25.108  27.435  32.790  0.00  0.00    +0.000 OA
ENDBRANCH   7  18
TORSDOF 3
ENDMDL
MODEL 8
REMARK VINA RESULT:      -5.4      2.547      3.176
REMARK  Name = 
REMARK  3 active torsions:
REMARK  status: ('A' for Active; 'I' for Inactive)
REMARK    1  A    between atoms: C_5  and  C_6
REMARK    2  A    between atoms: N_8  and  C_9
REMARK    3  A    between atoms: C_17  and  N_18
REMARK                            x       y       z     vdW  Elec       q    Type
REMARK                         _______ _______ _______ _____ _____    ______ ____
ROOT
ATOM      1  C   UNL     1      29.477  27.425  19.522  0.00  0.00    +0.000 C 
ATOM      2  C   UNL     1      28.956  26.557  20.629  0.00  0.00    +0.000 A 
ATOM      3  C   UNL     1      29.430  25.283  20.832  0.00  0.00    +0.000 A 
ATOM      4  C   UNL     1      28.970  24.468  21.841  0.00  0.00    +0.000 A 
ATOM      5  C   UNL     1      27.984  24.917  22.713  0.00  0.00    +0.000 A 
ATOM      6  C   UNL     1      27.514  26.200  22.499  0.00  0.00    +0.000 A 
ATOM      7  C   UNL     1      27.972  27.017  21.492  0.00  0.00    +0.000 A 
ENDROOT
BRANCH   5   8
ATOM      8  C   UNL     1      27.467  24.081  23.784  0.00  0.00    +0.000 C 
ATOM      9  O   UNL     1      26.793  23.070  23.472  0.00  0.00    +0.000 OA
ATOM     10  N   UNL     1      27.694  24.361  25.127  0.00  0.00    +0.000 NA
BRANCH  10  11
ATOM     11  C   UNL     1      27.184  23.550  26.143  0.00  0.00    +0.000 C 
ATOM     12  C   UNL     1      26.002  23.938  26.899  0.00  0.00    +0.000 C 
ATOM     13  C   UNL     1      26.054  23.588  28.378  0.00  0.00    +0.000 C 
ATOM     14  C   UNL     1      27.437  23.979  28.895  0.00  0.00    +0.000 C 
ATOM     15  C   UNL     1      28.245  22.698  28.943  0.00  0.00    +0.000 C 
ATOM     16  C   UNL     1      28.866  22.395  27.606  0.00  0.00    +0.000 C 
ATOM     17  C   UNL     1      27.882  22.307  26.494  0.00  0.00    +0.000 C 
ENDBRANCH  10  11
ENDBRANCH   5   8
BRANCH   7  18
ATOM     18  N   UNL     1      27.474  28.331  21.283  0.00  0.00    +0.000 N 
ATOM     19  O   UNL     1      27.968  29.345  21.840  0.00  0.00    +0.000 OA
ATOM     20  O   UNL     1      26.393  28.515  20.435  0.00  0.00    +0.000 OA
ENDBRANCH   7  18
TORSDOF 3
ENDMDL
MODEL 9
REMARK VINA RESULT:      -5.3      4.592      5.893
REMARK  Name = 
REMARK  3 active torsions:
REMARK  status: ('A' for Active; 'I' for Inactive)
REMARK    1  A    between atoms: C_5  and  C_6
REMARK    2  A    between atoms: N_8  and  C_9
REMARK    3  A    between atoms: C_17  and  N_18
REMARK                            x       y       z     vdW  Elec       q    Type
REMARK                         _______ _______ _______ _____ _____    ______ ____
ROOT
ATOM      1  C   UNL     1      35.724  27.240  25.489  0.00  0.00    +0.000 C 
ATOM      2  C   UNL     1      34.525  26.369  25.258  0.00  0.00    +0.000 A 
ATOM      3  C   UNL     1      33.245  26.859  25.368  0.00  0.00    +0.000 A 
ATOM      4  C   UNL     1      32.129  26.081  25.158  0.00  0.00    +0.000 A 
ATOM      5  C   UNL     1      32.261  24.740  24.818  0.00  0.00    +0.000 A 
ATOM      6  C   UNL     1      33.553  24.258  24.711  0.00  0.00    +0.000 A 
ATOM      7  C   UNL     1      34.671  25.032  24.919  0.00  0.00    +0.000 A 
ENDROOT
BRANCH   5   8
ATOM      8  C   UNL     1      31.105  23.886  24.599  0.00  0.00    +0.000 C 
ATOM      9  O   UNL     1      31.305  22.708  24.217  0.00  0.00    +0.000 OA
ATOM     10  N   UNL     1      29.801  24.326  24.798  0.00  0.00    +0.000 NA
BRANCH  10  11
ATOM     11  C   UNL     1      28.702  23.492  24.577  0.00  0.00    +0.000 C 
ATOM     12  C   UNL     1      28.028  23.458  23.287  0.00  0.00    +0.000 C 
ATOM     13  C   UNL     1      26.515  23.317  23.369  0.00  0.00    +0.000 C 
ATOM     14  C   UNL     1      26.022  24.278  24.449  0.00  0.00    +0.000 C 
ATOM     15  C   UNL     1      25.794  23.436  25.688  0.00  0.00    +0.000 C 
ATOM     16  C   UNL     1      27.069  23.263  26.470  0.00  0.00    +0.000 C 
ATOM     17  C   UNL     1      28.183  22.674  25.679  0.00  0.00    +0.000 C 
ENDBRANCH  10  11
ENDBRANCH   5   8
BRANCH   7  18
ATOM     18  N   UNL     1      35.991  24.520  24.810  0.00  0.00    +0.000 N 
ATOM     19  O   UNL     1      36.704  24.683  23.787  0.00  0.00    +0.000 OA
ATOM     20  O   UNL     1      36.525  23.802  25.869  0.00  0.00    +0.000 OA
ENDBRANCH   7  18
TORSDOF 3
ENDMDL
MODEL 10
REMARK VINA RESULT:      -5.2     21.355     23.350
REMARK  Name = 
REMARK  3 active torsions:
REMARK  status: ('A' for Active; 'I' for Inactive)
REMARK    1  A    between atoms: C_5  and  C_6
REMARK    2  A    between atoms: N_8  and  C_9
REMARK    3  A    between atoms: C_17  and  N_18
REMARK                            x       y       z     vdW  Elec       q    Type
REMARK                         _______ _______ _______ _____ _____    ______ ____
ROOT
ATOM      1  C   UNL     1       4.777  23.747  27.262  0.00  0.00    +0.000 C 
ATOM      2  C   UNL     1       5.476  23.454  25.969  0.00  0.00    +0.000 A 
ATOM      3  C   UNL     1       6.845  23.339  25.897  0.00  0.00    +0.000 A 
ATOM      4  C   UNL     1       7.509  23.069  24.722  0.00  0.00    +0.000 A 
ATOM      5  C   UNL     1       6.803  22.898  23.537  0.00  0.00    +0.000 A 
ATOM      6  C   UNL     1       5.427  23.017  23.621  0.00  0.00    +0.000 A 
ATOM      7  C   UNL     1       4.759  23.286  24.793  0.00  0.00    +0.000 A 
ENDROOT
BRANCH   5   8
ATOM      8  C   UNL     1       7.472  22.622  22.277  0.00  0.00    +0.000 C 
ATOM      9  O   UNL     1       7.244  23.384  21.307  0.00  0.00    +0.000 OA
ATOM     10  N   UNL     1       8.346  21.554  22.113  0.00  0.00    +0.000 NA
BRANCH  10  11
ATOM     11  C   UNL     1       8.976  21.300  20.892  0.00  0.00    +0.000 C 
ATOM     12  C   UNL     1       8.444  20.319  19.957  0.00  0.00    +0.000 C 
ATOM     13  C   UNL     1       9.500  19.502  19.229  0.00  0.00    +0.000 C 
ATOM     14  C   UNL     1      10.538  19.068  20.262  0.00  0.00    +0.000 C 
ATOM     15  C   UNL     1      11.706  20.022  20.111  0.00  0.00    +0.000 C 
ATOM     16  C   UNL     1      11.486  21.280  20.907  0.00  0.00    +0.000 C 
ATOM     17  C   UNL     1      10.227  21.995  20.566  0.00  0.00    +0.000 C 
ENDBRANCH  10  11
ENDBRANCH   5   8
BRANCH   7  18
ATOM     18  N   UNL     1       3.346  23.410  24.860  0.00  0.00    +0.000 N 
ATOM     19  O   UNL     1       2.583  22.428  25.043  0.00  0.00    +0.000 OA
ATOM     20  O   UNL     1       2.771  24.663  24.713  0.00  0.00    +0.000 OA
ENDBRANCH   7  18
TORSDOF 3
ENDMDL
