MODEL 1
REMARK VINA RESULT:      -7.4      0.000      0.000
REMARK  Name = 
REMARK  10 active torsions:
REMARK  status: ('A' for Active; 'I' for Inactive)
REMARK    1  A    between atoms: C_2  and  O_3
REMARK    2  A    between atoms: O_3  and  C_4
REMARK    3  A    between atoms: C_4  and  C_6
REMARK    4  A    between atoms: C_9  and  C_10
REMARK    5  A    between atoms: C_10  and  O_11
REMARK    6  A    between atoms: O_11  and  C_12
REMARK    7  A    between atoms: C_12  and  C_14
REMARK    8  A    between atoms: C_17  and  C_18
REMARK    9  A    between atoms: C_18  and  N_19
REMARK   10  A    between atoms: N_19  and  C_20
REMARK                            x       y       z     vdW  Elec       q    Type
REMARK                         _______ _______ _______ _____ _____    ______ ____
ROOT
ATOM      1  C   UNL     1      37.822   3.294  15.390  0.00  0.00    +0.000 C 
ATOM      2  O   UNL     1      37.759   3.704  14.211  0.00  0.00    +0.000 OA
ENDROOT
BRANCH   1   3
ATOM      3  C   UNL     1      36.975   2.155  15.778  0.00  0.00    +0.000 A 
ATOM      4  C   UNL     1      36.192   2.215  16.916  0.00  0.00    +0.000 A 
ATOM      5  C   UNL     1      35.407   1.132  17.259  0.00  0.00    +0.000 A 
ATOM      6  C   UNL     1      35.354  -0.031  16.520  0.00  0.00    +0.000 A 
ATOM      7  C   UNL     1      36.154  -0.066  15.378  0.00  0.00    +0.000 A 
ATOM      8  C   UNL     1      36.939   1.013  15.032  0.00  0.00    +0.000 A 
BRANCH   6   9
ATOM      9  C   UNL     1      34.512  -1.200  16.884  0.00  0.00    +0.000 C 
BRANCH   9  10
ATOM     10  N   UNL     1      35.251  -2.026  17.791  0.00  0.00    +0.000 NA
BRANCH  10  11
ATOM     11  C   UNL     1      36.380  -2.805  17.512  0.00  0.00    +0.000 A 
ATOM     12  C   UNL     1      36.345  -3.829  16.596  0.00  0.00    +0.000 A 
ATOM     13  C   UNL     1      37.455  -4.574  16.342  0.00  0.00    +0.000 A 
ATOM     14  C   UNL     1      38.624  -4.292  17.016  0.00  0.00    +0.000 A 
ATOM     15  C   UNL     1      38.659  -3.276  17.925  0.00  0.00    +0.000 A 
ATOM     16  C   UNL     1      37.543  -2.513  18.192  0.00  0.00    +0.000 A 
ATOM     17  C   UNL     1      37.574  -1.408  19.179  0.00  0.00    +0.000 C 
ENDBRANCH  10  11
ENDBRANCH   9  10
ENDBRANCH   6   9
ENDBRANCH   1   3
BRANCH   1  18
ATOM     18  O   UNL     1      38.670   3.915  16.271  0.00  0.00    +0.000 OA
BRANCH  18  19
ATOM     19  C   UNL     1      38.572   5.299  16.530  0.00  0.00    +0.000 C 
BRANCH  19  23
ATOM     20  C   UNL     1      41.559   6.523  19.341  0.00  0.00    +0.000 A 
ATOM     21  C   UNL     1      41.838   6.471  17.991  0.00  0.00    +0.000 A 
ATOM     22  C   UNL     1      40.851   6.074  17.128  0.00  0.00    +0.000 A 
ATOM     23  C   UNL     1      39.579   5.717  17.527  0.00  0.00    +0.000 A 
ATOM     24  C   UNL     1      39.319   5.775  18.878  0.00  0.00    +0.000 A 
ATOM     25  C   UNL     1      40.295   6.173  19.767  0.00  0.00    +0.000 A 
BRANCH  20  26
ATOM     26  C   UNL     1      42.589   6.945  20.301  0.00  0.00    +0.000 C 
ATOM     27  O   UNL     1      42.829   6.286  21.329  0.00  0.00    +0.000 OA
BRANCH  26  28
ATOM     28  O   UNL     1      43.314   8.091  20.072  0.00  0.00    +0.000 OA
BRANCH  28  30
ATOM     29  C   UNL     1      43.173   9.797  21.697  0.00  0.00    +0.000 C 
ATOM     30  C   UNL     1      42.738   9.370  20.303  0.00  0.00    +0.000 C 
ENDBRANCH  28  30
ENDBRANCH  26  28
ENDBRANCH  20  26
ENDBRANCH  19  23
ENDBRANCH  18  19
ENDBRANCH   1  18
TORSDOF 10
ENDMDL
MODEL 2
REMARK VINA RESULT:      -7.3      1.838      3.025
REMARK  Name = 
REMARK  10 active torsions:
REMARK  status: ('A' for Active; 'I' for Inactive)
REMARK    1  A    between atoms: C_2  and  O_3
REMARK    2  A    between atoms: O_3  and  C_4
REMARK    3  A    between atoms: C_4  and  C_6
REMARK    4  A    between atoms: C_9  and  C_10
REMARK    5  A    between atoms: C_10  and  O_11
REMARK    6  A    between atoms: O_11  and  C_12
REMARK    7  A    between atoms: C_12  and  C_14
REMARK    8  A    between atoms: C_17  and  C_18
REMARK    9  A    between atoms: C_18  and  N_19
REMARK   10  A    between atoms: N_19  and  C_20
REMARK                            x       y       z     vdW  Elec       q    Type
REMARK                         _______ _______ _______ _____ _____    ______ ____
ROOT
ATOM      1  C   UNL     1      38.855   1.874  13.879  0.00  0.00    +0.000 C 
ATOM      2  O   UNL     1      38.739   2.239  12.690  0.00  0.00    +0.000 OA
ENDROOT
BRANCH   1   3
ATOM      3  C   UNL     1      38.492   0.491  14.224  0.00  0.00    +0.000 A 
ATOM      4  C   UNL     1      39.388  -0.330  14.883  0.00  0.00    +0.000 A 
ATOM      5  C   UNL     1      39.023  -1.624  15.194  0.00  0.00    +0.000 A 
ATOM      6  C   UNL     1      37.791  -2.160  14.882  0.00  0.00    +0.000 A 
ATOM      7  C   UNL     1      36.906  -1.313  14.217  0.00  0.00    +0.000 A 
ATOM      8  C   UNL     1      37.267  -0.019  13.905  0.00  0.00    +0.000 A 
BRANCH   6   9
ATOM      9  C   UNL     1      37.391  -3.552  15.214  0.00  0.00    +0.000 C 
BRANCH   9  10
ATOM     10  N   UNL     1      36.995  -3.595  16.589  0.00  0.00    +0.000 NA
BRANCH  10  11
ATOM     11  C   UNL     1      36.429  -2.565  17.348  0.00  0.00    +0.000 A 
ATOM     12  C   UNL     1      35.184  -2.054  17.065  0.00  0.00    +0.000 A 
ATOM     13  C   UNL     1      34.655  -1.052  17.816  0.00  0.00    +0.000 A 
ATOM     14  C   UNL     1      35.383  -0.545  18.872  0.00  0.00    +0.000 A 
ATOM     15  C   UNL     1      36.618  -1.050  19.153  0.00  0.00    +0.000 A 
ATOM     16  C   UNL     1      37.166  -2.066  18.402  0.00  0.00    +0.000 A 
ATOM     17  C   UNL     1      38.508  -2.620  18.702  0.00  0.00    +0.000 C 
ENDBRANCH  10  11
ENDBRANCH   9  10
ENDBRANCH   6   9
ENDBRANCH   1   3
BRANCH   1  18
ATOM     18  O   UNL     1      39.313   2.769  14.813  0.00  0.00    +0.000 OA
BRANCH  18  19
ATOM     19  C   UNL     1      38.848   4.101  14.840  0.00  0.00    +0.000 C 
BRANCH  19  23
ATOM     20  C   UNL     1      39.755   5.917  18.609  0.00  0.00    +0.000 A 
ATOM     21  C   UNL     1      38.774   4.952  18.507  0.00  0.00    +0.000 A 
ATOM     22  C   UNL     1      38.518   4.398  17.280  0.00  0.00    +0.000 A 
ATOM     23  C   UNL     1      39.187   4.748  16.125  0.00  0.00    +0.000 A 
ATOM     24  C   UNL     1      40.162   5.712  16.246  0.00  0.00    +0.000 A 
ATOM     25  C   UNL     1      40.438   6.284  17.470  0.00  0.00    +0.000 A 
BRANCH  20  26
ATOM     26  C   UNL     1      40.061   6.536  19.907  0.00  0.00    +0.000 C 
ATOM     27  O   UNL     1      39.359   7.452  20.372  0.00  0.00    +0.000 OA
BRANCH  26  28
ATOM     28  O   UNL     1      41.143   6.102  20.637  0.00  0.00    +0.000 OA
BRANCH  28  30
ATOM     29  C   UNL     1      43.316   6.334  21.530  0.00  0.00    +0.000 C 
ATOM     30  C   UNL     1      42.461   6.497  20.281  0.00  0.00    +0.000 C 
ENDBRANCH  28  30
ENDBRANCH  26  28
ENDBRANCH  20  26
ENDBRANCH  19  23
ENDBRANCH  18  19
ENDBRANCH   1  18
TORSDOF 10
ENDMDL
MODEL 3
REMARK VINA RESULT:      -7.3      3.656      6.333
REMARK  Name = 
REMARK  10 active torsions:
REMARK  status: ('A' for Active; 'I' for Inactive)
REMARK    1  A    between atoms: C_2  and  O_3
REMARK    2  A    between atoms: O_3  and  C_4
REMARK    3  A    between atoms: C_4  and  C_6
REMARK    4  A    between atoms: C_9  and  C_10
REMARK    5  A    between atoms: C_10  and  O_11
REMARK    6  A    between atoms: O_11  and  C_12
REMARK    7  A    between atoms: C_12  and  C_14
REMARK    8  A    between atoms: C_17  and  C_18
REMARK    9  A    between atoms: C_18  and  N_19
REMARK   10  A    between atoms: N_19  and  C_20
REMARK                            x       y       z     vdW  Elec       q    Type
REMARK                         _______ _______ _______ _____ _____    ______ ____
ROOT
ATOM      1  C   UNL     1      41.251   6.617  19.136  0.00  0.00    +0.000 C 
ATOM      2  O   UNL     1      42.477   6.585  18.899  0.00  0.00    +0.000 OA
ENDROOT
BRANCH   1   3
ATOM      3  C   UNL     1      40.339   5.959  18.188  0.00  0.00    +0.000 A 
ATOM      4  C   UNL     1      40.594   5.987  16.829  0.00  0.00    +0.000 A 
ATOM      5  C   UNL     1      39.722   5.363  15.960  0.00  0.00    +0.000 A 
ATOM      6  C   UNL     1      38.587   4.697  16.373  0.00  0.00    +0.000 A 
ATOM      7  C   UNL     1      38.351   4.684  17.747  0.00  0.00    +0.000 A 
ATOM      8  C   UNL     1      39.221   5.307  18.618  0.00  0.00    +0.000 A 
BRANCH   6   9
ATOM      9  C   UNL     1      37.644   4.024  15.443  0.00  0.00    +0.000 C 
BRANCH   9  10
ATOM     10  N   UNL     1      37.817   2.608  15.567  0.00  0.00    +0.000 NA
BRANCH  10  11
ATOM     11  C   UNL     1      36.859   1.660  15.944  0.00  0.00    +0.000 A 
ATOM     12  C   UNL     1      35.726   2.010  16.638  0.00  0.00    +0.000 A 
ATOM     13  C   UNL     1      34.809   1.071  16.994  0.00  0.00    +0.000 A 
ATOM     14  C   UNL     1      35.026  -0.247  16.652  0.00  0.00    +0.000 A 
ATOM     15  C   UNL     1      36.151  -0.596  15.963  0.00  0.00    +0.000 A 
ATOM     16  C   UNL     1      37.088   0.345  15.596  0.00  0.00    +0.000 A 
ATOM     17  C   UNL     1      38.311  -0.027  14.847  0.00  0.00    +0.000 C 
ENDBRANCH  10  11
ENDBRANCH   9  10
ENDBRANCH   6   9
ENDBRANCH   1   3
BRANCH   1  18
ATOM     18  O   UNL     1      40.803   7.259  20.263  0.00  0.00    +0.000 OA
BRANCH  18  19
ATOM     19  C   UNL     1      40.525   8.642  20.256  0.00  0.00    +0.000 C 
BRANCH  19  23
ATOM     20  C   UNL     1      36.789   9.455  18.329  0.00  0.00    +0.000 A 
ATOM     21  C   UNL     1      37.985   9.756  17.709  0.00  0.00    +0.000 A 
ATOM     22  C   UNL     1      39.156   9.478  18.364  0.00  0.00    +0.000 A 
ATOM     23  C   UNL     1      39.218   8.909  19.619  0.00  0.00    +0.000 A 
ATOM     24  C   UNL     1      38.016   8.616  20.222  0.00  0.00    +0.000 A 
ATOM     25  C   UNL     1      36.823   8.886  19.584  0.00  0.00    +0.000 A 
BRANCH  20  26
ATOM     26  C   UNL     1      35.510   9.737  17.661  0.00  0.00    +0.000 C 
ATOM     27  O   UNL     1      35.461  10.381  16.598  0.00  0.00    +0.000 OA
BRANCH  26  28
ATOM     28  O   UNL     1      34.334   9.285  18.210  0.00  0.00    +0.000 OA
BRANCH  28  30
ATOM     29  C   UNL     1      32.226  10.340  18.333  0.00  0.00    +0.000 C 
ATOM     30  C   UNL     1      33.107   9.417  17.504  0.00  0.00    +0.000 C 
ENDBRANCH  28  30
ENDBRANCH  26  28
ENDBRANCH  20  26
ENDBRANCH  19  23
ENDBRANCH  18  19
ENDBRANCH   1  18
TORSDOF 10
ENDMDL
MODEL 4
REMARK VINA RESULT:      -7.2      3.452      9.191
REMARK  Name = 
REMARK  10 active torsions:
REMARK  status: ('A' for Active; 'I' for Inactive)
REMARK    1  A    between atoms: C_2  and  O_3
REMARK    2  A    between atoms: O_3  and  C_4
REMARK    3  A    between atoms: C_4  and  C_6
REMARK    4  A    between atoms: C_9  and  C_10
REMARK    5  A    between atoms: C_10  and  O_11
REMARK    6  A    between atoms: O_11  and  C_12
REMARK    7  A    between atoms: C_12  and  C_14
REMARK    8  A    between atoms: C_17  and  C_18
REMARK    9  A    between atoms: C_18  and  N_19
REMARK   10  A    between atoms: N_19  and  C_20
REMARK                            x       y       z     vdW  Elec       q    Type
REMARK                         _______ _______ _______ _____ _____    ______ ____
ROOT
ATOM      1  C   UNL     1      37.353   5.339  14.807  0.00  0.00    +0.000 C 
ATOM      2  O   UNL     1      38.037   5.382  13.763  0.00  0.00    +0.000 OA
ENDROOT
BRANCH   1   3
ATOM      3  C   UNL     1      38.024   5.598  16.091  0.00  0.00    +0.000 A 
ATOM      4  C   UNL     1      38.187   4.585  17.018  0.00  0.00    +0.000 A 
ATOM      5  C   UNL     1      38.820   4.855  18.215  0.00  0.00    +0.000 A 
ATOM      6  C   UNL     1      39.311   6.099  18.550  0.00  0.00    +0.000 A 
ATOM      7  C   UNL     1      39.134   7.103  17.599  0.00  0.00    +0.000 A 
ATOM      8  C   UNL     1      38.503   6.837  16.402  0.00  0.00    +0.000 A 
BRANCH   6   9
ATOM      9  C   UNL     1      39.992   6.396  19.837  0.00  0.00    +0.000 C 
BRANCH   9  10
ATOM     10  N   UNL     1      41.156   7.185  19.563  0.00  0.00    +0.000 NA
BRANCH  10  11
ATOM     11  C   UNL     1      42.489   6.870  19.852  0.00  0.00    +0.000 A 
ATOM     12  C   UNL     1      42.871   6.398  21.085  0.00  0.00    +0.000 A 
ATOM     13  C   UNL     1      44.173   6.099  21.343  0.00  0.00    +0.000 A 
ATOM     14  C   UNL     1      45.114   6.277  20.352  0.00  0.00    +0.000 A 
ATOM     15  C   UNL     1      44.736   6.745  19.128  0.00  0.00    +0.000 A 
ATOM     16  C   UNL     1      43.421   7.051  18.852  0.00  0.00    +0.000 A 
ATOM     17  C   UNL     1      43.002   7.560  17.525  0.00  0.00    +0.000 C 
ENDBRANCH  10  11
ENDBRANCH   9  10
ENDBRANCH   6   9
ENDBRANCH   1   3
BRANCH   1  18
ATOM     18  O   UNL     1      36.014   5.054  14.722  0.00  0.00    +0.000 OA
BRANCH  18  19
ATOM     19  C   UNL     1      35.553   3.889  14.072  0.00  0.00    +0.000 C 
BRANCH  19  23
ATOM     20  C   UNL     1      35.951   0.505  16.664  0.00  0.00    +0.000 A 
ATOM     21  C   UNL     1      35.116   1.554  16.993  0.00  0.00    +0.000 A 
ATOM     22  C   UNL     1      35.020   2.616  16.133  0.00  0.00    +0.000 A 
ATOM     23  C   UNL     1      35.713   2.707  14.943  0.00  0.00    +0.000 A 
ATOM     24  C   UNL     1      36.541   1.651  14.631  0.00  0.00    +0.000 A 
ATOM     25  C   UNL     1      36.654   0.570  15.480  0.00  0.00    +0.000 A 
BRANCH  20  26
ATOM     26  C   UNL     1      36.082  -0.654  17.559  0.00  0.00    +0.000 C 
ATOM     27  O   UNL     1      35.159  -1.476  17.696  0.00  0.00    +0.000 OA
BRANCH  26  28
ATOM     28  O   UNL     1      37.245  -0.848  18.265  0.00  0.00    +0.000 OA
BRANCH  28  30
ATOM     29  C   UNL     1      38.606  -2.355  17.062  0.00  0.00    +0.000 C 
ATOM     30  C   UNL     1      37.832  -2.140  18.354  0.00  0.00    +0.000 C 
ENDBRANCH  28  30
ENDBRANCH  26  28
ENDBRANCH  20  26
ENDBRANCH  19  23
ENDBRANCH  18  19
ENDBRANCH   1  18
TORSDOF 10
ENDMDL
MODEL 5
REMARK VINA RESULT:      -7.2      3.394     10.007
REMARK  Name = 
REMARK  10 active torsions:
REMARK  status: ('A' for Active; 'I' for Inactive)
REMARK    1  A    between atoms: C_2  and  O_3
REMARK    2  A    between atoms: O_3  and  C_4
REMARK    3  A    between atoms: C_4  and  C_6
REMARK    4  A    between atoms: C_9  and  C_10
REMARK    5  A    between atoms: C_10  and  O_11
REMARK    6  A    between atoms: O_11  and  C_12
REMARK    7  A    between atoms: C_12  and  C_14
REMARK    8  A    between atoms: C_17  and  C_18
REMARK    9  A    between atoms: C_18  and  N_19
REMARK   10  A    between atoms: N_19  and  C_20
REMARK                            x       y       z     vdW  Elec       q    Type
REMARK                         _______ _______ _______ _____ _____    ______ ____
ROOT
ATOM      1  C   UNL     1      38.160   4.840  15.138  0.00  0.00    +0.000 C 
ATOM      2  O   UNL     1      38.780   4.762  14.056  0.00  0.00    +0.000 OA
ENDROOT
BRANCH   1   3
ATOM      3  C   UNL     1      38.910   5.215  16.346  0.00  0.00    +0.000 A 
ATOM      4  C   UNL     1      38.408   4.933  17.604  0.00  0.00    +0.000 A 
ATOM      5  C   UNL     1      39.131   5.295  18.722  0.00  0.00    +0.000 A 
ATOM      6  C   UNL     1      40.352   5.935  18.662  0.00  0.00    +0.000 A 
ATOM      7  C   UNL     1      40.836   6.208  17.383  0.00  0.00    +0.000 A 
ATOM      8  C   UNL     1      40.116   5.847  16.263  0.00  0.00    +0.000 A 
BRANCH   6   9
ATOM      9  C   UNL     1      41.135   6.328  19.861  0.00  0.00    +0.000 C 
BRANCH   9  10
ATOM     10  N   UNL     1      41.081   7.754  19.991  0.00  0.00    +0.000 NA
BRANCH  10  11
ATOM     11  C   UNL     1      39.960   8.581  19.862  0.00  0.00    +0.000 A 
ATOM     12  C   UNL     1      38.824   8.386  20.613  0.00  0.00    +0.000 A 
ATOM     13  C   UNL     1      37.746   9.203  20.469  0.00  0.00    +0.000 A 
ATOM     14  C   UNL     1      37.800  10.236  19.558  0.00  0.00    +0.000 A 
ATOM     15  C   UNL     1      38.926  10.430  18.813  0.00  0.00    +0.000 A 
ATOM     16  C   UNL     1      40.025   9.611  18.948  0.00  0.00    +0.000 A 
ATOM     17  C   UNL     1      41.252   9.816  18.142  0.00  0.00    +0.000 C 
ENDBRANCH  10  11
ENDBRANCH   9  10
ENDBRANCH   6   9
ENDBRANCH   1   3
BRANCH   1  18
ATOM     18  O   UNL     1      36.814   4.576  15.159  0.00  0.00    +0.000 OA
BRANCH  18  19
ATOM     19  C   UNL     1      36.244   3.610  14.303  0.00  0.00    +0.000 C 
BRANCH  19  23
ATOM     20  C   UNL     1      35.326  -0.007  16.401  0.00  0.00    +0.000 A 
ATOM     21  C   UNL     1      36.108  -0.028  15.264  0.00  0.00    +0.000 A 
ATOM     22  C   UNL     1      36.376   1.154  14.625  0.00  0.00    +0.000 A 
ATOM     23  C   UNL     1      35.909   2.380  15.051  0.00  0.00    +0.000 A 
ATOM     24  C   UNL     1      35.131   2.382  16.187  0.00  0.00    +0.000 A 
ATOM     25  C   UNL     1      34.847   1.205  16.849  0.00  0.00    +0.000 A 
BRANCH  20  26
ATOM     26  C   UNL     1      35.016  -1.253  17.116  0.00  0.00    +0.000 C 
ATOM     27  O   UNL     1      33.877  -1.480  17.563  0.00  0.00    +0.000 OA
BRANCH  26  28
ATOM     28  O   UNL     1      35.994  -2.201  17.303  0.00  0.00    +0.000 OA
BRANCH  28  30
ATOM     29  C   UNL     1      37.289  -3.798  16.144  0.00  0.00    +0.000 C 
ATOM     30  C   UNL     1      35.901  -3.473  16.674  0.00  0.00    +0.000 C 
ENDBRANCH  28  30
ENDBRANCH  26  28
ENDBRANCH  20  26
ENDBRANCH  19  23
ENDBRANCH  18  19
ENDBRANCH   1  18
TORSDOF 10
ENDMDL
MODEL 6
REMARK VINA RESULT:      -7.1      3.874      7.677
REMARK  Name = 
REMARK  10 active torsions:
REMARK  status: ('A' for Active; 'I' for Inactive)
REMARK    1  A    between atoms: C_2  and  O_3
REMARK    2  A    between atoms: O_3  and  C_4
REMARK    3  A    between atoms: C_4  and  C_6
REMARK    4  A    between atoms: C_9  and  C_10
REMARK    5  A    between atoms: C_10  and  O_11
REMARK    6  A    between atoms: O_11  and  C_12
REMARK    7  A    between atoms: C_12  and  C_14
REMARK    8  A    between atoms: C_17  and  C_18
REMARK    9  A    between atoms: C_18  and  N_19
REMARK   10  A    between atoms: N_19  and  C_20
REMARK                            x       y       z     vdW  Elec       q    Type
REMARK                         _______ _______ _______ _____ _____    ______ ____
ROOT
ATOM      1  C   UNL     1      37.135  -3.534  16.620  0.00  0.00    +0.000 C 
ATOM      2  O   UNL     1      37.114  -4.755  16.883  0.00  0.00    +0.000 OA
ENDROOT
BRANCH   1   3
ATOM      3  C   UNL     1      38.017  -3.067  15.539  0.00  0.00    +0.000 A 
ATOM      4  C   UNL     1      37.708  -3.325  14.216  0.00  0.00    +0.000 A 
ATOM      5  C   UNL     1      38.552  -2.877  13.221  0.00  0.00    +0.000 A 
ATOM      6  C   UNL     1      39.711  -2.171  13.470  0.00  0.00    +0.000 A 
ATOM      7  C   UNL     1      40.000  -1.925  14.811  0.00  0.00    +0.000 A 
ATOM      8  C   UNL     1      39.159  -2.371  15.809  0.00  0.00    +0.000 A 
BRANCH   6   9
ATOM      9  C   UNL     1      40.625  -1.686  12.403  0.00  0.00    +0.000 C 
BRANCH   9  10
ATOM     10  N   UNL     1      39.995  -0.591  11.729  0.00  0.00    +0.000 NA
BRANCH  10  11
ATOM     11  C   UNL     1      39.806   0.711  12.206  0.00  0.00    +0.000 A 
ATOM     12  C   UNL     1      40.823   1.421  12.799  0.00  0.00    +0.000 A 
ATOM     13  C   UNL     1      40.615   2.685  13.256  0.00  0.00    +0.000 A 
ATOM     14  C   UNL     1      39.367   3.254  13.121  0.00  0.00    +0.000 A 
ATOM     15  C   UNL     1      38.357   2.551  12.532  0.00  0.00    +0.000 A 
ATOM     16  C   UNL     1      38.553   1.270  12.064  0.00  0.00    +0.000 A 
ATOM     17  C   UNL     1      37.461   0.500  11.423  0.00  0.00    +0.000 C 
ENDBRANCH  10  11
ENDBRANCH   9  10
ENDBRANCH   6   9
ENDBRANCH   1   3
BRANCH   1  18
ATOM     18  O   UNL     1      36.342  -2.679  17.343  0.00  0.00    +0.000 OA
BRANCH  18  19
ATOM     19  C   UNL     1      35.148  -2.154  16.803  0.00  0.00    +0.000 C 
BRANCH  19  23
ATOM     20  C   UNL     1      35.692   1.940  15.677  0.00  0.00    +0.000 A 
ATOM     21  C   UNL     1      36.173   0.919  14.884  0.00  0.00    +0.000 A 
ATOM     22  C   UNL     1      35.975  -0.376  15.283  0.00  0.00    +0.000 A 
ATOM     23  C   UNL     1      35.318  -0.731  16.444  0.00  0.00    +0.000 A 
ATOM     24  C   UNL     1      34.845   0.301  17.223  0.00  0.00    +0.000 A 
ATOM     25  C   UNL     1      35.031   1.614  16.842  0.00  0.00    +0.000 A 
BRANCH  20  26
ATOM     26  C   UNL     1      35.882   3.344  15.284  0.00  0.00    +0.000 C 
ATOM     27  O   UNL     1      35.367   3.804  14.249  0.00  0.00    +0.000 OA
BRANCH  26  28
ATOM     28  O   UNL     1      36.642   4.180  16.067  0.00  0.00    +0.000 OA
BRANCH  28  30
ATOM     29  C   UNL     1      38.414   4.760  17.515  0.00  0.00    +0.000 C 
ATOM     30  C   UNL     1      37.999   3.868  16.354  0.00  0.00    +0.000 C 
ENDBRANCH  28  30
ENDBRANCH  26  28
ENDBRANCH  20  26
ENDBRANCH  19  23
ENDBRANCH  18  19
ENDBRANCH   1  18
TORSDOF 10
ENDMDL
MODEL 7
REMARK VINA RESULT:      -7.1      2.076      3.165
REMARK  Name = 
REMARK  10 active torsions:
REMARK  status: ('A' for Active; 'I' for Inactive)
REMARK    1  A    between atoms: C_2  and  O_3
REMARK    2  A    between atoms: O_3  and  C_4
REMARK    3  A    between atoms: C_4  and  C_6
REMARK    4  A    between atoms: C_9  and  C_10
REMARK    5  A    between atoms: C_10  and  O_11
REMARK    6  A    between atoms: O_11  and  C_12
REMARK    7  A    between atoms: C_12  and  C_14
REMARK    8  A    between atoms: C_17  and  C_18
REMARK    9  A    between atoms: C_18  and  N_19
REMARK   10  A    between atoms: N_19  and  C_20
REMARK                            x       y       z     vdW  Elec       q    Type
REMARK                         _______ _______ _______ _____ _____    ______ ____
ROOT
ATOM      1  C   UNL     1      39.563   2.957  13.051  0.00  0.00    +0.000 C 
ATOM      2  O   UNL     1      39.811   3.219  11.855  0.00  0.00    +0.000 OA
ENDROOT
BRANCH   1   3
ATOM      3  C   UNL     1      39.345   1.552  13.427  0.00  0.00    +0.000 A 
ATOM      4  C   UNL     1      38.332   0.814  12.841  0.00  0.00    +0.000 A 
ATOM      5  C   UNL     1      38.149  -0.503  13.212  0.00  0.00    +0.000 A 
ATOM      6  C   UNL     1      38.931  -1.143  14.150  0.00  0.00    +0.000 A 
ATOM      7  C   UNL     1      39.944  -0.378  14.726  0.00  0.00    +0.000 A 
ATOM      8  C   UNL     1      40.131   0.938  14.358  0.00  0.00    +0.000 A 
BRANCH   6   9
ATOM      9  C   UNL     1      38.738  -2.560  14.554  0.00  0.00    +0.000 C 
BRANCH   9  10
ATOM     10  N   UNL     1      37.602  -2.633  15.423  0.00  0.00    +0.000 NA
BRANCH  10  11
ATOM     11  C   UNL     1      37.531  -2.256  16.769  0.00  0.00    +0.000 A 
ATOM     12  C   UNL     1      38.342  -2.821  17.725  0.00  0.00    +0.000 A 
ATOM     13  C   UNL     1      38.253  -2.439  19.027  0.00  0.00    +0.000 A 
ATOM     14  C   UNL     1      37.337  -1.474  19.385  0.00  0.00    +0.000 A 
ATOM     15  C   UNL     1      36.532  -0.913  18.438  0.00  0.00    +0.000 A 
ATOM     16  C   UNL     1      36.610  -1.290  17.115  0.00  0.00    +0.000 A 
ATOM     17  C   UNL     1      35.739  -0.684  16.080  0.00  0.00    +0.000 C 
ENDBRANCH  10  11
ENDBRANCH   9  10
ENDBRANCH   6   9
ENDBRANCH   1   3
BRANCH   1  18
ATOM     18  O   UNL     1      39.502   3.980  13.963  0.00  0.00    +0.000 OA
BRANCH  18  19
ATOM     19  C   UNL     1      38.411   4.109  14.848  0.00  0.00    +0.000 C 
BRANCH  19  23
ATOM     20  C   UNL     1      39.754   5.797  18.545  0.00  0.00    +0.000 A 
ATOM     21  C   UNL     1      40.351   6.145  17.351  0.00  0.00    +0.000 A 
ATOM     22  C   UNL     1      39.888   5.580  16.192  0.00  0.00    +0.000 A 
ATOM     23  C   UNL     1      38.849   4.673  16.141  0.00  0.00    +0.000 A 
ATOM     24  C   UNL     1      38.265   4.338  17.342  0.00  0.00    +0.000 A 
ATOM     25  C   UNL     1      38.713   4.894  18.523  0.00  0.00    +0.000 A 
BRANCH  20  26
ATOM     26  C   UNL     1      40.220   6.381  19.811  0.00  0.00    +0.000 C 
ATOM     27  O   UNL     1      39.557   7.247  20.411  0.00  0.00    +0.000 OA
BRANCH  26  28
ATOM     28  O   UNL     1      41.412   5.972  20.359  0.00  0.00    +0.000 OA
BRANCH  28  30
ATOM     29  C   UNL     1      43.160   7.275  21.264  0.00  0.00    +0.000 C 
ATOM     30  C   UNL     1      42.631   6.611  20.001  0.00  0.00    +0.000 C 
ENDBRANCH  28  30
ENDBRANCH  26  28
ENDBRANCH  20  26
ENDBRANCH  19  23
ENDBRANCH  18  19
ENDBRANCH   1  18
TORSDOF 10
ENDMDL
MODEL 8
REMARK VINA RESULT:      -7.0      4.827      6.643
REMARK  Name = 
REMARK  10 active torsions:
REMARK  status: ('A' for Active; 'I' for Inactive)
REMARK    1  A    between atoms: C_2  and  O_3
REMARK    2  A    between atoms: O_3  and  C_4
REMARK    3  A    between atoms: C_4  and  C_6
REMARK    4  A    between atoms: C_9  and  C_10
REMARK    5  A    between atoms: C_10  and  O_11
REMARK    6  A    between atoms: O_11  and  C_12
REMARK    7  A    between atoms: C_12  and  C_14
REMARK    8  A    between atoms: C_17  and  C_18
REMARK    9  A    between atoms: C_18  and  N_19
REMARK   10  A    between atoms: N_19  and  C_20
REMARK                            x       y       z     vdW  Elec       q    Type
REMARK                         _______ _______ _______ _____ _____    ______ ____
ROOT
ATOM      1  C   UNL     1      35.944   4.731  13.842  0.00  0.00    +0.000 C 
ATOM      2  O   UNL     1      35.013   5.558  13.737  0.00  0.00    +0.000 OA
ENDROOT
BRANCH   1   3
ATOM      3  C   UNL     1      35.843   3.694  14.880  0.00  0.00    +0.000 A 
ATOM      4  C   UNL     1      34.812   2.773  14.859  0.00  0.00    +0.000 A 
ATOM      5  C   UNL     1      34.740   1.810  15.845  0.00  0.00    +0.000 A 
ATOM      6  C   UNL     1      35.654   1.707  16.873  0.00  0.00    +0.000 A 
ATOM      7  C   UNL     1      36.683   2.647  16.872  0.00  0.00    +0.000 A 
ATOM      8  C   UNL     1      36.759   3.611  15.888  0.00  0.00    +0.000 A 
BRANCH   6   9
ATOM      9  C   UNL     1      35.582   0.673  17.938  0.00  0.00    +0.000 C 
BRANCH   9  10
ATOM     10  N   UNL     1      36.691  -0.219  17.780  0.00  0.00    +0.000 NA
BRANCH  10  11
ATOM     11  C   UNL     1      36.741  -1.395  17.023  0.00  0.00    +0.000 A 
ATOM     12  C   UNL     1      36.027  -1.537  15.857  0.00  0.00    +0.000 A 
ATOM     13  C   UNL     1      36.090  -2.689  15.138  0.00  0.00    +0.000 A 
ATOM     14  C   UNL     1      36.882  -3.723  15.590  0.00  0.00    +0.000 A 
ATOM     15  C   UNL     1      37.591  -3.583  16.747  0.00  0.00    +0.000 A 
ATOM     16  C   UNL     1      37.536  -2.422  17.486  0.00  0.00    +0.000 A 
ATOM     17  C   UNL     1      38.304  -2.262  18.743  0.00  0.00    +0.000 C 
ENDBRANCH  10  11
ENDBRANCH   9  10
ENDBRANCH   6   9
ENDBRANCH   1   3
BRANCH   1  18
ATOM     18  O   UNL     1      37.018   4.821  12.993  0.00  0.00    +0.000 OA
BRANCH  18  19
ATOM     19  C   UNL     1      37.233   3.861  11.980  0.00  0.00    +0.000 C 
BRANCH  19  23
ATOM     20  C   UNL     1      38.776   0.207  13.588  0.00  0.00    +0.000 A 
ATOM     21  C   UNL     1      37.592   0.223  12.881  0.00  0.00    +0.000 A 
ATOM     22  C   UNL     1      37.136   1.416  12.384  0.00  0.00    +0.000 A 
ATOM     23  C   UNL     1      37.794   2.618  12.548  0.00  0.00    +0.000 A 
ATOM     24  C   UNL     1      38.974   2.582  13.257  0.00  0.00    +0.000 A 
ATOM     25  C   UNL     1      39.454   1.394  13.766  0.00  0.00    +0.000 A 
BRANCH  20  26
ATOM     26  C   UNL     1      39.300  -1.052  14.137  0.00  0.00    +0.000 C 
ATOM     27  O   UNL     1      39.832  -1.100  15.261  0.00  0.00    +0.000 OA
BRANCH  26  28
ATOM     28  O   UNL     1      39.208  -2.213  13.405  0.00  0.00    +0.000 OA
BRANCH  28  30
ATOM     29  C   UNL     1      40.835  -1.993  11.710  0.00  0.00    +0.000 C 
ATOM     30  C   UNL     1      40.375  -2.838  12.888  0.00  0.00    +0.000 C 
ENDBRANCH  28  30
ENDBRANCH  26  28
ENDBRANCH  20  26
ENDBRANCH  19  23
ENDBRANCH  18  19
ENDBRANCH   1  18
TORSDOF 10
ENDMDL
MODEL 9
REMARK VINA RESULT:      -7.0      4.730      6.623
REMARK  Name = 
REMARK  10 active torsions:
REMARK  status: ('A' for Active; 'I' for Inactive)
REMARK    1  A    between atoms: C_2  and  O_3
REMARK    2  A    between atoms: O_3  and  C_4
REMARK    3  A    between atoms: C_4  and  C_6
REMARK    4  A    between atoms: C_9  and  C_10
REMARK    5  A    between atoms: C_10  and  O_11
REMARK    6  A    between atoms: O_11  and  C_12
REMARK    7  A    between atoms: C_12  and  C_14
REMARK    8  A    between atoms: C_17  and  C_18
REMARK    9  A    between atoms: C_18  and  N_19
REMARK   10  A    between atoms: N_19  and  C_20
REMARK                            x       y       z     vdW  Elec       q    Type
REMARK                         _______ _______ _______ _____ _____    ______ ____
ROOT
ATOM      1  C   UNL     1      41.069  -2.171  13.242  0.00  0.00    +0.000 C 
ATOM      2  O   UNL     1      41.779  -3.080  12.763  0.00  0.00    +0.000 OA
ENDROOT
BRANCH   1   3
ATOM      3  C   UNL     1      39.830  -2.547  13.940  0.00  0.00    +0.000 A 
ATOM      4  C   UNL     1      39.790  -2.612  15.320  0.00  0.00    +0.000 A 
ATOM      5  C   UNL     1      38.615  -2.968  15.950  0.00  0.00    +0.000 A 
ATOM      6  C   UNL     1      37.451  -3.269  15.273  0.00  0.00    +0.000 A 
ATOM      7  C   UNL     1      37.518  -3.196  13.882  0.00  0.00    +0.000 A 
ATOM      8  C   UNL     1      38.690  -2.840  13.249  0.00  0.00    +0.000 A 
BRANCH   6   9
ATOM      9  C   UNL     1      36.183  -3.653  15.945  0.00  0.00    +0.000 C 
BRANCH   9  10
ATOM     10  N   UNL     1      35.372  -2.482  16.089  0.00  0.00    +0.000 NA
BRANCH  10  11
ATOM     11  C   UNL     1      35.596  -1.386  16.930  0.00  0.00    +0.000 A 
ATOM     12  C   UNL     1      35.537  -1.499  18.299  0.00  0.00    +0.000 A 
ATOM     13  C   UNL     1      35.757  -0.420  19.097  0.00  0.00    +0.000 A 
ATOM     14  C   UNL     1      36.040   0.799  18.518  0.00  0.00    +0.000 A 
ATOM     15  C   UNL     1      36.098   0.912  17.160  0.00  0.00    +0.000 A 
ATOM     16  C   UNL     1      35.878  -0.173  16.340  0.00  0.00    +0.000 A 
ATOM     17  C   UNL     1      35.941  -0.057  14.864  0.00  0.00    +0.000 C 
ENDBRANCH  10  11
ENDBRANCH   9  10
ENDBRANCH   6   9
ENDBRANCH   1   3
BRANCH   1  18
ATOM     18  O   UNL     1      41.466  -0.865  13.101  0.00  0.00    +0.000 OA
BRANCH  18  19
ATOM     19  C   UNL     1      40.842  -0.006  12.171  0.00  0.00    +0.000 C 
BRANCH  19  23
ATOM     20  C   UNL     1      38.049   2.637  14.052  0.00  0.00    +0.000 A 
ATOM     21  C   UNL     1      37.940   2.330  12.711  0.00  0.00    +0.000 A 
ATOM     22  C   UNL     1      38.856   1.479  12.152  0.00  0.00    +0.000 A 
ATOM     23  C   UNL     1      39.896   0.902  12.851  0.00  0.00    +0.000 A 
ATOM     24  C   UNL     1      39.989   1.220  14.188  0.00  0.00    +0.000 A 
ATOM     25  C   UNL     1      39.079   2.073  14.774  0.00  0.00    +0.000 A 
BRANCH  20  26
ATOM     26  C   UNL     1      37.086   3.546  14.691  0.00  0.00    +0.000 C 
ATOM     27  O   UNL     1      37.362   4.150  15.743  0.00  0.00    +0.000 OA
BRANCH  26  28
ATOM     28  O   UNL     1      35.849   3.744  14.125  0.00  0.00    +0.000 OA
BRANCH  28  30
ATOM     29  C   UNL     1      35.934   5.510  12.562  0.00  0.00    +0.000 C 
ATOM     30  C   UNL     1      35.359   5.059  13.896  0.00  0.00    +0.000 C 
ENDBRANCH  28  30
ENDBRANCH  26  28
ENDBRANCH  20  26
ENDBRANCH  19  23
ENDBRANCH  18  19
ENDBRANCH   1  18
TORSDOF 10
ENDMDL
MODEL 10
REMARK VINA RESULT:      -7.0      4.098      6.656
REMARK  Name = 
REMARK  10 active torsions:
REMARK  status: ('A' for Active; 'I' for Inactive)
REMARK    1  A    between atoms: C_2  and  O_3
REMARK    2  A    between atoms: O_3  and  C_4
REMARK    3  A    between atoms: C_4  and  C_6
REMARK    4  A    between atoms: C_9  and  C_10
REMARK    5  A    between atoms: C_10  and  O_11
REMARK    6  A    between atoms: O_11  and  C_12
REMARK    7  A    between atoms: C_12  and  C_14
REMARK    8  A    between atoms: C_17  and  C_18
REMARK    9  A    between atoms: C_18  and  N_19
REMARK   10  A    between atoms: N_19  and  C_20
REMARK                            x       y       z     vdW  Elec       q    Type
REMARK                         _______ _______ _______ _____ _____    ______ ____
ROOT
ATOM      1  C   UNL     1      40.187   6.492  19.895  0.00  0.00    +0.000 C 
ATOM      2  O   UNL     1      41.341   6.274  20.320  0.00  0.00    +0.000 OA
ENDROOT
BRANCH   1   3
ATOM      3  C   UNL     1      39.797   5.905  18.604  0.00  0.00    +0.000 A 
ATOM      4  C   UNL     1      40.502   6.201  17.452  0.00  0.00    +0.000 A 
ATOM      5  C   UNL     1      40.114   5.637  16.254  0.00  0.00    +0.000 A 
ATOM      6  C   UNL     1      39.044   4.776  16.131  0.00  0.00    +0.000 A 
ATOM      7  C   UNL     1      38.349   4.494  17.306  0.00  0.00    +0.000 A 
ATOM      8  C   UNL     1      38.733   5.055  18.506  0.00  0.00    +0.000 A 
BRANCH   6   9
ATOM      9  C   UNL     1      38.621   4.166  14.844  0.00  0.00    +0.000 C 
BRANCH   9  10
ATOM     10  N   UNL     1      37.367   3.504  15.046  0.00  0.00    +0.000 NA
BRANCH  10  11
ATOM     11  C   UNL     1      37.133   2.127  15.136  0.00  0.00    +0.000 A 
ATOM     12  C   UNL     1      38.076   1.204  14.746  0.00  0.00    +0.000 A 
ATOM     13  C   UNL     1      37.825  -0.129  14.842  0.00  0.00    +0.000 A 
ATOM     14  C   UNL     1      36.609  -0.553  15.334  0.00  0.00    +0.000 A 
ATOM     15  C   UNL     1      35.674   0.362  15.721  0.00  0.00    +0.000 A 
ATOM     16  C   UNL     1      35.914   1.715  15.630  0.00  0.00    +0.000 A 
ATOM     17  C   UNL     1      34.902   2.715  16.048  0.00  0.00    +0.000 C 
ENDBRANCH  10  11
ENDBRANCH   9  10
ENDBRANCH   6   9
ENDBRANCH   1   3
BRANCH   1  18
ATOM     18  O   UNL     1      39.333   7.265  20.640  0.00  0.00    +0.000 OA
BRANCH  18  19
ATOM     19  C   UNL     1      39.439   8.672  20.651  0.00  0.00    +0.000 C 
BRANCH  19  23
ATOM     20  C   UNL     1      36.433  10.343  18.103  0.00  0.00    +0.000 A 
ATOM     21  C   UNL     1      36.387   9.015  18.473  0.00  0.00    +0.000 A 
ATOM     22  C   UNL     1      37.371   8.523  19.290  0.00  0.00    +0.000 A 
ATOM     23  C   UNL     1      38.418   9.281  19.773  0.00  0.00    +0.000 A 
ATOM     24  C   UNL     1      38.447  10.604  19.394  0.00  0.00    +0.000 A 
ATOM     25  C   UNL     1      37.468  11.123  18.572  0.00  0.00    +0.000 A 
BRANCH  20  26
ATOM     26  C   UNL     1      35.396  10.910  17.228  0.00  0.00    +0.000 C 
ATOM     27  O   UNL     1      35.614  11.132  16.023  0.00  0.00    +0.000 OA
BRANCH  26  28
ATOM     28  O   UNL     1      34.154  11.206  17.736  0.00  0.00    +0.000 OA
BRANCH  28  30
ATOM     29  C   UNL     1      32.662   9.517  18.439  0.00  0.00    +0.000 C 
ATOM     30  C   UNL     1      33.006  10.481  17.313  0.00  0.00    +0.000 C 
ENDBRANCH  28  30
ENDBRANCH  26  28
ENDBRANCH  20  26
ENDBRANCH  19  23
ENDBRANCH  18  19
ENDBRANCH   1  18
TORSDOF 10
ENDMDL
