MODEL 1
REMARK VINA RESULT:      -7.8      0.000      0.000
REMARK  Name = 
REMARK  7 active torsions:
REMARK  status: ('A' for Active; 'I' for Inactive)
REMARK    1  A    between atoms: O_2  and  C_3
REMARK    2  A    between atoms: C_8  and  O_9
REMARK    3  A    between atoms: O_9  and  C_10
REMARK    4  A    between atoms: C_10  and  C_11
REMARK    5  A    between atoms: C_17  and  C_18
REMARK    6  A    between atoms: C_20  and  C_21
REMARK    7  A    between atoms: C_29  and  O_30
REMARK                            x       y       z     vdW  Elec       q    Type
REMARK                         _______ _______ _______ _____ _____    ______ ____
ROOT
ATOM      1  C   UNL     1      37.318  -3.658  15.152  0.00  0.00    +0.000 A 
ATOM      2  C   UNL     1      37.723  -3.396  13.851  0.00  0.00    +0.000 A 
ATOM      3  C   UNL     1      39.007  -2.835  13.655  0.00  0.00    +0.000 A 
ATOM      4  C   UNL     1      39.818  -2.561  14.671  0.00  0.00    +0.000 A 
ATOM      5  C   UNL     1      39.403  -2.825  15.956  0.00  0.00    +0.000 A 
ATOM      6  C   UNL     1      38.141  -3.381  16.223  0.00  0.00    +0.000 A 
ATOM      7  C   UNL     1      41.260  -1.940  14.553  0.00  0.00    +0.000 C 
ATOM      8  N   UNL     1      41.520  -2.383  13.078  0.00  0.00    +0.000 NA
ATOM      9  C   UNL     1      40.587  -1.787  12.212  0.00  0.00    +0.000 C 
ATOM     10  C   UNL     1      39.319  -2.607  12.220  0.00  0.00    +0.000 C 
ENDROOT
BRANCH   7  11
ATOM     11  C   UNL     1      40.849  -0.441  14.237  0.00  0.00    +0.000 A 
ATOM     12  C   UNL     1      39.606   0.020  14.498  0.00  0.00    +0.000 A 
ATOM     13  C   UNL     1      39.256   1.316  14.223  0.00  0.00    +0.000 A 
ATOM     14  C   UNL     1      40.246   2.111  13.670  0.00  0.00    +0.000 A 
ATOM     15  C   UNL     1      41.514   1.626  13.409  0.00  0.00    +0.000 A 
ATOM     16  C   UNL     1      41.857   0.317  13.689  0.00  0.00    +0.000 A 
BRANCH  13  17
ATOM     17  C   UNL     1      37.913   1.852  14.491  0.00  0.00    +0.000 A 
ATOM     18  C   UNL     1      37.787   2.978  15.264  0.00  0.00    +0.000 A 
ATOM     19  C   UNL     1      36.545   3.556  15.569  0.00  0.00    +0.000 A 
ATOM     20  C   UNL     1      35.401   2.983  15.080  0.00  0.00    +0.000 A 
ATOM     21  C   UNL     1      35.503   1.858  14.306  0.00  0.00    +0.000 A 
ATOM     22  C   UNL     1      36.753   1.296  14.012  0.00  0.00    +0.000 A 
ENDBRANCH  13  17
BRANCH  16  23
ATOM     23  O   UNL     1      43.121  -0.128  13.420  0.00  0.00    +0.000 OA
ATOM     24  C   UNL     1      44.281   0.158  14.108  0.00  0.00    +0.000 C 
ENDBRANCH  16  23
ENDBRANCH   7  11
BRANCH   1  26
ATOM     25  C   UNL     1      34.958  -4.045  14.576  0.00  0.00    +0.000 C 
ATOM     26  O   UNL     1      36.075  -4.205  15.435  0.00  0.00    +0.000 OA
ENDBRANCH   1  26
BRANCH   6  27
ATOM     27  O   UNL     1      37.708  -3.651  17.471  0.00  0.00    +0.000 OA
BRANCH  27  28
ATOM     28  C   UNL     1      37.260  -2.842  18.484  0.00  0.00    +0.000 C 
BRANCH  28  29
ATOM     29  C   UNL     1      36.439  -1.710  18.140  0.00  0.00    +0.000 A 
ATOM     30  C   UNL     1      35.189  -1.893  17.612  0.00  0.00    +0.000 A 
ATOM     31  C   UNL     1      34.365  -0.838  17.269  0.00  0.00    +0.000 A 
ATOM     32  C   UNL     1      34.818   0.430  17.464  0.00  0.00    +0.000 A 
ATOM     33  C   UNL     1      36.050   0.669  17.985  0.00  0.00    +0.000 A 
ATOM     34  C   UNL     1      36.869  -0.420  18.326  0.00  0.00    +0.000 A 
ENDBRANCH  28  29
ENDBRANCH  27  28
ENDBRANCH   6  27
TORSDOF 7
ENDMDL
MODEL 2
REMARK VINA RESULT:      -7.2      3.155      5.834
REMARK  Name = 
REMARK  7 active torsions:
REMARK  status: ('A' for Active; 'I' for Inactive)
REMARK    1  A    between atoms: O_2  and  C_3
REMARK    2  A    between atoms: C_8  and  O_9
REMARK    3  A    between atoms: O_9  and  C_10
REMARK    4  A    between atoms: C_10  and  C_11
REMARK    5  A    between atoms: C_17  and  C_18
REMARK    6  A    between atoms: C_20  and  C_21
REMARK    7  A    between atoms: C_29  and  O_30
REMARK                            x       y       z     vdW  Elec       q    Type
REMARK                         _______ _______ _______ _____ _____    ______ ____
ROOT
ATOM      1  C   UNL     1      37.862   3.606  16.200  0.00  0.00    +0.000 A 
ATOM      2  C   UNL     1      38.982   3.864  15.423  0.00  0.00    +0.000 A 
ATOM      3  C   UNL     1      38.859   3.740  14.019  0.00  0.00    +0.000 A 
ATOM      4  C   UNL     1      37.716   3.389  13.440  0.00  0.00    +0.000 A 
ATOM      5  C   UNL     1      36.613   3.135  14.224  0.00  0.00    +0.000 A 
ATOM      6  C   UNL     1      36.665   3.239  15.624  0.00  0.00    +0.000 A 
ATOM      7  C   UNL     1      37.481   3.226  11.891  0.00  0.00    +0.000 C 
ATOM      8  N   UNL     1      38.660   4.147  11.440  0.00  0.00    +0.000 NA
ATOM      9  C   UNL     1      39.890   3.622  11.874  0.00  0.00    +0.000 C 
ATOM     10  C   UNL     1      40.125   4.045  13.304  0.00  0.00    +0.000 C 
ENDROOT
BRANCH   7  11
ATOM     11  C   UNL     1      38.224   1.840  11.682  0.00  0.00    +0.000 A 
ATOM     12  C   UNL     1      38.522   1.034  12.726  0.00  0.00    +0.000 A 
ATOM     13  C   UNL     1      39.164  -0.161  12.539  0.00  0.00    +0.000 A 
ATOM     14  C   UNL     1      39.483  -0.486  11.231  0.00  0.00    +0.000 A 
ATOM     15  C   UNL     1      39.172   0.349  10.174  0.00  0.00    +0.000 A 
ATOM     16  C   UNL     1      38.524   1.554  10.372  0.00  0.00    +0.000 A 
BRANCH  13  17
ATOM     17  C   UNL     1      39.506  -1.064  13.650  0.00  0.00    +0.000 A 
ATOM     18  C   UNL     1      38.807  -0.967  14.827  0.00  0.00    +0.000 A 
ATOM     19  C   UNL     1      39.068  -1.786  15.935  0.00  0.00    +0.000 A 
ATOM     20  C   UNL     1      40.058  -2.729  15.854  0.00  0.00    +0.000 A 
ATOM     21  C   UNL     1      40.769  -2.843  14.688  0.00  0.00    +0.000 A 
ATOM     22  C   UNL     1      40.493  -2.015  13.591  0.00  0.00    +0.000 A 
ENDBRANCH  13  17
BRANCH  16  23
ATOM     23  O   UNL     1      38.231   2.353   9.303  0.00  0.00    +0.000 OA
ATOM     24  C   UNL     1      37.323   2.113   8.294  0.00  0.00    +0.000 C 
ENDBRANCH  16  23
ENDBRANCH   7  11
BRANCH   1  26
ATOM     25  C   UNL     1      38.637   4.703  18.260  0.00  0.00    +0.000 C 
ATOM     26  O   UNL     1      37.894   3.703  17.583  0.00  0.00    +0.000 OA
ENDBRANCH   1  26
BRANCH   6  27
ATOM     27  O   UNL     1      35.601   2.997  16.416  0.00  0.00    +0.000 OA
BRANCH  27  28
ATOM     28  C   UNL     1      34.762   1.918  16.524  0.00  0.00    +0.000 C 
BRANCH  28  29
ATOM     29  C   UNL     1      35.276   0.711  17.120  0.00  0.00    +0.000 A 
ATOM     30  C   UNL     1      35.072  -0.502  16.520  0.00  0.00    +0.000 A 
ATOM     31  C   UNL     1      35.549  -1.684  17.053  0.00  0.00    +0.000 A 
ATOM     32  C   UNL     1      36.246  -1.637  18.220  0.00  0.00    +0.000 A 
ATOM     33  C   UNL     1      36.477  -0.460  18.858  0.00  0.00    +0.000 A 
ATOM     34  C   UNL     1      35.983   0.730  18.296  0.00  0.00    +0.000 A 
ENDBRANCH  28  29
ENDBRANCH  27  28
ENDBRANCH   6  27
TORSDOF 7
ENDMDL
MODEL 3
REMARK VINA RESULT:      -7.1      3.272      6.773
REMARK  Name = 
REMARK  7 active torsions:
REMARK  status: ('A' for Active; 'I' for Inactive)
REMARK    1  A    between atoms: O_2  and  C_3
REMARK    2  A    between atoms: C_8  and  O_9
REMARK    3  A    between atoms: O_9  and  C_10
REMARK    4  A    between atoms: C_10  and  C_11
REMARK    5  A    between atoms: C_17  and  C_18
REMARK    6  A    between atoms: C_20  and  C_21
REMARK    7  A    between atoms: C_29  and  O_30
REMARK                            x       y       z     vdW  Elec       q    Type
REMARK                         _______ _______ _______ _____ _____    ______ ____
ROOT
ATOM      1  C   UNL     1      37.936   3.684  13.700  0.00  0.00    +0.000 A 
ATOM      2  C   UNL     1      37.694   2.581  12.895  0.00  0.00    +0.000 A 
ATOM      3  C   UNL     1      37.486   1.331  13.524  0.00  0.00    +0.000 A 
ATOM      4  C   UNL     1      37.516   1.194  14.846  0.00  0.00    +0.000 A 
ATOM      5  C   UNL     1      37.757   2.297  15.633  0.00  0.00    +0.000 A 
ATOM      6  C   UNL     1      37.972   3.568  15.073  0.00  0.00    +0.000 A 
ATOM      7  C   UNL     1      37.295  -0.150  15.636  0.00  0.00    +0.000 C 
ATOM      8  N   UNL     1      36.496  -0.883  14.511  0.00  0.00    +0.000 NA
ATOM      9  C   UNL     1      37.292  -1.038  13.363  0.00  0.00    +0.000 C 
ATOM     10  C   UNL     1      37.235   0.235  12.553  0.00  0.00    +0.000 C 
ENDROOT
BRANCH   7  11
ATOM     11  C   UNL     1      38.701  -0.827  15.351  0.00  0.00    +0.000 A 
ATOM     12  C   UNL     1      39.712  -0.139  14.777  0.00  0.00    +0.000 A 
ATOM     13  C   UNL     1      40.924  -0.729  14.533  0.00  0.00    +0.000 A 
ATOM     14  C   UNL     1      41.044  -2.057  14.909  0.00  0.00    +0.000 A 
ATOM     15  C   UNL     1      40.000  -2.748  15.495  0.00  0.00    +0.000 A 
ATOM     16  C   UNL     1      38.781  -2.144  15.737  0.00  0.00    +0.000 A 
BRANCH  13  17
ATOM     17  C   UNL     1      42.048  -0.013  13.908  0.00  0.00    +0.000 A 
ATOM     18  C   UNL     1      41.783   1.018  13.043  0.00  0.00    +0.000 A 
ATOM     19  C   UNL     1      42.792   1.752  12.403  0.00  0.00    +0.000 A 
ATOM     20  C   UNL     1      44.104   1.440  12.644  0.00  0.00    +0.000 A 
ATOM     21  C   UNL     1      44.392   0.413  13.505  0.00  0.00    +0.000 A 
ATOM     22  C   UNL     1      43.369  -0.309  14.134  0.00  0.00    +0.000 A 
ENDBRANCH  13  17
BRANCH  16  23
ATOM     23  O   UNL     1      37.772  -2.857  16.321  0.00  0.00    +0.000 OA
ATOM     24  C   UNL     1      37.414  -4.166  16.076  0.00  0.00    +0.000 C 
ENDBRANCH  16  23
ENDBRANCH   7  11
BRANCH   1  26
ATOM     25  C   UNL     1      38.864   5.150  11.958  0.00  0.00    +0.000 C 
ATOM     26  O   UNL     1      38.151   4.946  13.167  0.00  0.00    +0.000 OA
ENDBRANCH   1  26
BRANCH   6  27
ATOM     27  O   UNL     1      38.211   4.666  15.820  0.00  0.00    +0.000 OA
BRANCH  27  28
ATOM     28  C   UNL     1      38.191   4.878  17.175  0.00  0.00    +0.000 C 
BRANCH  28  29
ATOM     29  C   UNL     1      39.341   5.493  17.785  0.00  0.00    +0.000 A 
ATOM     30  C   UNL     1      39.341   5.799  19.120  0.00  0.00    +0.000 A 
ATOM     31  C   UNL     1      40.421   6.387  19.748  0.00  0.00    +0.000 A 
ATOM     32  C   UNL     1      41.527   6.673  19.008  0.00  0.00    +0.000 A 
ATOM     33  C   UNL     1      41.581   6.392  17.680  0.00  0.00    +0.000 A 
ATOM     34  C   UNL     1      40.470   5.793  17.063  0.00  0.00    +0.000 A 
ENDBRANCH  28  29
ENDBRANCH  27  28
ENDBRANCH   6  27
TORSDOF 7
ENDMDL
MODEL 4
REMARK VINA RESULT:      -7.1      2.017      6.030
REMARK  Name = 
REMARK  7 active torsions:
REMARK  status: ('A' for Active; 'I' for Inactive)
REMARK    1  A    between atoms: O_2  and  C_3
REMARK    2  A    between atoms: C_8  and  O_9
REMARK    3  A    between atoms: O_9  and  C_10
REMARK    4  A    between atoms: C_10  and  C_11
REMARK    5  A    between atoms: C_17  and  C_18
REMARK    6  A    between atoms: C_20  and  C_21
REMARK    7  A    between atoms: C_29  and  O_30
REMARK                            x       y       z     vdW  Elec       q    Type
REMARK                         _______ _______ _______ _____ _____    ______ ____
ROOT
ATOM      1  C   UNL     1      41.060  -1.799  13.688  0.00  0.00    +0.000 A 
ATOM      2  C   UNL     1      40.767  -2.199  14.984  0.00  0.00    +0.000 A 
ATOM      3  C   UNL     1      39.482  -2.731  15.242  0.00  0.00    +0.000 A 
ATOM      4  C   UNL     1      38.566  -2.854  14.286  0.00  0.00    +0.000 A 
ATOM      5  C   UNL     1      38.870  -2.454  13.005  0.00  0.00    +0.000 A 
ATOM      6  C   UNL     1      40.127  -1.917  12.680  0.00  0.00    +0.000 A 
ATOM      7  C   UNL     1      37.114  -3.434  14.474  0.00  0.00    +0.000 C 
ATOM      8  N   UNL     1      37.424  -4.265  15.760  0.00  0.00    +0.000 NA
ATOM      9  C   UNL     1      37.824  -3.419  16.809  0.00  0.00    +0.000 C 
ATOM     10  C   UNL     1      39.298  -3.122  16.663  0.00  0.00    +0.000 C 
ENDROOT
BRANCH   7  11
ATOM     11  C   UNL     1      36.453  -2.188  15.201  0.00  0.00    +0.000 A 
ATOM     12  C   UNL     1      37.024  -0.964  15.162  0.00  0.00    +0.000 A 
ATOM     13  C   UNL     1      36.448   0.108  15.791  0.00  0.00    +0.000 A 
ATOM     14  C   UNL     1      35.261  -0.140  16.459  0.00  0.00    +0.000 A 
ATOM     15  C   UNL     1      34.689  -1.398  16.490  0.00  0.00    +0.000 A 
ATOM     16  C   UNL     1      35.277  -2.474  15.852  0.00  0.00    +0.000 A 
BRANCH  13  17
ATOM     17  C   UNL     1      37.041   1.455  15.773  0.00  0.00    +0.000 A 
ATOM     18  C   UNL     1      38.188   1.669  15.052  0.00  0.00    +0.000 A 
ATOM     19  C   UNL     1      38.819   2.919  14.981  0.00  0.00    +0.000 A 
ATOM     20  C   UNL     1      38.278   3.983  15.653  0.00  0.00    +0.000 A 
ATOM     21  C   UNL     1      37.132   3.792  16.380  0.00  0.00    +0.000 A 
ATOM     22  C   UNL     1      36.516   2.535  16.438  0.00  0.00    +0.000 A 
ENDBRANCH  13  17
BRANCH  16  23
ATOM     23  O   UNL     1      34.682  -3.704  15.902  0.00  0.00    +0.000 OA
ATOM     24  C   UNL     1      33.638  -4.168  15.130  0.00  0.00    +0.000 C 
ENDBRANCH  16  23
ENDBRANCH   7  11
BRANCH   1  26
ATOM     25  C   UNL     1      43.206  -0.777  14.318  0.00  0.00    +0.000 C 
ATOM     26  O   UNL     1      42.294  -1.267  13.348  0.00  0.00    +0.000 OA
ENDBRANCH   1  26
BRANCH   6  27
ATOM     27  O   UNL     1      40.452  -1.516  11.434  0.00  0.00    +0.000 OA
BRANCH  27  28
ATOM     28  C   UNL     1      39.753  -0.822  10.480  0.00  0.00    +0.000 C 
BRANCH  28  29
ATOM     29  C   UNL     1      39.232   0.475  10.825  0.00  0.00    +0.000 A 
ATOM     30  C   UNL     1      37.924   0.622  11.202  0.00  0.00    +0.000 A 
ATOM     31  C   UNL     1      37.381   1.845  11.544  0.00  0.00    +0.000 A 
ATOM     32  C   UNL     1      38.181   2.945  11.502  0.00  0.00    +0.000 A 
ATOM     33  C   UNL     1      39.486   2.857  11.136  0.00  0.00    +0.000 A 
ATOM     34  C   UNL     1      40.015   1.602  10.793  0.00  0.00    +0.000 A 
ENDBRANCH  28  29
ENDBRANCH  27  28
ENDBRANCH   6  27
TORSDOF 7
ENDMDL
MODEL 5
REMARK VINA RESULT:      -7.0      4.397      8.025
REMARK  Name = 
REMARK  7 active torsions:
REMARK  status: ('A' for Active; 'I' for Inactive)
REMARK    1  A    between atoms: O_2  and  C_3
REMARK    2  A    between atoms: C_8  and  O_9
REMARK    3  A    between atoms: O_9  and  C_10
REMARK    4  A    between atoms: C_10  and  C_11
REMARK    5  A    between atoms: C_17  and  C_18
REMARK    6  A    between atoms: C_20  and  C_21
REMARK    7  A    between atoms: C_29  and  O_30
REMARK                            x       y       z     vdW  Elec       q    Type
REMARK                         _______ _______ _______ _____ _____    ______ ____
ROOT
ATOM      1  C   UNL     1      38.746   5.049  15.920  0.00  0.00    +0.000 A 
ATOM      2  C   UNL     1      37.972   4.561  14.877  0.00  0.00    +0.000 A 
ATOM      3  C   UNL     1      36.976   3.603  15.179  0.00  0.00    +0.000 A 
ATOM      4  C   UNL     1      36.769   3.170  16.418  0.00  0.00    +0.000 A 
ATOM      5  C   UNL     1      37.543   3.662  17.444  0.00  0.00    +0.000 A 
ATOM      6  C   UNL     1      38.551   4.615  17.214  0.00  0.00    +0.000 A 
ATOM      7  C   UNL     1      35.687   2.110  16.853  0.00  0.00    +0.000 C 
ATOM      8  N   UNL     1      34.739   2.319  15.629  0.00  0.00    +0.000 NA
ATOM      9  C   UNL     1      35.395   1.983  14.433  0.00  0.00    +0.000 C 
ATOM     10  C   UNL     1      36.219   3.165  13.978  0.00  0.00    +0.000 C 
ENDROOT
BRANCH   7  11
ATOM     11  C   UNL     1      36.408   0.802  16.321  0.00  0.00    +0.000 A 
ATOM     12  C   UNL     1      37.650   0.846  15.790  0.00  0.00    +0.000 A 
ATOM     13  C   UNL     1      38.268  -0.287  15.331  0.00  0.00    +0.000 A 
ATOM     14  C   UNL     1      37.548  -1.464  15.447  0.00  0.00    +0.000 A 
ATOM     15  C   UNL     1      36.278  -1.495  15.992  0.00  0.00    +0.000 A 
ATOM     16  C   UNL     1      35.663  -0.345  16.451  0.00  0.00    +0.000 A 
BRANCH  13  17
ATOM     17  C   UNL     1      39.618  -0.277  14.746  0.00  0.00    +0.000 A 
ATOM     18  C   UNL     1      40.380  -1.416  14.809  0.00  0.00    +0.000 A 
ATOM     19  C   UNL     1      41.676  -1.494  14.278  0.00  0.00    +0.000 A 
ATOM     20  C   UNL     1      42.217  -0.395  13.665  0.00  0.00    +0.000 A 
ATOM     21  C   UNL     1      41.473   0.753  13.590  0.00  0.00    +0.000 A 
ATOM     22  C   UNL     1      40.179   0.811  14.127  0.00  0.00    +0.000 A 
ENDBRANCH  13  17
BRANCH  16  23
ATOM     23  O   UNL     1      34.407  -0.413  16.986  0.00  0.00    +0.000 OA
ATOM     24  C   UNL     1      33.737  -1.535  17.427  0.00  0.00    +0.000 C 
ENDBRANCH  16  23
ENDBRANCH   7  11
BRANCH   1  26
ATOM     25  C   UNL     1      40.671   5.892  14.644  0.00  0.00    +0.000 C 
ATOM     26  O   UNL     1      39.744   5.989  15.712  0.00  0.00    +0.000 OA
ENDBRANCH   1  26
BRANCH   6  27
ATOM     27  O   UNL     1      39.324   5.115  18.199  0.00  0.00    +0.000 OA
BRANCH  27  28
ATOM     28  C   UNL     1      39.112   6.111  19.118  0.00  0.00    +0.000 C 
BRANCH  28  29
ATOM     29  C   UNL     1      40.257   6.808  19.644  0.00  0.00    +0.000 A 
ATOM     30  C   UNL     1      41.347   6.113  20.097  0.00  0.00    +0.000 A 
ATOM     31  C   UNL     1      42.468   6.739  20.607  0.00  0.00    +0.000 A 
ATOM     32  C   UNL     1      42.485   8.099  20.662  0.00  0.00    +0.000 A 
ATOM     33  C   UNL     1      41.431   8.837  20.226  0.00  0.00    +0.000 A 
ATOM     34  C   UNL     1      40.303   8.178  19.711  0.00  0.00    +0.000 A 
ENDBRANCH  28  29
ENDBRANCH  27  28
ENDBRANCH   6  27
TORSDOF 7
ENDMDL
MODEL 6
REMARK VINA RESULT:      -6.8      3.684      7.406
REMARK  Name = 
REMARK  7 active torsions:
REMARK  status: ('A' for Active; 'I' for Inactive)
REMARK    1  A    between atoms: O_2  and  C_3
REMARK    2  A    between atoms: C_8  and  O_9
REMARK    3  A    between atoms: O_9  and  C_10
REMARK    4  A    between atoms: C_10  and  C_11
REMARK    5  A    between atoms: C_17  and  C_18
REMARK    6  A    between atoms: C_20  and  C_21
REMARK    7  A    between atoms: C_29  and  O_30
REMARK                            x       y       z     vdW  Elec       q    Type
REMARK                         _______ _______ _______ _____ _____    ______ ____
ROOT
ATOM      1  C   UNL     1      39.150   4.716  14.436  0.00  0.00    +0.000 A 
ATOM      2  C   UNL     1      38.659   3.879  13.445  0.00  0.00    +0.000 A 
ATOM      3  C   UNL     1      37.805   2.819  13.832  0.00  0.00    +0.000 A 
ATOM      4  C   UNL     1      37.469   2.614  15.101  0.00  0.00    +0.000 A 
ATOM      5  C   UNL     1      37.963   3.452  16.074  0.00  0.00    +0.000 A 
ATOM      6  C   UNL     1      38.816   4.524  15.760  0.00  0.00    +0.000 A 
ATOM      7  C   UNL     1      36.527   1.467  15.628  0.00  0.00    +0.000 C 
ATOM      8  N   UNL     1      35.778   1.224  14.279  0.00  0.00    +0.000 NA
ATOM      9  C   UNL     1      36.675   0.793  13.287  0.00  0.00    +0.000 C 
ATOM     10  C   UNL     1      37.349   2.001  12.679  0.00  0.00    +0.000 C 
ENDROOT
BRANCH   7  11
ATOM     11  C   UNL     1      37.542   0.253  15.510  0.00  0.00    +0.000 A 
ATOM     12  C   UNL     1      38.785   0.419  15.007  0.00  0.00    +0.000 A 
ATOM     13  C   UNL     1      39.657  -0.633  14.907  0.00  0.00    +0.000 A 
ATOM     14  C   UNL     1      39.188  -1.859  15.350  0.00  0.00    +0.000 A 
ATOM     15  C   UNL     1      37.913  -2.013  15.862  0.00  0.00    +0.000 A 
ATOM     16  C   UNL     1      37.041  -0.945  15.958  0.00  0.00    +0.000 A 
BRANCH  13  17
ATOM     17  C   UNL     1      41.017  -0.492  14.364  0.00  0.00    +0.000 A 
ATOM     18  C   UNL     1      41.367   0.678  13.741  0.00  0.00    +0.000 A 
ATOM     19  C   UNL     1      42.641   0.897  13.194  0.00  0.00    +0.000 A 
ATOM     20  C   UNL     1      43.586  -0.091  13.279  0.00  0.00    +0.000 A 
ATOM     21  C   UNL     1      43.257  -1.269  13.898  0.00  0.00    +0.000 A 
ATOM     22  C   UNL     1      41.979  -1.468  14.438  0.00  0.00    +0.000 A 
ENDBRANCH  13  17
BRANCH  16  23
ATOM     23  O   UNL     1      35.788  -1.135  16.472  0.00  0.00    +0.000 OA
ATOM     24  C   UNL     1      34.956  -2.219  16.288  0.00  0.00    +0.000 C 
ENDBRANCH  16  23
ENDBRANCH   7  11
BRANCH   1  26
ATOM     25  C   UNL     1      41.356   5.597  13.801  0.00  0.00    +0.000 C 
ATOM     26  O   UNL     1      39.993   5.778  14.145  0.00  0.00    +0.000 OA
ENDBRANCH   1  26
BRANCH   6  27
ATOM     27  O   UNL     1      39.314   5.361  16.692  0.00  0.00    +0.000 OA
BRANCH  27  28
ATOM     28  C   UNL     1      39.341   5.301  18.062  0.00  0.00    +0.000 C 
BRANCH  28  29
ATOM     29  C   UNL     1      38.929   6.464  18.804  0.00  0.00    +0.000 A 
ATOM     30  C   UNL     1      39.557   6.802  19.973  0.00  0.00    +0.000 A 
ATOM     31  C   UNL     1      39.198   7.909  20.717  0.00  0.00    +0.000 A 
ATOM     32  C   UNL     1      38.180   8.692  20.267  0.00  0.00    +0.000 A 
ATOM     33  C   UNL     1      37.522   8.403  19.114  0.00  0.00    +0.000 A 
ATOM     34  C   UNL     1      37.906   7.272  18.374  0.00  0.00    +0.000 A 
ENDBRANCH  28  29
ENDBRANCH  27  28
ENDBRANCH   6  27
TORSDOF 7
ENDMDL
MODEL 7
REMARK VINA RESULT:      -6.7      3.287      5.734
REMARK  Name = 
REMARK  7 active torsions:
REMARK  status: ('A' for Active; 'I' for Inactive)
REMARK    1  A    between atoms: O_2  and  C_3
REMARK    2  A    between atoms: C_8  and  O_9
REMARK    3  A    between atoms: O_9  and  C_10
REMARK    4  A    between atoms: C_10  and  C_11
REMARK    5  A    between atoms: C_17  and  C_18
REMARK    6  A    between atoms: C_20  and  C_21
REMARK    7  A    between atoms: C_29  and  O_30
REMARK                            x       y       z     vdW  Elec       q    Type
REMARK                         _______ _______ _______ _____ _____    ______ ____
ROOT
ATOM      1  C   UNL     1      36.332   1.297  16.146  0.00  0.00    +0.000 A 
ATOM      2  C   UNL     1      35.861   2.471  15.576  0.00  0.00    +0.000 A 
ATOM      3  C   UNL     1      36.510   2.952  14.414  0.00  0.00    +0.000 A 
ATOM      4  C   UNL     1      37.540   2.315  13.868  0.00  0.00    +0.000 A 
ATOM      5  C   UNL     1      37.996   1.151  14.444  0.00  0.00    +0.000 A 
ATOM      6  C   UNL     1      37.399   0.617  15.599  0.00  0.00    +0.000 A 
ATOM      7  C   UNL     1      38.323   2.769  12.579  0.00  0.00    +0.000 C 
ATOM      8  N   UNL     1      37.176   3.643  11.978  0.00  0.00    +0.000 NA
ATOM      9  C   UNL     1      36.863   4.707  12.842  0.00  0.00    +0.000 C 
ATOM     10  C   UNL     1      35.910   4.211  13.903  0.00  0.00    +0.000 C 
ENDROOT
BRANCH   7  11
ATOM     11  C   UNL     1      39.161   3.956  13.216  0.00  0.00    +0.000 A 
ATOM     12  C   UNL     1      39.164   4.182  14.548  0.00  0.00    +0.000 A 
ATOM     13  C   UNL     1      39.889   5.209  15.093  0.00  0.00    +0.000 A 
ATOM     14  C   UNL     1      40.609   5.988  14.202  0.00  0.00    +0.000 A 
ATOM     15  C   UNL     1      40.596   5.744  12.841  0.00  0.00    +0.000 A 
ATOM     16  C   UNL     1      39.860   4.706  12.301  0.00  0.00    +0.000 A 
BRANCH  13  17
ATOM     17  C   UNL     1      39.915   5.488  16.537  0.00  0.00    +0.000 A 
ATOM     18  C   UNL     1      40.940   6.239  17.053  0.00  0.00    +0.000 A 
ATOM     19  C   UNL     1      41.043   6.550  18.416  0.00  0.00    +0.000 A 
ATOM     20  C   UNL     1      40.086   6.094  19.283  0.00  0.00    +0.000 A 
ATOM     21  C   UNL     1      39.052   5.342  18.790  0.00  0.00    +0.000 A 
ATOM     22  C   UNL     1      38.967   5.041  17.423  0.00  0.00    +0.000 A 
ENDBRANCH  13  17
BRANCH  16  23
ATOM     23  O   UNL     1      39.873   4.493  10.951  0.00  0.00    +0.000 OA
ATOM     24  C   UNL     1      40.929   4.069  10.174  0.00  0.00    +0.000 C 
ENDBRANCH  16  23
ENDBRANCH   7  11
BRANCH   1  26
ATOM     25  C   UNL     1      34.676  -0.162  17.231  0.00  0.00    +0.000 C 
ATOM     26  O   UNL     1      35.756   0.756  17.286  0.00  0.00    +0.000 OA
ENDBRANCH   1  26
BRANCH   6  27
ATOM     27  O   UNL     1      37.824  -0.520  16.184  0.00  0.00    +0.000 OA
BRANCH  27  28
ATOM     28  C   UNL     1      37.899  -1.814  15.734  0.00  0.00    +0.000 C 
BRANCH  28  29
ATOM     29  C   UNL     1      38.938  -2.150  14.795  0.00  0.00    +0.000 A 
ATOM     30  C   UNL     1      40.249  -2.178  15.190  0.00  0.00    +0.000 A 
ATOM     31  C   UNL     1      41.279  -2.497  14.326  0.00  0.00    +0.000 A 
ATOM     32  C   UNL     1      40.974  -2.794  13.033  0.00  0.00    +0.000 A 
ATOM     33  C   UNL     1      39.690  -2.782  12.589  0.00  0.00    +0.000 A 
ATOM     34  C   UNL     1      38.660  -2.455  13.486  0.00  0.00    +0.000 A 
ENDBRANCH  28  29
ENDBRANCH  27  28
ENDBRANCH   6  27
TORSDOF 7
ENDMDL
MODEL 8
REMARK VINA RESULT:      -6.7      2.548      6.665
REMARK  Name = 
REMARK  7 active torsions:
REMARK  status: ('A' for Active; 'I' for Inactive)
REMARK    1  A    between atoms: O_2  and  C_3
REMARK    2  A    between atoms: C_8  and  O_9
REMARK    3  A    between atoms: O_9  and  C_10
REMARK    4  A    between atoms: C_10  and  C_11
REMARK    5  A    between atoms: C_17  and  C_18
REMARK    6  A    between atoms: C_20  and  C_21
REMARK    7  A    between atoms: C_29  and  O_30
REMARK                            x       y       z     vdW  Elec       q    Type
REMARK                         _______ _______ _______ _____ _____    ______ ____
ROOT
ATOM      1  C   UNL     1      40.686  -2.171  12.620  0.00  0.00    +0.000 A 
ATOM      2  C   UNL     1      39.552  -1.655  12.010  0.00  0.00    +0.000 A 
ATOM      3  C   UNL     1      38.974  -0.486  12.560  0.00  0.00    +0.000 A 
ATOM      4  C   UNL     1      39.486   0.116  13.628  0.00  0.00    +0.000 A 
ATOM      5  C   UNL     1      40.611  -0.406  14.224  0.00  0.00    +0.000 A 
ATOM      6  C   UNL     1      41.235  -1.564  13.730  0.00  0.00    +0.000 A 
ATOM      7  C   UNL     1      38.917   1.417  14.310  0.00  0.00    +0.000 C 
ATOM      8  N   UNL     1      38.151   1.949  13.056  0.00  0.00    +0.000 NA
ATOM      9  C   UNL     1      37.149   1.042  12.669  0.00  0.00    +0.000 C 
ATOM     10  C   UNL     1      37.771  -0.037  11.814  0.00  0.00    +0.000 C 
ENDROOT
BRANCH   7  11
ATOM     11  C   UNL     1      37.667   0.774  15.045  0.00  0.00    +0.000 A 
ATOM     12  C   UNL     1      37.487  -0.565  15.091  0.00  0.00    +0.000 A 
ATOM     13  C   UNL     1      36.406  -1.115  15.726  0.00  0.00    +0.000 A 
ATOM     14  C   UNL     1      35.523  -0.223  16.312  0.00  0.00    +0.000 A 
ATOM     15  C   UNL     1      35.719   1.144  16.256  0.00  0.00    +0.000 A 
ATOM     16  C   UNL     1      36.814   1.689  15.612  0.00  0.00    +0.000 A 
BRANCH  13  17
ATOM     17  C   UNL     1      36.176  -2.567  15.796  0.00  0.00    +0.000 A 
ATOM     18  C   UNL     1      37.136  -3.368  16.358  0.00  0.00    +0.000 A 
ATOM     19  C   UNL     1      36.999  -4.760  16.464  0.00  0.00    +0.000 A 
ATOM     20  C   UNL     1      35.862  -5.360  15.991  0.00  0.00    +0.000 A 
ATOM     21  C   UNL     1      34.890  -4.579  15.424  0.00  0.00    +0.000 A 
ATOM     22  C   UNL     1      35.045  -3.189  15.328  0.00  0.00    +0.000 A 
ENDBRANCH  13  17
BRANCH  16  23
ATOM     23  O   UNL     1      36.977   3.046  15.579  0.00  0.00    +0.000 OA
ATOM     24  C   UNL     1      36.095   3.991  15.098  0.00  0.00    +0.000 C 
ENDBRANCH  16  23
ENDBRANCH   7  11
BRANCH   1  26
ATOM     25  C   UNL     1      41.721  -3.455  10.796  0.00  0.00    +0.000 C 
ATOM     26  O   UNL     1      41.315  -3.313  12.148  0.00  0.00    +0.000 OA
ENDBRANCH   1  26
BRANCH   6  27
ATOM     27  O   UNL     1      42.338  -2.098  14.293  0.00  0.00    +0.000 OA
BRANCH  27  28
ATOM     28  C   UNL     1      43.675  -1.923  14.042  0.00  0.00    +0.000 C 
BRANCH  28  29
ATOM     29  C   UNL     1      44.542  -1.614  15.149  0.00  0.00    +0.000 A 
ATOM     30  C   UNL     1      45.288  -2.596  15.744  0.00  0.00    +0.000 A 
ATOM     31  C   UNL     1      46.134  -2.346  16.807  0.00  0.00    +0.000 A 
ATOM     32  C   UNL     1      46.227  -1.073  17.278  0.00  0.00    +0.000 A 
ATOM     33  C   UNL     1      45.510  -0.060  16.725  0.00  0.00    +0.000 A 
ATOM     34  C   UNL     1      44.656  -0.339  15.645  0.00  0.00    +0.000 A 
ENDBRANCH  28  29
ENDBRANCH  27  28
ENDBRANCH   6  27
TORSDOF 7
ENDMDL
MODEL 9
REMARK VINA RESULT:      -6.7      3.374      5.464
REMARK  Name = 
REMARK  7 active torsions:
REMARK  status: ('A' for Active; 'I' for Inactive)
REMARK    1  A    between atoms: O_2  and  C_3
REMARK    2  A    between atoms: C_8  and  O_9
REMARK    3  A    between atoms: O_9  and  C_10
REMARK    4  A    between atoms: C_10  and  C_11
REMARK    5  A    between atoms: C_17  and  C_18
REMARK    6  A    between atoms: C_20  and  C_21
REMARK    7  A    between atoms: C_29  and  O_30
REMARK                            x       y       z     vdW  Elec       q    Type
REMARK                         _______ _______ _______ _____ _____    ______ ____
ROOT
ATOM      1  C   UNL     1      36.480   1.340  16.011  0.00  0.00    +0.000 A 
ATOM      2  C   UNL     1      35.975   2.518  15.481  0.00  0.00    +0.000 A 
ATOM      3  C   UNL     1      36.592   3.044  14.321  0.00  0.00    +0.000 A 
ATOM      4  C   UNL     1      37.624   2.443  13.739  0.00  0.00    +0.000 A 
ATOM      5  C   UNL     1      38.115   1.275  14.275  0.00  0.00    +0.000 A 
ATOM      6  C   UNL     1      37.551   0.698  15.425  0.00  0.00    +0.000 A 
ATOM      7  C   UNL     1      38.373   2.948  12.449  0.00  0.00    +0.000 C 
ATOM      8  N   UNL     1      37.197   3.813  11.893  0.00  0.00    +0.000 NA
ATOM      9  C   UNL     1      36.878   4.847  12.790  0.00  0.00    +0.000 C 
ATOM     10  C   UNL     1      35.956   4.304  13.855  0.00  0.00    +0.000 C 
ENDROOT
BRANCH   7  11
ATOM     11  C   UNL     1      39.198   4.135  13.102  0.00  0.00    +0.000 A 
ATOM     12  C   UNL     1      39.229   4.320  14.440  0.00  0.00    +0.000 A 
ATOM     13  C   UNL     1      39.943   5.347  14.999  0.00  0.00    +0.000 A 
ATOM     14  C   UNL     1      40.622   6.171  14.115  0.00  0.00    +0.000 A 
ATOM     15  C   UNL     1      40.580   5.969  12.749  0.00  0.00    +0.000 A 
ATOM     16  C   UNL     1      39.856   4.930  12.194  0.00  0.00    +0.000 A 
BRANCH  13  17
ATOM     17  C   UNL     1      40.000   5.581  16.450  0.00  0.00    +0.000 A 
ATOM     18  C   UNL     1      38.983   5.111  17.241  0.00  0.00    +0.000 A 
ATOM     19  C   UNL     1      38.956   5.290  18.632  0.00  0.00    +0.000 A 
ATOM     20  C   UNL     1      39.984   5.961  19.242  0.00  0.00    +0.000 A 
ATOM     21  C   UNL     1      41.011   6.439  18.471  0.00  0.00    +0.000 A 
ATOM     22  C   UNL     1      41.019   6.249  17.082  0.00  0.00    +0.000 A 
ENDBRANCH  13  17
BRANCH  16  23
ATOM     23  O   UNL     1      39.839   4.760  10.838  0.00  0.00    +0.000 OA
ATOM     24  C   UNL     1      40.906   4.482  10.009  0.00  0.00    +0.000 C 
ENDBRANCH  16  23
ENDBRANCH   7  11
BRANCH   1  26
ATOM     25  C   UNL     1      34.789  -0.074  17.100  0.00  0.00    +0.000 C 
ATOM     26  O   UNL     1      35.937   0.757  17.146  0.00  0.00    +0.000 OA
ENDBRANCH   1  26
BRANCH   6  27
ATOM     27  O   UNL     1      38.011  -0.446  15.972  0.00  0.00    +0.000 OA
BRANCH  27  28
ATOM     28  C   UNL     1      38.367  -1.650  15.420  0.00  0.00    +0.000 C 
BRANCH  28  29
ATOM     29  C   UNL     1      37.431  -2.741  15.500  0.00  0.00    +0.000 A 
ATOM     30  C   UNL     1      36.233  -2.679  14.840  0.00  0.00    +0.000 A 
ATOM     31  C   UNL     1      35.305  -3.701  14.885  0.00  0.00    +0.000 A 
ATOM     32  C   UNL     1      35.596  -4.811  15.617  0.00  0.00    +0.000 A 
ATOM     33  C   UNL     1      36.770  -4.925  16.291  0.00  0.00    +0.000 A 
ATOM     34  C   UNL     1      37.698  -3.872  16.229  0.00  0.00    +0.000 A 
ENDBRANCH  28  29
ENDBRANCH  27  28
ENDBRANCH   6  27
TORSDOF 7
ENDMDL
MODEL 10
REMARK VINA RESULT:      -6.6     24.637     28.913
REMARK  Name = 
REMARK  7 active torsions:
REMARK  status: ('A' for Active; 'I' for Inactive)
REMARK    1  A    between atoms: O_2  and  C_3
REMARK    2  A    between atoms: C_8  and  O_9
REMARK    3  A    between atoms: O_9  and  C_10
REMARK    4  A    between atoms: C_10  and  C_11
REMARK    5  A    between atoms: C_17  and  C_18
REMARK    6  A    between atoms: C_20  and  C_21
REMARK    7  A    between atoms: C_29  and  O_30
REMARK                            x       y       z     vdW  Elec       q    Type
REMARK                         _______ _______ _______ _____ _____    ______ ____
ROOT
ATOM      1  C   UNL     1      13.633  -0.282  28.964  0.00  0.00    +0.000 A 
ATOM      2  C   UNL     1      12.472  -1.024  29.129  0.00  0.00    +0.000 A 
ATOM      3  C   UNL     1      11.939  -1.686  27.999  0.00  0.00    +0.000 A 
ATOM      4  C   UNL     1      12.516  -1.616  26.804  0.00  0.00    +0.000 A 
ATOM      5  C   UNL     1      13.667  -0.877  26.654  0.00  0.00    +0.000 A 
ATOM      6  C   UNL     1      14.251  -0.193  27.734  0.00  0.00    +0.000 A 
ATOM      7  C   UNL     1      12.001  -2.317  25.492  0.00  0.00    +0.000 C 
ATOM      8  N   UNL     1      11.171  -3.432  26.205  0.00  0.00    +0.000 NA
ATOM      9  C   UNL     1      10.140  -2.864  26.973  0.00  0.00    +0.000 C 
ATOM     10  C   UNL     1      10.700  -2.445  28.311  0.00  0.00    +0.000 C 
ENDROOT
BRANCH   7  11
ATOM     11  C   UNL     1      10.788  -1.348  25.165  0.00  0.00    +0.000 A 
ATOM     12  C   UNL     1      10.609  -0.190  25.837  0.00  0.00    +0.000 A 
ATOM     13  C   UNL     1       9.559   0.643  25.551  0.00  0.00    +0.000 A 
ATOM     14  C   UNL     1       8.707   0.226  24.542  0.00  0.00    +0.000 A 
ATOM     15  C   UNL     1       8.902  -0.962  23.864  0.00  0.00    +0.000 A 
ATOM     16  C   UNL     1       9.965  -1.796  24.160  0.00  0.00    +0.000 A 
BRANCH  13  17
ATOM     17  C   UNL     1       9.331   1.910  26.262  0.00  0.00    +0.000 A 
ATOM     18  C   UNL     1      10.393   2.749  26.486  0.00  0.00    +0.000 A 
ATOM     19  C   UNL     1      10.265   3.975  27.155  0.00  0.00    +0.000 A 
ATOM     20  C   UNL     1       9.033   4.367  27.610  0.00  0.00    +0.000 A 
ATOM     21  C   UNL     1       7.958   3.544  27.397  0.00  0.00    +0.000 A 
ATOM     22  C   UNL     1       8.107   2.322  26.725  0.00  0.00    +0.000 A 
ENDBRANCH  13  17
BRANCH  16  23
ATOM     23  O   UNL     1      10.128  -2.963  23.467  0.00  0.00    +0.000 OA
ATOM     24  C   UNL     1       9.175  -3.921  23.191  0.00  0.00    +0.000 C 
ENDBRANCH  16  23
ENDBRANCH   7  11
BRANCH   1  26
ATOM     25  C   UNL     1      13.992   0.052  31.373  0.00  0.00    +0.000 C 
ATOM     26  O   UNL     1      14.222   0.399  30.018  0.00  0.00    +0.000 OA
ENDBRANCH   1  26
BRANCH   6  27
ATOM     27  O   UNL     1      15.378   0.537  27.616  0.00  0.00    +0.000 OA
BRANCH  27  28
ATOM     28  C   UNL     1      16.699   0.230  27.822  0.00  0.00    +0.000 C 
BRANCH  28  29
ATOM     29  C   UNL     1      17.531  -0.008  26.671  0.00  0.00    +0.000 A 
ATOM     30  C   UNL     1      17.947   1.034  25.887  0.00  0.00    +0.000 A 
ATOM     31  C   UNL     1      18.747   0.854  24.775  0.00  0.00    +0.000 A 
ATOM     32  C   UNL     1      19.133  -0.409  24.449  0.00  0.00    +0.000 A 
ATOM     33  C   UNL     1      18.749  -1.479  25.193  0.00  0.00    +0.000 A 
ATOM     34  C   UNL     1      17.936  -1.272  26.319  0.00  0.00    +0.000 A 
ENDBRANCH  28  29
ENDBRANCH  27  28
ENDBRANCH   6  27
TORSDOF 7
ENDMDL
