MODEL 1
REMARK VINA RESULT:      -8.7      0.000      0.000
REMARK  Name = 
REMARK  8 active torsions:
REMARK  status: ('A' for Active; 'I' for Inactive)
REMARK    1  A    between atoms: O_2  and  C_3
REMARK    2  A    between atoms: C_4  and  C_5
REMARK    3  A    between atoms: C_5  and  C_6
REMARK    4  A    between atoms: N_14  and  C_15
REMARK    5  A    between atoms: C_15  and  C_16
REMARK    6  A    between atoms: C_16  and  C_17
REMARK    7  A    between atoms: C_17  and  C_18
REMARK    8  A    between atoms: C_24  and  N_25
REMARK                            x       y       z     vdW  Elec       q    Type
REMARK                         _______ _______ _______ _____ _____    ______ ____
ROOT
ATOM      1  C   UNL     1      15.613   0.186  27.811  0.00  0.00    +0.000 C 
ENDROOT
BRANCH   1   6
ATOM      2  C   UNL     1      18.391  -1.090  25.716  0.00  0.00    +0.000 C 
ATOM      3  C   UNL     1      18.935   0.070  25.382  0.00  0.00    +0.000 C 
ATOM      4  C   UNL     1      18.035   1.267  25.537  0.00  0.00    +0.000 C 
ATOM      5  C   UNL     1      17.526   1.208  26.963  0.00  0.00    +0.000 C 
ATOM      6  N   UNL     1      16.936  -0.073  27.278  0.00  0.00    +0.000 NA
ATOM      7  C   UNL     1      16.964  -0.998  26.192  0.00  0.00    +0.000 C 
BRANCH   2   9
ATOM      8  C   UNL     1      19.452  -3.103  26.702  0.00  0.00    +0.000 C 
ATOM      9  O   UNL     1      19.073  -2.289  25.637  0.00  0.00    +0.000 OA
ENDBRANCH   2   9
BRANCH   3  10
ATOM     10  C   UNL     1      20.310   0.142  24.902  0.00  0.00    +0.000 C 
BRANCH  10  11
ATOM     11  C   UNL     1      20.271   0.062  23.399  0.00  0.00    +0.000 A 
ATOM     12  C   UNL     1      20.611  -1.131  22.800  0.00  0.00    +0.000 A 
ATOM     13  C   UNL     1      20.578  -1.214  21.443  0.00  0.00    +0.000 A 
ATOM     14  C   UNL     1      20.221  -0.166  20.638  0.00  0.00    +0.000 A 
ATOM     15  C   UNL     1      19.874   1.041  21.231  0.00  0.00    +0.000 A 
ATOM     16  C   UNL     1      19.900   1.155  22.623  0.00  0.00    +0.000 A 
ENDBRANCH  10  11
ENDBRANCH   3  10
ENDBRANCH   1   6
BRANCH   1  17
ATOM     17  C   UNL     1      14.656  -0.130  26.650  0.00  0.00    +0.000 C 
BRANCH  17  18
ATOM     18  C   UNL     1      13.305  -0.365  27.344  0.00  0.00    +0.000 C 
BRANCH  18  19
ATOM     19  C   UNL     1      12.372   0.757  27.012  0.00  0.00    +0.000 A 
ATOM     20  C   UNL     1      12.450   2.069  27.375  0.00  0.00    +0.000 A 
ATOM     21  N   UNL     1      11.367   2.692  26.831  0.00  0.00    +0.000 NA
ATOM     22  C   UNL     1      10.615   1.844  26.146  0.00  0.00    +0.000 A 
ATOM     23  C   UNL     1       9.445   1.942  25.418  0.00  0.00    +0.000 A 
ATOM     24  C   UNL     1       8.931   0.813  24.817  0.00  0.00    +0.000 A 
ATOM     25  C   UNL     1       9.529  -0.435  24.901  0.00  0.00    +0.000 A 
ATOM     26  C   UNL     1      10.701  -0.512  25.636  0.00  0.00    +0.000 A 
ATOM     27  C   UNL     1      11.229   0.612  26.246  0.00  0.00    +0.000 A 
BRANCH  25  28
ATOM     28  N   UNL     1       8.961  -1.567  24.262  0.00  0.00    +0.000 N 
ATOM     29  C   UNL     1       8.118  -1.554  23.223  0.00  0.00    +0.000 A 
ATOM     30  N   UNL     1       7.797  -2.811  22.894  0.00  0.00    +0.000 NA
ATOM     31  N   UNL     1       8.426  -3.628  23.710  0.00  0.00    +0.000 NA
ATOM     32  C   UNL     1       9.142  -2.862  24.549  0.00  0.00    +0.000 A 
ENDBRANCH  25  28
ENDBRANCH  18  19
ENDBRANCH  17  18
ENDBRANCH   1  17
TORSDOF 8
ENDMDL
MODEL 2
REMARK VINA RESULT:      -8.4     22.392     25.975
REMARK  Name = 
REMARK  8 active torsions:
REMARK  status: ('A' for Active; 'I' for Inactive)
REMARK    1  A    between atoms: O_2  and  C_3
REMARK    2  A    between atoms: C_4  and  C_5
REMARK    3  A    between atoms: C_5  and  C_6
REMARK    4  A    between atoms: N_14  and  C_15
REMARK    5  A    between atoms: C_15  and  C_16
REMARK    6  A    between atoms: C_16  and  C_17
REMARK    7  A    between atoms: C_17  and  C_18
REMARK    8  A    between atoms: C_24  and  N_25
REMARK                            x       y       z     vdW  Elec       q    Type
REMARK                         _______ _______ _______ _____ _____    ______ ____
ROOT
ATOM      1  C   UNL     1      38.531   4.276  14.984  0.00  0.00    +0.000 C 
ENDROOT
BRANCH   1   6
ATOM      2  C   UNL     1      40.642   6.100  17.423  0.00  0.00    +0.000 C 
ATOM      3  C   UNL     1      39.820   6.063  18.462  0.00  0.00    +0.000 C 
ATOM      4  C   UNL     1      38.377   5.794  18.127  0.00  0.00    +0.000 C 
ATOM      5  C   UNL     1      38.384   4.528  17.294  0.00  0.00    +0.000 C 
ATOM      6  N   UNL     1      39.289   4.620  16.171  0.00  0.00    +0.000 NA
ATOM      7  C   UNL     1      39.977   5.867  16.091  0.00  0.00    +0.000 C 
BRANCH   2   9
ATOM      8  C   UNL     1      42.878   6.689  16.529  0.00  0.00    +0.000 C 
ATOM      9  O   UNL     1      41.998   6.333  17.548  0.00  0.00    +0.000 OA
ENDBRANCH   2   9
BRANCH   3  10
ATOM     10  C   UNL     1      40.317   6.271  19.817  0.00  0.00    +0.000 C 
BRANCH  10  11
ATOM     11  C   UNL     1      40.058   7.709  20.178  0.00  0.00    +0.000 A 
ATOM     12  C   UNL     1      38.790   8.063  20.581  0.00  0.00    +0.000 A 
ATOM     13  C   UNL     1      38.546   9.361  20.911  0.00  0.00    +0.000 A 
ATOM     14  C   UNL     1      39.504  10.337  20.862  0.00  0.00    +0.000 A 
ATOM     15  C   UNL     1      40.786   9.992  20.458  0.00  0.00    +0.000 A 
ATOM     16  C   UNL     1      41.065   8.667  20.113  0.00  0.00    +0.000 A 
ENDBRANCH  10  11
ENDBRANCH   3  10
ENDBRANCH   1   6
BRANCH   1  17
ATOM     17  C   UNL     1      38.636   2.746  14.885  0.00  0.00    +0.000 C 
BRANCH  17  18
ATOM     18  C   UNL     1      37.349   2.339  14.149  0.00  0.00    +0.000 C 
BRANCH  18  19
ATOM     19  C   UNL     1      36.274   2.049  15.148  0.00  0.00    +0.000 A 
ATOM     20  C   UNL     1      35.214   2.826  15.512  0.00  0.00    +0.000 A 
ATOM     21  N   UNL     1      34.523   2.129  16.458  0.00  0.00    +0.000 NA
ATOM     22  C   UNL     1      35.090   0.959  16.707  0.00  0.00    +0.000 A 
ATOM     23  C   UNL     1      34.813  -0.104  17.545  0.00  0.00    +0.000 A 
ATOM     24  C   UNL     1      35.649  -1.200  17.539  0.00  0.00    +0.000 A 
ATOM     25  C   UNL     1      36.771  -1.300  16.730  0.00  0.00    +0.000 A 
ATOM     26  C   UNL     1      37.031  -0.223  15.897  0.00  0.00    +0.000 A 
ATOM     27  C   UNL     1      36.201   0.884  15.891  0.00  0.00    +0.000 A 
BRANCH  25  28
ATOM     28  N   UNL     1      37.598  -2.451  16.760  0.00  0.00    +0.000 N 
ATOM     29  C   UNL     1      38.936  -2.470  16.705  0.00  0.00    +0.000 A 
ATOM     30  N   UNL     1      39.365  -3.737  16.758  0.00  0.00    +0.000 NA
ATOM     31  N   UNL     1      38.318  -4.528  16.846  0.00  0.00    +0.000 NA
ATOM     32  C   UNL     1      37.234  -3.736  16.848  0.00  0.00    +0.000 A 
ENDBRANCH  25  28
ENDBRANCH  18  19
ENDBRANCH  17  18
ENDBRANCH   1  17
TORSDOF 8
ENDMDL
MODEL 3
REMARK VINA RESULT:      -8.3      2.674      4.769
REMARK  Name = 
REMARK  8 active torsions:
REMARK  status: ('A' for Active; 'I' for Inactive)
REMARK    1  A    between atoms: O_2  and  C_3
REMARK    2  A    between atoms: C_4  and  C_5
REMARK    3  A    between atoms: C_5  and  C_6
REMARK    4  A    between atoms: N_14  and  C_15
REMARK    5  A    between atoms: C_15  and  C_16
REMARK    6  A    between atoms: C_16  and  C_17
REMARK    7  A    between atoms: C_17  and  C_18
REMARK    8  A    between atoms: C_24  and  N_25
REMARK                            x       y       z     vdW  Elec       q    Type
REMARK                         _______ _______ _______ _____ _____    ______ ____
ROOT
ATOM      1  C   UNL     1      15.505   0.235  27.658  0.00  0.00    +0.000 C 
ENDROOT
BRANCH   1   6
ATOM      2  C   UNL     1      18.368  -1.087  25.713  0.00  0.00    +0.000 C 
ATOM      3  C   UNL     1      18.912   0.067  25.353  0.00  0.00    +0.000 C 
ATOM      4  C   UNL     1      17.995   1.258  25.431  0.00  0.00    +0.000 C 
ATOM      5  C   UNL     1      17.436   1.247  26.839  0.00  0.00    +0.000 C 
ATOM      6  N   UNL     1      16.849  -0.029  27.182  0.00  0.00    +0.000 NA
ATOM      7  C   UNL     1      16.925  -0.993  26.134  0.00  0.00    +0.000 C 
BRANCH   2   9
ATOM      8  C   UNL     1      19.463  -3.021  26.814  0.00  0.00    +0.000 C 
ATOM      9  O   UNL     1      19.065  -2.280  25.703  0.00  0.00    +0.000 OA
ENDBRANCH   2   9
BRANCH   3  10
ATOM     10  C   UNL     1      20.303   0.136  24.920  0.00  0.00    +0.000 C 
BRANCH  10  11
ATOM     11  C   UNL     1      20.319  -0.016  23.423  0.00  0.00    +0.000 A 
ATOM     12  C   UNL     1      20.582  -1.260  22.895  0.00  0.00    +0.000 A 
ATOM     13  C   UNL     1      20.598  -1.408  21.543  0.00  0.00    +0.000 A 
ATOM     14  C   UNL     1      20.364  -0.376  20.675  0.00  0.00    +0.000 A 
ATOM     15  C   UNL     1      20.097   0.883  21.195  0.00  0.00    +0.000 A 
ATOM     16  C   UNL     1      20.074   1.065  22.580  0.00  0.00    +0.000 A 
ENDBRANCH  10  11
ENDBRANCH   3  10
ENDBRANCH   1   6
BRANCH   1  17
ATOM     17  C   UNL     1      14.586  -0.287  26.541  0.00  0.00    +0.000 C 
BRANCH  17  18
ATOM     18  C   UNL     1      13.360  -0.822  27.298  0.00  0.00    +0.000 C 
BRANCH  18  19
ATOM     19  C   UNL     1      12.238   0.163  27.188  0.00  0.00    +0.000 A 
ATOM     20  C   UNL     1      11.495   0.493  26.093  0.00  0.00    +0.000 A 
ATOM     21  N   UNL     1      10.600   1.438  26.496  0.00  0.00    +0.000 NA
ATOM     22  C   UNL     1      10.739   1.718  27.782  0.00  0.00    +0.000 A 
ATOM     23  C   UNL     1      10.112   2.570  28.672  0.00  0.00    +0.000 A 
ATOM     24  C   UNL     1      10.534   2.600  29.984  0.00  0.00    +0.000 A 
ATOM     25  C   UNL     1      11.566   1.813  30.472  0.00  0.00    +0.000 A 
ATOM     26  C   UNL     1      12.182   0.966  29.564  0.00  0.00    +0.000 A 
ATOM     27  C   UNL     1      11.771   0.925  28.244  0.00  0.00    +0.000 A 
BRANCH  25  28
ATOM     28  N   UNL     1      11.960   1.879  31.833  0.00  0.00    +0.000 N 
ATOM     29  C   UNL     1      11.183   2.211  32.871  0.00  0.00    +0.000 A 
ATOM     30  N   UNL     1      11.903   2.163  33.999  0.00  0.00    +0.000 NA
ATOM     31  N   UNL     1      13.131   1.803  33.694  0.00  0.00    +0.000 NA
ATOM     32  C   UNL     1      13.164   1.628  32.363  0.00  0.00    +0.000 A 
ENDBRANCH  25  28
ENDBRANCH  18  19
ENDBRANCH  17  18
ENDBRANCH   1  17
TORSDOF 8
ENDMDL
MODEL 4
REMARK VINA RESULT:      -8.1     22.543     26.148
REMARK  Name = 
REMARK  8 active torsions:
REMARK  status: ('A' for Active; 'I' for Inactive)
REMARK    1  A    between atoms: O_2  and  C_3
REMARK    2  A    between atoms: C_4  and  C_5
REMARK    3  A    between atoms: C_5  and  C_6
REMARK    4  A    between atoms: N_14  and  C_15
REMARK    5  A    between atoms: C_15  and  C_16
REMARK    6  A    between atoms: C_16  and  C_17
REMARK    7  A    between atoms: C_17  and  C_18
REMARK    8  A    between atoms: C_24  and  N_25
REMARK                            x       y       z     vdW  Elec       q    Type
REMARK                         _______ _______ _______ _____ _____    ______ ____
ROOT
ATOM      1  C   UNL     1      38.541   5.225  14.758  0.00  0.00    +0.000 C 
ENDROOT
BRANCH   1   6
ATOM      2  C   UNL     1      38.299   7.273  17.837  0.00  0.00    +0.000 C 
ATOM      3  C   UNL     1      38.922   6.452  18.669  0.00  0.00    +0.000 C 
ATOM      4  C   UNL     1      39.000   5.018  18.215  0.00  0.00    +0.000 C 
ATOM      5  C   UNL     1      39.601   5.067  16.825  0.00  0.00    +0.000 C 
ATOM      6  N   UNL     1      38.885   5.970  15.953  0.00  0.00    +0.000 NA
ATOM      7  C   UNL     1      37.780   6.617  16.583  0.00  0.00    +0.000 C 
BRANCH   2   9
ATOM      8  C   UNL     1      37.027   9.401  17.777  0.00  0.00    +0.000 C 
ATOM      9  O   UNL     1      38.137   8.620  18.094  0.00  0.00    +0.000 OA
ENDBRANCH   2   9
BRANCH   3  10
ATOM     10  C   UNL     1      39.478   6.940  19.926  0.00  0.00    +0.000 C 
BRANCH  10  11
ATOM     11  C   UNL     1      40.978   6.889  19.807  0.00  0.00    +0.000 A 
ATOM     12  C   UNL     1      41.688   6.220  20.779  0.00  0.00    +0.000 A 
ATOM     13  C   UNL     1      43.044   6.168  20.681  0.00  0.00    +0.000 A 
ATOM     14  C   UNL     1      43.742   6.749  19.656  0.00  0.00    +0.000 A 
ATOM     15  C   UNL     1      43.037   7.424  18.669  0.00  0.00    +0.000 A 
ATOM     16  C   UNL     1      41.644   7.494  18.745  0.00  0.00    +0.000 A 
ENDBRANCH  10  11
ENDBRANCH   3  10
ENDBRANCH   1   6
BRANCH   1  17
ATOM     17  C   UNL     1      37.118   4.707  15.017  0.00  0.00    +0.000 C 
BRANCH  17  18
ATOM     18  C   UNL     1      37.218   3.202  14.724  0.00  0.00    +0.000 C 
BRANCH  18  19
ATOM     19  C   UNL     1      36.165   2.472  15.498  0.00  0.00    +0.000 A 
ATOM     20  C   UNL     1      34.936   2.910  15.892  0.00  0.00    +0.000 A 
ATOM     21  N   UNL     1      34.353   1.883  16.572  0.00  0.00    +0.000 NA
ATOM     22  C   UNL     1      35.147   0.826  16.626  0.00  0.00    +0.000 A 
ATOM     23  C   UNL     1      35.055  -0.440  17.172  0.00  0.00    +0.000 A 
ATOM     24  C   UNL     1      36.113  -1.312  17.028  0.00  0.00    +0.000 A 
ATOM     25  C   UNL     1      37.283  -0.989  16.358  0.00  0.00    +0.000 A 
ATOM     26  C   UNL     1      37.355   0.286  15.818  0.00  0.00    +0.000 A 
ATOM     27  C   UNL     1      36.302   1.172  15.954  0.00  0.00    +0.000 A 
BRANCH  25  28
ATOM     28  N   UNL     1      38.343  -1.923  16.235  0.00  0.00    +0.000 N 
ATOM     29  C   UNL     1      38.543  -3.004  16.999  0.00  0.00    +0.000 A 
ATOM     30  N   UNL     1      39.643  -3.644  16.585  0.00  0.00    +0.000 NA
ATOM     31  N   UNL     1      40.148  -2.986  15.565  0.00  0.00    +0.000 NA
ATOM     32  C   UNL     1      39.348  -1.930  15.351  0.00  0.00    +0.000 A 
ENDBRANCH  25  28
ENDBRANCH  18  19
ENDBRANCH  17  18
ENDBRANCH   1  17
TORSDOF 8
ENDMDL
MODEL 5
REMARK VINA RESULT:      -8.1     23.254     25.593
REMARK  Name = 
REMARK  8 active torsions:
REMARK  status: ('A' for Active; 'I' for Inactive)
REMARK    1  A    between atoms: O_2  and  C_3
REMARK    2  A    between atoms: C_4  and  C_5
REMARK    3  A    between atoms: C_5  and  C_6
REMARK    4  A    between atoms: N_14  and  C_15
REMARK    5  A    between atoms: C_15  and  C_16
REMARK    6  A    between atoms: C_16  and  C_17
REMARK    7  A    between atoms: C_17  and  C_18
REMARK    8  A    between atoms: C_24  and  N_25
REMARK                            x       y       z     vdW  Elec       q    Type
REMARK                         _______ _______ _______ _____ _____    ______ ____
ROOT
ATOM      1  C   UNL     1      37.803   4.068  16.119  0.00  0.00    +0.000 C 
ENDROOT
BRANCH   1   6
ATOM      2  C   UNL     1      35.902   0.946  16.725  0.00  0.00    +0.000 C 
ATOM      3  C   UNL     1      36.129   0.348  15.564  0.00  0.00    +0.000 C 
ATOM      4  C   UNL     1      36.564   1.261  14.449  0.00  0.00    +0.000 C 
ATOM      5  C   UNL     1      37.750   2.030  14.994  0.00  0.00    +0.000 C 
ATOM      6  N   UNL     1      37.452   2.668  16.256  0.00  0.00    +0.000 NA
ATOM      7  C   UNL     1      36.121   2.437  16.714  0.00  0.00    +0.000 C 
BRANCH   2   9
ATOM      8  C   UNL     1      36.266  -0.007  18.985  0.00  0.00    +0.000 C 
ATOM      9  O   UNL     1      35.498   0.261  17.854  0.00  0.00    +0.000 OA
ENDBRANCH   2   9
BRANCH   3  10
ATOM     10  C   UNL     1      35.960  -1.093  15.418  0.00  0.00    +0.000 C 
BRANCH  10  11
ATOM     11  C   UNL     1      37.311  -1.677  15.100  0.00  0.00    +0.000 A 
ATOM     12  C   UNL     1      38.242  -1.759  16.112  0.00  0.00    +0.000 A 
ATOM     13  C   UNL     1      39.465  -2.286  15.836  0.00  0.00    +0.000 A 
ATOM     14  C   UNL     1      39.819  -2.743  14.594  0.00  0.00    +0.000 A 
ATOM     15  C   UNL     1      38.888  -2.667  13.567  0.00  0.00    +0.000 A 
ATOM     16  C   UNL     1      37.624  -2.130  13.822  0.00  0.00    +0.000 A 
ENDBRANCH  10  11
ENDBRANCH   3  10
ENDBRANCH   1   6
BRANCH   1  17
ATOM     17  C   UNL     1      38.148   4.525  17.546  0.00  0.00    +0.000 C 
BRANCH  17  18
ATOM     18  C   UNL     1      39.205   5.621  17.333  0.00  0.00    +0.000 C 
BRANCH  18  19
ATOM     19  C   UNL     1      39.417   6.364  18.615  0.00  0.00    +0.000 A 
ATOM     20  C   UNL     1      40.264   6.072  19.642  0.00  0.00    +0.000 A 
ATOM     21  N   UNL     1      40.090   7.043  20.582  0.00  0.00    +0.000 NA
ATOM     22  C   UNL     1      39.182   7.928  20.202  0.00  0.00    +0.000 A 
ATOM     23  C   UNL     1      38.641   9.073  20.753  0.00  0.00    +0.000 A 
ATOM     24  C   UNL     1      37.682   9.770  20.048  0.00  0.00    +0.000 A 
ATOM     25  C   UNL     1      37.221   9.382  18.799  0.00  0.00    +0.000 A 
ATOM     26  C   UNL     1      37.776   8.231  18.264  0.00  0.00    +0.000 A 
ATOM     27  C   UNL     1      38.739   7.520  18.959  0.00  0.00    +0.000 A 
BRANCH  25  28
ATOM     28  N   UNL     1      36.234  10.135  18.114  0.00  0.00    +0.000 N 
ATOM     29  C   UNL     1      35.070   9.676  17.640  0.00  0.00    +0.000 A 
ATOM     30  N   UNL     1      34.402  10.677  17.054  0.00  0.00    +0.000 NA
ATOM     31  N   UNL     1      35.125  11.771  17.148  0.00  0.00    +0.000 NA
ATOM     32  C   UNL     1      36.250  11.437  17.800  0.00  0.00    +0.000 A 
ENDBRANCH  25  28
ENDBRANCH  18  19
ENDBRANCH  17  18
ENDBRANCH   1  17
TORSDOF 8
ENDMDL
MODEL 6
REMARK VINA RESULT:      -7.8     22.655     26.357
REMARK  Name = 
REMARK  8 active torsions:
REMARK  status: ('A' for Active; 'I' for Inactive)
REMARK    1  A    between atoms: O_2  and  C_3
REMARK    2  A    between atoms: C_4  and  C_5
REMARK    3  A    between atoms: C_5  and  C_6
REMARK    4  A    between atoms: N_14  and  C_15
REMARK    5  A    between atoms: C_15  and  C_16
REMARK    6  A    between atoms: C_16  and  C_17
REMARK    7  A    between atoms: C_17  and  C_18
REMARK    8  A    between atoms: C_24  and  N_25
REMARK                            x       y       z     vdW  Elec       q    Type
REMARK                         _______ _______ _______ _____ _____    ______ ____
ROOT
ATOM      1  C   UNL     1      34.964   0.694  17.187  0.00  0.00    +0.000 C 
ENDROOT
BRANCH   1   6
ATOM      2  C   UNL     1      37.451  -2.033  17.514  0.00  0.00    +0.000 C 
ATOM      3  C   UNL     1      37.383  -2.512  16.281  0.00  0.00    +0.000 C 
ATOM      4  C   UNL     1      36.137  -2.143  15.520  0.00  0.00    +0.000 C 
ATOM      5  C   UNL     1      36.042  -0.634  15.607  0.00  0.00    +0.000 C 
ATOM      6  N   UNL     1      36.115  -0.161  16.970  0.00  0.00    +0.000 NA
ATOM      7  C   UNL     1      36.263  -1.205  17.931  0.00  0.00    +0.000 C 
BRANCH   2   9
ATOM      8  C   UNL     1      38.610  -3.260  19.332  0.00  0.00    +0.000 C 
ATOM      9  O   UNL     1      38.523  -2.272  18.353  0.00  0.00    +0.000 OA
ENDBRANCH   2   9
BRANCH   3  10
ATOM     10  C   UNL     1      38.458  -3.332  15.735  0.00  0.00    +0.000 C 
BRANCH  10  11
ATOM     11  C   UNL     1      39.144  -2.526  14.665  0.00  0.00    +0.000 A 
ATOM     12  C   UNL     1      40.018  -1.535  15.054  0.00  0.00    +0.000 A 
ATOM     13  C   UNL     1      40.645  -0.801  14.095  0.00  0.00    +0.000 A 
ATOM     14  C   UNL     1      40.449  -1.000  12.755  0.00  0.00    +0.000 A 
ATOM     15  C   UNL     1      39.571  -1.996  12.351  0.00  0.00    +0.000 A 
ATOM     16  C   UNL     1      38.913  -2.765  13.314  0.00  0.00    +0.000 A 
ENDBRANCH  10  11
ENDBRANCH   3  10
ENDBRANCH   1   6
BRANCH   1  17
ATOM     17  C   UNL     1      35.144   1.850  16.191  0.00  0.00    +0.000 C 
BRANCH  17  18
ATOM     18  C   UNL     1      36.200   2.746  16.859  0.00  0.00    +0.000 C 
BRANCH  18  19
ATOM     19  C   UNL     1      37.182   3.212  15.830  0.00  0.00    +0.000 A 
ATOM     20  C   UNL     1      37.253   2.887  14.508  0.00  0.00    +0.000 A 
ATOM     21  N   UNL     1      38.319   3.562  13.994  0.00  0.00    +0.000 NA
ATOM     22  C   UNL     1      38.921   4.292  14.919  0.00  0.00    +0.000 A 
ATOM     23  C   UNL     1      40.011   5.141  14.941  0.00  0.00    +0.000 A 
ATOM     24  C   UNL     1      40.362   5.754  16.124  0.00  0.00    +0.000 A 
ATOM     25  C   UNL     1      39.675   5.566  17.314  0.00  0.00    +0.000 A 
ATOM     26  C   UNL     1      38.586   4.711  17.272  0.00  0.00    +0.000 A 
ATOM     27  C   UNL     1      38.221   4.087  16.092  0.00  0.00    +0.000 A 
BRANCH  25  28
ATOM     28  N   UNL     1      40.076   6.222  18.506  0.00  0.00    +0.000 N 
ATOM     29  C   UNL     1      41.329   6.530  18.862  0.00  0.00    +0.000 A 
ATOM     30  N   UNL     1      41.315   7.145  20.051  0.00  0.00    +0.000 NA
ATOM     31  N   UNL     1      40.068   7.234  20.459  0.00  0.00    +0.000 NA
ATOM     32  C   UNL     1      39.308   6.668  19.509  0.00  0.00    +0.000 A 
ENDBRANCH  25  28
ENDBRANCH  18  19
ENDBRANCH  17  18
ENDBRANCH   1  17
TORSDOF 8
ENDMDL
MODEL 7
REMARK VINA RESULT:      -7.6     23.480     26.620
REMARK  Name = 
REMARK  8 active torsions:
REMARK  status: ('A' for Active; 'I' for Inactive)
REMARK    1  A    between atoms: O_2  and  C_3
REMARK    2  A    between atoms: C_4  and  C_5
REMARK    3  A    between atoms: C_5  and  C_6
REMARK    4  A    between atoms: N_14  and  C_15
REMARK    5  A    between atoms: C_15  and  C_16
REMARK    6  A    between atoms: C_16  and  C_17
REMARK    7  A    between atoms: C_17  and  C_18
REMARK    8  A    between atoms: C_24  and  N_25
REMARK                            x       y       z     vdW  Elec       q    Type
REMARK                         _______ _______ _______ _____ _____    ______ ____
ROOT
ATOM      1  C   UNL     1      36.712   1.891  14.340  0.00  0.00    +0.000 C 
ENDROOT
BRANCH   1   6
ATOM      2  C   UNL     1      37.301   5.468  15.110  0.00  0.00    +0.000 C 
ATOM      3  C   UNL     1      38.465   5.347  15.730  0.00  0.00    +0.000 C 
ATOM      4  C   UNL     1      38.774   3.967  16.248  0.00  0.00    +0.000 C 
ATOM      5  C   UNL     1      38.603   3.042  15.061  0.00  0.00    +0.000 C 
ATOM      6  N   UNL     1      37.317   3.206  14.423  0.00  0.00    +0.000 NA
ATOM      7  C   UNL     1      36.495   4.196  15.038  0.00  0.00    +0.000 C 
BRANCH   2   9
ATOM      8  C   UNL     1      35.555   6.966  14.184  0.00  0.00    +0.000 C 
ATOM      9  O   UNL     1      36.858   6.660  14.572  0.00  0.00    +0.000 OA
ENDBRANCH   2   9
BRANCH   3  10
ATOM     10  C   UNL     1      39.356   6.491  15.879  0.00  0.00    +0.000 C 
BRANCH  10  11
ATOM     11  C   UNL     1      39.846   6.502  17.303  0.00  0.00    +0.000 A 
ATOM     12  C   UNL     1      41.200   6.393  17.528  0.00  0.00    +0.000 A 
ATOM     13  C   UNL     1      41.653   6.402  18.811  0.00  0.00    +0.000 A 
ATOM     14  C   UNL     1      40.825   6.516  19.895  0.00  0.00    +0.000 A 
ATOM     15  C   UNL     1      39.458   6.627  19.680  0.00  0.00    +0.000 A 
ATOM     16  C   UNL     1      38.965   6.620  18.373  0.00  0.00    +0.000 A 
ENDBRANCH  10  11
ENDBRANCH   3  10
ENDBRANCH   1   6
BRANCH   1  17
ATOM     17  C   UNL     1      36.156   1.628  15.748  0.00  0.00    +0.000 C 
BRANCH  17  18
ATOM     18  C   UNL     1      35.618   0.191  15.666  0.00  0.00    +0.000 C 
BRANCH  18  19
ATOM     19  C   UNL     1      36.376  -0.681  16.618  0.00  0.00    +0.000 A 
ATOM     20  C   UNL     1      36.163  -0.879  17.950  0.00  0.00    +0.000 A 
ATOM     21  N   UNL     1      37.116  -1.756  18.374  0.00  0.00    +0.000 NA
ATOM     22  C   UNL     1      37.914  -2.120  17.382  0.00  0.00    +0.000 A 
ATOM     23  C   UNL     1      39.005  -2.959  17.262  0.00  0.00    +0.000 A 
ATOM     24  C   UNL     1      39.608  -3.104  16.030  0.00  0.00    +0.000 A 
ATOM     25  C   UNL     1      39.179  -2.445  14.888  0.00  0.00    +0.000 A 
ATOM     26  C   UNL     1      38.084  -1.608  15.030  0.00  0.00    +0.000 A 
ATOM     27  C   UNL     1      37.467  -1.452  16.259  0.00  0.00    +0.000 A 
BRANCH  25  28
ATOM     28  N   UNL     1      39.833  -2.630  13.644  0.00  0.00    +0.000 N 
ATOM     29  C   UNL     1      39.274  -2.548  12.430  0.00  0.00    +0.000 A 
ATOM     30  N   UNL     1      40.202  -2.782  11.495  0.00  0.00    +0.000 NA
ATOM     31  N   UNL     1      41.349  -3.013  12.096  0.00  0.00    +0.000 NA
ATOM     32  C   UNL     1      41.121  -2.919  13.415  0.00  0.00    +0.000 A 
ENDBRANCH  25  28
ENDBRANCH  18  19
ENDBRANCH  17  18
ENDBRANCH   1  17
TORSDOF 8
ENDMDL
MODEL 8
REMARK VINA RESULT:      -7.6     23.169     26.878
REMARK  Name = 
REMARK  8 active torsions:
REMARK  status: ('A' for Active; 'I' for Inactive)
REMARK    1  A    between atoms: O_2  and  C_3
REMARK    2  A    between atoms: C_4  and  C_5
REMARK    3  A    between atoms: C_5  and  C_6
REMARK    4  A    between atoms: N_14  and  C_15
REMARK    5  A    between atoms: C_15  and  C_16
REMARK    6  A    between atoms: C_16  and  C_17
REMARK    7  A    between atoms: C_17  and  C_18
REMARK    8  A    between atoms: C_24  and  N_25
REMARK                            x       y       z     vdW  Elec       q    Type
REMARK                         _______ _______ _______ _____ _____    ______ ____
ROOT
ATOM      1  C   UNL     1      38.603   4.040  15.261  0.00  0.00    +0.000 C 
ENDROOT
BRANCH   1   6
ATOM      2  C   UNL     1      40.675   6.024  17.606  0.00  0.00    +0.000 C 
ATOM      3  C   UNL     1      39.806   6.123  18.602  0.00  0.00    +0.000 C 
ATOM      4  C   UNL     1      38.370   5.874  18.224  0.00  0.00    +0.000 C 
ATOM      5  C   UNL     1      38.362   4.531  17.524  0.00  0.00    +0.000 C 
ATOM      6  N   UNL     1      39.320   4.475  16.443  0.00  0.00    +0.000 NA
ATOM      7  C   UNL     1      40.061   5.682  16.273  0.00  0.00    +0.000 C 
BRANCH   2   9
ATOM      8  C   UNL     1      42.915   6.763  16.843  0.00  0.00    +0.000 C 
ATOM      9  O   UNL     1      42.032   6.219  17.773  0.00  0.00    +0.000 OA
ENDBRANCH   2   9
BRANCH   3  10
ATOM     10  C   UNL     1      40.249   6.449  19.952  0.00  0.00    +0.000 C 
BRANCH  10  11
ATOM     11  C   UNL     1      39.937   7.902  20.192  0.00  0.00    +0.000 A 
ATOM     12  C   UNL     1      38.682   8.233  20.655  0.00  0.00    +0.000 A 
ATOM     13  C   UNL     1      38.390   9.543  20.876  0.00  0.00    +0.000 A 
ATOM     14  C   UNL     1      39.286  10.555  20.661  0.00  0.00    +0.000 A 
ATOM     15  C   UNL     1      40.554  10.234  20.196  0.00  0.00    +0.000 A 
ATOM     16  C   UNL     1      40.882   8.897  19.960  0.00  0.00    +0.000 A 
ENDBRANCH  10  11
ENDBRANCH   3  10
ENDBRANCH   1   6
BRANCH   1  17
ATOM     17  C   UNL     1      39.702   3.666  14.254  0.00  0.00    +0.000 C 
BRANCH  17  18
ATOM     18  C   UNL     1      39.100   2.482  13.479  0.00  0.00    +0.000 C 
BRANCH  18  19
ATOM     19  C   UNL     1      39.851   1.232  13.815  0.00  0.00    +0.000 A 
ATOM     20  C   UNL     1      41.124   0.882  13.474  0.00  0.00    +0.000 A 
ATOM     21  N   UNL     1      41.349  -0.349  14.012  0.00  0.00    +0.000 NA
ATOM     22  C   UNL     1      40.290  -0.791  14.671  0.00  0.00    +0.000 A 
ATOM     23  C   UNL     1      39.988  -1.936  15.383  0.00  0.00    +0.000 A 
ATOM     24  C   UNL     1      38.741  -2.060  15.958  0.00  0.00    +0.000 A 
ATOM     25  C   UNL     1      37.756  -1.088  15.863  0.00  0.00    +0.000 A 
ATOM     26  C   UNL     1      38.080   0.052  15.145  0.00  0.00    +0.000 A 
ATOM     27  C   UNL     1      39.326   0.192  14.561  0.00  0.00    +0.000 A 
BRANCH  25  28
ATOM     28  N   UNL     1      36.489  -1.263  16.475  0.00  0.00    +0.000 N 
ATOM     29  C   UNL     1      36.046  -0.646  17.577  0.00  0.00    +0.000 A 
ATOM     30  N   UNL     1      34.805  -1.064  17.853  0.00  0.00    +0.000 NA
ATOM     31  N   UNL     1      34.449  -1.941  16.940  0.00  0.00    +0.000 NA
ATOM     32  C   UNL     1      35.484  -2.061  16.094  0.00  0.00    +0.000 A 
ENDBRANCH  25  28
ENDBRANCH  18  19
ENDBRANCH  17  18
ENDBRANCH   1  17
TORSDOF 8
ENDMDL
MODEL 9
REMARK VINA RESULT:      -7.6     24.492     27.866
REMARK  Name = 
REMARK  8 active torsions:
REMARK  status: ('A' for Active; 'I' for Inactive)
REMARK    1  A    between atoms: O_2  and  C_3
REMARK    2  A    between atoms: C_4  and  C_5
REMARK    3  A    between atoms: C_5  and  C_6
REMARK    4  A    between atoms: N_14  and  C_15
REMARK    5  A    between atoms: C_15  and  C_16
REMARK    6  A    between atoms: C_16  and  C_17
REMARK    7  A    between atoms: C_17  and  C_18
REMARK    8  A    between atoms: C_24  and  N_25
REMARK                            x       y       z     vdW  Elec       q    Type
REMARK                         _______ _______ _______ _____ _____    ______ ____
ROOT
ATOM      1  C   UNL     1      38.683   4.161  14.994  0.00  0.00    +0.000 C 
ENDROOT
BRANCH   1   6
ATOM      2  C   UNL     1      40.698   6.053  17.462  0.00  0.00    +0.000 C 
ATOM      3  C   UNL     1      39.818   6.085  18.452  0.00  0.00    +0.000 C 
ATOM      4  C   UNL     1      38.390   5.832  18.048  0.00  0.00    +0.000 C 
ATOM      5  C   UNL     1      38.413   4.528  17.278  0.00  0.00    +0.000 C 
ATOM      6  N   UNL     1      39.381   4.545  16.205  0.00  0.00    +0.000 NA
ATOM      7  C   UNL     1      40.103   5.771  16.106  0.00  0.00    +0.000 C 
BRANCH   2   9
ATOM      8  C   UNL     1      42.898   7.017  16.845  0.00  0.00    +0.000 C 
ATOM      9  O   UNL     1      42.050   6.262  17.652  0.00  0.00    +0.000 OA
ENDBRANCH   2   9
BRANCH   3  10
ATOM     10  C   UNL     1      40.243   6.347  19.822  0.00  0.00    +0.000 C 
BRANCH  10  11
ATOM     11  C   UNL     1      39.971   7.799  20.110  0.00  0.00    +0.000 A 
ATOM     12  C   UNL     1      38.774   8.135  20.702  0.00  0.00    +0.000 A 
ATOM     13  C   UNL     1      38.519   9.444  20.967  0.00  0.00    +0.000 A 
ATOM     14  C   UNL     1      39.399  10.452  20.674  0.00  0.00    +0.000 A 
ATOM     15  C   UNL     1      40.610  10.126  20.079  0.00  0.00    +0.000 A 
ATOM     16  C   UNL     1      40.898   8.788  19.795  0.00  0.00    +0.000 A 
ENDBRANCH  10  11
ENDBRANCH   3  10
ENDBRANCH   1   6
BRANCH   1  17
ATOM     17  C   UNL     1      37.687   3.080  15.444  0.00  0.00    +0.000 C 
BRANCH  17  18
ATOM     18  C   UNL     1      37.976   1.901  14.501  0.00  0.00    +0.000 C 
BRANCH  18  19
ATOM     19  C   UNL     1      37.714   0.613  15.218  0.00  0.00    +0.000 A 
ATOM     20  C   UNL     1      36.626   0.252  15.956  0.00  0.00    +0.000 A 
ATOM     21  N   UNL     1      36.859  -1.013  16.404  0.00  0.00    +0.000 NA
ATOM     22  C   UNL     1      38.031  -1.465  15.989  0.00  0.00    +0.000 A 
ATOM     23  C   UNL     1      38.737  -2.643  16.146  0.00  0.00    +0.000 A 
ATOM     24  C   UNL     1      39.973  -2.770  15.548  0.00  0.00    +0.000 A 
ATOM     25  C   UNL     1      40.559  -1.770  14.787  0.00  0.00    +0.000 A 
ATOM     26  C   UNL     1      39.835  -0.598  14.642  0.00  0.00    +0.000 A 
ATOM     27  C   UNL     1      38.594  -0.454  15.236  0.00  0.00    +0.000 A 
BRANCH  25  28
ATOM     28  N   UNL     1      41.833  -1.951  14.190  0.00  0.00    +0.000 N 
ATOM     29  C   UNL     1      42.127  -2.774  13.176  0.00  0.00    +0.000 A 
ATOM     30  N   UNL     1      43.429  -2.675  12.885  0.00  0.00    +0.000 NA
ATOM     31  N   UNL     1      43.972  -1.798  13.702  0.00  0.00    +0.000 NA
ATOM     32  C   UNL     1      42.990  -1.354  14.502  0.00  0.00    +0.000 A 
ENDBRANCH  25  28
ENDBRANCH  18  19
ENDBRANCH  17  18
ENDBRANCH   1  17
TORSDOF 8
ENDMDL
MODEL 10
REMARK VINA RESULT:      -7.5     23.466     25.785
REMARK  Name = 
REMARK  8 active torsions:
REMARK  status: ('A' for Active; 'I' for Inactive)
REMARK    1  A    between atoms: O_2  and  C_3
REMARK    2  A    between atoms: C_4  and  C_5
REMARK    3  A    between atoms: C_5  and  C_6
REMARK    4  A    between atoms: N_14  and  C_15
REMARK    5  A    between atoms: C_15  and  C_16
REMARK    6  A    between atoms: C_16  and  C_17
REMARK    7  A    between atoms: C_17  and  C_18
REMARK    8  A    between atoms: C_24  and  N_25
REMARK                            x       y       z     vdW  Elec       q    Type
REMARK                         _______ _______ _______ _____ _____    ______ ____
ROOT
ATOM      1  C   UNL     1      36.571   4.634  14.352  0.00  0.00    +0.000 C 
ENDROOT
BRANCH   1   6
ATOM      2  C   UNL     1      36.650   0.935  14.549  0.00  0.00    +0.000 C 
ATOM      3  C   UNL     1      36.124   0.790  15.756  0.00  0.00    +0.000 C 
ATOM      4  C   UNL     1      36.181   2.014  16.630  0.00  0.00    +0.000 C 
ATOM      5  C   UNL     1      35.560   3.126  15.810  0.00  0.00    +0.000 C 
ATOM      6  N   UNL     1      36.171   3.249  14.507  0.00  0.00    +0.000 NA
ATOM      7  C   UNL     1      37.214   2.304  14.273  0.00  0.00    +0.000 C 
BRANCH   2   9
ATOM      8  C   UNL     1      37.816  -0.723  13.119  0.00  0.00    +0.000 C 
ATOM      9  O   UNL     1      36.682  -0.085  13.617  0.00  0.00    +0.000 OA
ENDBRANCH   2   9
BRANCH   3  10
ATOM     10  C   UNL     1      35.539  -0.480  16.169  0.00  0.00    +0.000 C 
BRANCH  10  11
ATOM     11  C   UNL     1      36.478  -1.109  17.163  0.00  0.00    +0.000 A 
ATOM     12  C   UNL     1      37.578  -1.786  16.685  0.00  0.00    +0.000 A 
ATOM     13  C   UNL     1      38.434  -2.357  17.574  0.00  0.00    +0.000 A 
ATOM     14  C   UNL     1      38.256  -2.292  18.930  0.00  0.00    +0.000 A 
ATOM     15  C   UNL     1      37.151  -1.612  19.425  0.00  0.00    +0.000 A 
ATOM     16  C   UNL     1      36.255  -1.015  18.534  0.00  0.00    +0.000 A 
ENDBRANCH  10  11
ENDBRANCH   3  10
ENDBRANCH   1   6
BRANCH   1  17
ATOM     17  C   UNL     1      37.896   4.746  15.123  0.00  0.00    +0.000 C 
BRANCH  17  18
ATOM     18  C   UNL     1      37.800   6.114  15.817  0.00  0.00    +0.000 C 
BRANCH  18  19
ATOM     19  C   UNL     1      38.415   6.026  17.179  0.00  0.00    +0.000 A 
ATOM     20  C   UNL     1      39.045   4.969  17.766  0.00  0.00    +0.000 A 
ATOM     21  N   UNL     1      39.425   5.379  19.008  0.00  0.00    +0.000 NA
ATOM     22  C   UNL     1      39.069   6.633  19.234  0.00  0.00    +0.000 A 
ATOM     23  C   UNL     1      39.202   7.514  20.291  0.00  0.00    +0.000 A 
ATOM     24  C   UNL     1      38.693   8.789  20.171  0.00  0.00    +0.000 A 
ATOM     25  C   UNL     1      38.044   9.248  19.035  0.00  0.00    +0.000 A 
ATOM     26  C   UNL     1      37.921   8.350  17.987  0.00  0.00    +0.000 A 
ATOM     27  C   UNL     1      38.426   7.066  18.091  0.00  0.00    +0.000 A 
BRANCH  25  28
ATOM     28  N   UNL     1      37.540  10.571  18.960  0.00  0.00    +0.000 N 
ATOM     29  C   UNL     1      36.591  11.016  18.127  0.00  0.00    +0.000 A 
ATOM     30  N   UNL     1      36.379  12.319  18.348  0.00  0.00    +0.000 NA
ATOM     31  N   UNL     1      37.180  12.713  19.314  0.00  0.00    +0.000 NA
ATOM     32  C   UNL     1      37.892  11.638  19.689  0.00  0.00    +0.000 A 
ENDBRANCH  25  28
ENDBRANCH  18  19
ENDBRANCH  17  18
ENDBRANCH   1  17
TORSDOF 8
ENDMDL
