MODEL 1
REMARK VINA RESULT:      -6.2      0.000      0.000
REMARK  Name = 
REMARK  4 active torsions:
REMARK  status: ('A' for Active; 'I' for Inactive)
REMARK    1  A    between atoms: O_2  and  C_3
REMARK    2  A    between atoms: C_6  and  C_7
REMARK    3  A    between atoms: C_7  and  C_9
REMARK    4  A    between atoms: C_9  and  N_10
REMARK                            x       y       z     vdW  Elec       q    Type
REMARK                         _______ _______ _______ _____ _____    ______ ____
ROOT
ATOM      1  C   UNL     1      26.122  22.880  25.343  0.00  0.00    +0.000 C 
ENDROOT
BRANCH   1   2
ATOM      2  N   UNL     1      27.410  23.062  24.638  0.00  0.00    +0.000 N 
ATOM      3  C   UNL     1      27.414  23.364  23.333  0.00  0.00    +0.000 A 
ATOM      4  N   UNL     1      26.267  23.597  22.479  0.00  0.00    +0.000 NA
ATOM      5  S   UNL     1      29.067  23.407  22.935  0.00  0.00    +0.000 S 
ATOM      6  C   UNL     1      29.699  23.032  24.468  0.00  0.00    +0.000 A 
ATOM      7  C   UNL     1      28.573  22.889  25.227  0.00  0.00    +0.000 A 
ATOM      8  C   UNL     1      28.919  22.503  26.660  0.00  0.00    +0.000 C 
ATOM      9  C   UNL     1      29.909  23.506  27.229  0.00  0.00    +0.000 C 
ATOM     10  C   UNL     1      31.179  23.581  26.410  0.00  0.00    +0.000 C 
ATOM     11  C   UNL     1      31.062  22.840  25.096  0.00  0.00    +0.000 C 
ENDBRANCH   1   2
BRANCH   1  12
ATOM     12  C   UNL     1      25.641  24.036  26.025  0.00  0.00    +0.000 C 
ATOM     13  O   UNL     1      25.160  24.974  25.287  0.00  0.00    +0.000 OA
BRANCH  12  17
ATOM     14  C   UNL     1      25.513  24.917  30.208  0.00  0.00    +0.000 A 
ATOM     15  C   UNL     1      26.121  23.783  29.724  0.00  0.00    +0.000 A 
ATOM     16  C   UNL     1      26.173  23.480  28.389  0.00  0.00    +0.000 A 
ATOM     17  C   UNL     1      25.625  24.284  27.444  0.00  0.00    +0.000 A 
ATOM     18  C   UNL     1      24.997  25.459  27.932  0.00  0.00    +0.000 A 
ATOM     19  C   UNL     1      24.943  25.761  29.262  0.00  0.00    +0.000 A 
BRANCH  14  21
ATOM     20  C   UNL     1      24.599  26.165  32.128  0.00  0.00    +0.000 C 
ATOM     21  O   UNL     1      25.472  25.205  31.562  0.00  0.00    +0.000 OA
ENDBRANCH  14  21
ENDBRANCH  12  17
ENDBRANCH   1  12
TORSDOF 4
ENDMDL
MODEL 2
REMARK VINA RESULT:      -6.2      1.958      2.867
REMARK  Name = 
REMARK  4 active torsions:
REMARK  status: ('A' for Active; 'I' for Inactive)
REMARK    1  A    between atoms: O_2  and  C_3
REMARK    2  A    between atoms: C_6  and  C_7
REMARK    3  A    between atoms: C_7  and  C_9
REMARK    4  A    between atoms: C_9  and  N_10
REMARK                            x       y       z     vdW  Elec       q    Type
REMARK                         _______ _______ _______ _____ _____    ______ ____
ROOT
ATOM      1  C   UNL     1      27.463  23.786  22.310  0.00  0.00    +0.000 C 
ENDROOT
BRANCH   1   2
ATOM      2  N   UNL     1      28.458  24.630  23.009  0.00  0.00    +0.000 N 
ATOM      3  C   UNL     1      28.401  25.962  22.887  0.00  0.00    +0.000 A 
ATOM      4  N   UNL     1      27.415  26.739  22.162  0.00  0.00    +0.000 NA
ATOM      5  S   UNL     1      29.744  26.507  23.776  0.00  0.00    +0.000 S 
ATOM      6  C   UNL     1      30.338  24.995  24.277  0.00  0.00    +0.000 A 
ATOM      7  C   UNL     1      29.446  24.125  23.717  0.00  0.00    +0.000 A 
ATOM      8  C   UNL     1      29.824  22.679  24.014  0.00  0.00    +0.000 C 
ATOM      9  C   UNL     1      29.986  22.497  25.514  0.00  0.00    +0.000 C 
ATOM     10  C   UNL     1      31.039  23.419  26.089  0.00  0.00    +0.000 C 
ATOM     11  C   UNL     1      31.494  24.465  25.096  0.00  0.00    +0.000 C 
ENDBRANCH   1   2
BRANCH   1  12
ATOM     12  C   UNL     1      26.298  23.477  23.070  0.00  0.00    +0.000 C 
ATOM     13  O   UNL     1      25.378  22.816  22.460  0.00  0.00    +0.000 OA
BRANCH  12  17
ATOM     14  C   UNL     1      25.402  24.612  27.095  0.00  0.00    +0.000 A 
ATOM     15  C   UNL     1      26.115  23.474  26.804  0.00  0.00    +0.000 A 
ATOM     16  C   UNL     1      26.413  23.090  25.523  0.00  0.00    +0.000 A 
ATOM     17  C   UNL     1      26.023  23.812  24.444  0.00  0.00    +0.000 A 
ATOM     18  C   UNL     1      25.287  24.992  24.733  0.00  0.00    +0.000 A 
ATOM     19  C   UNL     1      24.990  25.374  26.008  0.00  0.00    +0.000 A 
BRANCH  14  21
ATOM     20  C   UNL     1      25.788  24.455  29.525  0.00  0.00    +0.000 C 
ATOM     21  O   UNL     1      25.113  24.982  28.398  0.00  0.00    +0.000 OA
ENDBRANCH  14  21
ENDBRANCH  12  17
ENDBRANCH   1  12
TORSDOF 4
ENDMDL
MODEL 3
REMARK VINA RESULT:      -6.1     18.539     19.976
REMARK  Name = 
REMARK  4 active torsions:
REMARK  status: ('A' for Active; 'I' for Inactive)
REMARK    1  A    between atoms: O_2  and  C_3
REMARK    2  A    between atoms: C_6  and  C_7
REMARK    3  A    between atoms: C_7  and  C_9
REMARK    4  A    between atoms: C_9  and  N_10
REMARK                            x       y       z     vdW  Elec       q    Type
REMARK                         _______ _______ _______ _____ _____    ______ ____
ROOT
ATOM      1  C   UNL     1      19.482  10.389  39.719  0.00  0.00    +0.000 C 
ENDROOT
BRANCH   1   2
ATOM      2  N   UNL     1      20.733   9.599  39.699  0.00  0.00    +0.000 N 
ATOM      3  C   UNL     1      20.988   8.735  40.689  0.00  0.00    +0.000 A 
ATOM      4  N   UNL     1      20.139   8.414  41.819  0.00  0.00    +0.000 NA
ATOM      5  S   UNL     1      22.525   8.119  40.302  0.00  0.00    +0.000 S 
ATOM      6  C   UNL     1      22.789   8.999  38.871  0.00  0.00    +0.000 A 
ATOM      7  C   UNL     1      21.649   9.742  38.765  0.00  0.00    +0.000 A 
ATOM      8  C   UNL     1      21.695  10.654  37.544  0.00  0.00    +0.000 C 
ATOM      9  C   UNL     1      21.996   9.825  36.306  0.00  0.00    +0.000 C 
ATOM     10  C   UNL     1      23.306   9.079  36.424  0.00  0.00    +0.000 C 
ATOM     11  C   UNL     1      23.875   9.129  37.825  0.00  0.00    +0.000 C 
ENDBRANCH   1   2
BRANCH   1  12
ATOM     12  C   UNL     1      18.410   9.838  38.959  0.00  0.00    +0.000 C 
ATOM     13  O   UNL     1      17.698   8.940  39.544  0.00  0.00    +0.000 OA
BRANCH  12  17
ATOM     14  C   UNL     1      17.329  10.663  34.904  0.00  0.00    +0.000 A 
ATOM     15  C   UNL     1      17.055  11.545  35.921  0.00  0.00    +0.000 A 
ATOM     16  C   UNL     1      17.390  11.301  37.227  0.00  0.00    +0.000 A 
ATOM     17  C   UNL     1      18.023  10.165  37.610  0.00  0.00    +0.000 A 
ATOM     18  C   UNL     1      18.314   9.247  36.566  0.00  0.00    +0.000 A 
ATOM     19  C   UNL     1      17.979   9.489  35.266  0.00  0.00    +0.000 A 
BRANCH  14  21
ATOM     20  C   UNL     1      15.740  11.496  33.213  0.00  0.00    +0.000 C 
ATOM     21  O   UNL     1      16.981  10.929  33.590  0.00  0.00    +0.000 OA
ENDBRANCH  14  21
ENDBRANCH  12  17
ENDBRANCH   1  12
TORSDOF 4
ENDMDL
MODEL 4
REMARK VINA RESULT:      -6.0     19.502     21.484
REMARK  Name = 
REMARK  4 active torsions:
REMARK  status: ('A' for Active; 'I' for Inactive)
REMARK    1  A    between atoms: O_2  and  C_3
REMARK    2  A    between atoms: C_6  and  C_7
REMARK    3  A    between atoms: C_7  and  C_9
REMARK    4  A    between atoms: C_9  and  N_10
REMARK                            x       y       z     vdW  Elec       q    Type
REMARK                         _______ _______ _______ _____ _____    ______ ____
ROOT
ATOM      1  C   UNL     1      19.889  10.171  39.370  0.00  0.00    +0.000 C 
ENDROOT
BRANCH   1   2
ATOM      2  N   UNL     1      19.503   8.913  40.046  0.00  0.00    +0.000 N 
ATOM      3  C   UNL     1      20.446   8.022  40.378  0.00  0.00    +0.000 A 
ATOM      4  N   UNL     1      21.879   8.147  40.198  0.00  0.00    +0.000 NA
ATOM      5  S   UNL     1      19.564   6.733  41.050  0.00  0.00    +0.000 S 
ATOM      6  C   UNL     1      18.004   7.387  40.881  0.00  0.00    +0.000 A 
ATOM      7  C   UNL     1      18.251   8.597  40.298  0.00  0.00    +0.000 A 
ATOM      8  C   UNL     1      16.955   9.348  40.014  0.00  0.00    +0.000 C 
ATOM      9  C   UNL     1      16.139   9.447  41.292  0.00  0.00    +0.000 C 
ATOM     10  C   UNL     1      15.813   8.086  41.867  0.00  0.00    +0.000 C 
ATOM     11  C   UNL     1      16.581   6.974  41.187  0.00  0.00    +0.000 C 
ENDBRANCH   1   2
BRANCH   1  12
ATOM     12  C   UNL     1      19.893  10.111  37.946  0.00  0.00    +0.000 C 
ATOM     13  O   UNL     1      21.015   9.813  37.391  0.00  0.00    +0.000 OA
BRANCH  12  17
ATOM     14  C   UNL     1      16.585  10.937  35.365  0.00  0.00    +0.000 A 
ATOM     15  C   UNL     1      17.363   9.815  35.210  0.00  0.00    +0.000 A 
ATOM     16  C   UNL     1      18.427   9.531  36.024  0.00  0.00    +0.000 A 
ATOM     17  C   UNL     1      18.791  10.342  37.047  0.00  0.00    +0.000 A 
ATOM     18  C   UNL     1      17.992  11.504  37.219  0.00  0.00    +0.000 A 
ATOM     19  C   UNL     1      16.932  11.788  36.408  0.00  0.00    +0.000 A 
BRANCH  14  21
ATOM     20  C   UNL     1      15.656  11.638  33.191  0.00  0.00    +0.000 C 
ATOM     21  O   UNL     1      15.511  11.205  34.531  0.00  0.00    +0.000 OA
ENDBRANCH  14  21
ENDBRANCH  12  17
ENDBRANCH   1  12
TORSDOF 4
ENDMDL
MODEL 5
REMARK VINA RESULT:      -5.9      2.788      5.339
REMARK  Name = 
REMARK  4 active torsions:
REMARK  status: ('A' for Active; 'I' for Inactive)
REMARK    1  A    between atoms: O_2  and  C_3
REMARK    2  A    between atoms: C_6  and  C_7
REMARK    3  A    between atoms: C_7  and  C_9
REMARK    4  A    between atoms: C_9  and  N_10
REMARK                            x       y       z     vdW  Elec       q    Type
REMARK                         _______ _______ _______ _____ _____    ______ ____
ROOT
ATOM      1  C   UNL     1      29.176  24.915  24.200  0.00  0.00    +0.000 C 
ENDROOT
BRANCH   1   2
ATOM      2  N   UNL     1      27.841  24.367  24.523  0.00  0.00    +0.000 N 
ATOM      3  C   UNL     1      27.158  23.691  23.591  0.00  0.00    +0.000 A 
ATOM      4  N   UNL     1      27.591  23.363  22.246  0.00  0.00    +0.000 NA
ATOM      5  S   UNL     1      25.687  23.318  24.357  0.00  0.00    +0.000 S 
ATOM      6  C   UNL     1      26.001  24.049  25.860  0.00  0.00    +0.000 A 
ATOM      7  C   UNL     1      27.257  24.557  25.687  0.00  0.00    +0.000 A 
ATOM      8  C   UNL     1      27.726  25.306  26.929  0.00  0.00    +0.000 C 
ATOM      9  C   UNL     1      27.601  24.399  28.142  0.00  0.00    +0.000 C 
ATOM     10  C   UNL     1      26.182  23.921  28.352  0.00  0.00    +0.000 C 
ATOM     11  C   UNL     1      25.284  24.244  27.178  0.00  0.00    +0.000 C 
ENDBRANCH   1   2
BRANCH   1  12
ATOM     12  C   UNL     1      30.267  24.036  24.461  0.00  0.00    +0.000 C 
ATOM     13  O   UNL     1      30.924  23.623  23.436  0.00  0.00    +0.000 OA
BRANCH  12  17
ATOM     14  C   UNL     1      31.529  22.470  28.235  0.00  0.00    +0.000 A 
ATOM     15  C   UNL     1      32.020  23.654  27.741  0.00  0.00    +0.000 A 
ATOM     16  C   UNL     1      31.632  24.174  26.535  0.00  0.00    +0.000 A 
ATOM     17  C   UNL     1      30.727  23.553  25.738  0.00  0.00    +0.000 A 
ATOM     18  C   UNL     1      30.211  22.329  26.240  0.00  0.00    +0.000 A 
ATOM     19  C   UNL     1      30.599  21.810  27.441  0.00  0.00    +0.000 A 
BRANCH  14  21
ATOM     20  C   UNL     1      33.259  21.535  29.723  0.00  0.00    +0.000 C 
ATOM     21  O   UNL     1      31.936  21.962  29.459  0.00  0.00    +0.000 OA
ENDBRANCH  14  21
ENDBRANCH  12  17
ENDBRANCH   1  12
TORSDOF 4
ENDMDL
MODEL 6
REMARK VINA RESULT:      -5.8      3.601      6.698
REMARK  Name = 
REMARK  4 active torsions:
REMARK  status: ('A' for Active; 'I' for Inactive)
REMARK    1  A    between atoms: O_2  and  C_3
REMARK    2  A    between atoms: C_6  and  C_7
REMARK    3  A    between atoms: C_7  and  C_9
REMARK    4  A    between atoms: C_9  and  N_10
REMARK                            x       y       z     vdW  Elec       q    Type
REMARK                         _______ _______ _______ _____ _____    ______ ____
ROOT
ATOM      1  C   UNL     1      29.766  22.437  24.608  0.00  0.00    +0.000 C 
ENDROOT
BRANCH   1   2
ATOM      2  N   UNL     1      28.930  22.822  25.767  0.00  0.00    +0.000 N 
ATOM      3  C   UNL     1      29.426  22.721  27.006  0.00  0.00    +0.000 A 
ATOM      4  N   UNL     1      30.762  22.308  27.389  0.00  0.00    +0.000 NA
ATOM      5  S   UNL     1      28.128  23.188  28.000  0.00  0.00    +0.000 S 
ATOM      6  C   UNL     1      26.984  23.499  26.781  0.00  0.00    +0.000 A 
ATOM      7  C   UNL     1      27.681  23.218  25.641  0.00  0.00    +0.000 A 
ATOM      8  C   UNL     1      26.809  23.395  24.403  0.00  0.00    +0.000 C 
ATOM      9  C   UNL     1      26.198  24.786  24.412  0.00  0.00    +0.000 C 
ATOM     10  C   UNL     1      25.366  25.036  25.650  0.00  0.00    +0.000 C 
ATOM     11  C   UNL     1      25.544  23.954  26.692  0.00  0.00    +0.000 C 
ENDBRANCH   1   2
BRANCH   1  12
ATOM     12  C   UNL     1      30.478  23.510  23.998  0.00  0.00    +0.000 C 
ATOM     13  O   UNL     1      31.756  23.500  24.140  0.00  0.00    +0.000 OA
BRANCH  12  17
ATOM     14  C   UNL     1      28.850  26.662  21.610  0.00  0.00    +0.000 A 
ATOM     15  C   UNL     1      29.372  26.895  22.860  0.00  0.00    +0.000 A 
ATOM     16  C   UNL     1      29.897  25.901  23.642  0.00  0.00    +0.000 A 
ATOM     17  C   UNL     1      29.940  24.608  23.236  0.00  0.00    +0.000 A 
ATOM     18  C   UNL     1      29.406  24.357  21.944  0.00  0.00    +0.000 A 
ATOM     19  C   UNL     1      28.881  25.346  21.165  0.00  0.00    +0.000 A 
BRANCH  14  21
ATOM     20  C   UNL     1      26.935  27.910  20.685  0.00  0.00    +0.000 C 
ATOM     21  O   UNL     1      28.324  27.683  20.834  0.00  0.00    +0.000 OA
ENDBRANCH  14  21
ENDBRANCH  12  17
ENDBRANCH   1  12
TORSDOF 4
ENDMDL
MODEL 7
REMARK VINA RESULT:      -5.8      3.256      4.970
REMARK  Name = 
REMARK  4 active torsions:
REMARK  status: ('A' for Active; 'I' for Inactive)
REMARK    1  A    between atoms: O_2  and  C_3
REMARK    2  A    between atoms: C_6  and  C_7
REMARK    3  A    between atoms: C_7  and  C_9
REMARK    4  A    between atoms: C_9  and  N_10
REMARK                            x       y       z     vdW  Elec       q    Type
REMARK                         _______ _______ _______ _____ _____    ______ ____
ROOT
ATOM      1  C   UNL     1      28.799  23.130  23.547  0.00  0.00    +0.000 C 
ENDROOT
BRANCH   1   2
ATOM      2  N   UNL     1      28.281  24.452  23.130  0.00  0.00    +0.000 N 
ATOM      3  C   UNL     1      28.676  24.983  21.967  0.00  0.00    +0.000 A 
ATOM      4  N   UNL     1      29.555  24.387  20.980  0.00  0.00    +0.000 NA
ATOM      5  S   UNL     1      27.908  26.499  21.933  0.00  0.00    +0.000 S 
ATOM      6  C   UNL     1      27.100  26.399  23.425  0.00  0.00    +0.000 A 
ATOM      7  C   UNL     1      27.476  25.169  23.884  0.00  0.00    +0.000 A 
ATOM      8  C   UNL     1      26.882  24.888  25.260  0.00  0.00    +0.000 C 
ATOM      9  C   UNL     1      25.375  25.081  25.209  0.00  0.00    +0.000 C 
ATOM     10  C   UNL     1      24.994  26.479  24.775  0.00  0.00    +0.000 C 
ATOM     11  C   UNL     1      26.178  27.265  24.256  0.00  0.00    +0.000 C 
ENDBRANCH   1   2
BRANCH   1  12
ATOM     12  C   UNL     1      29.955  23.172  24.379  0.00  0.00    +0.000 C 
ATOM     13  O   UNL     1      31.072  23.421  23.792  0.00  0.00    +0.000 OA
BRANCH  12  17
ATOM     14  C   UNL     1      30.331  22.620  28.603  0.00  0.00    +0.000 A 
ATOM     15  C   UNL     1      29.154  22.366  27.941  0.00  0.00    +0.000 A 
ATOM     16  C   UNL     1      29.010  22.537  26.590  0.00  0.00    +0.000 A 
ATOM     17  C   UNL     1      30.027  22.970  25.804  0.00  0.00    +0.000 A 
ATOM     18  C   UNL     1      31.249  23.233  26.477  0.00  0.00    +0.000 A 
ATOM     19  C   UNL     1      31.393  23.064  27.824  0.00  0.00    +0.000 A 
BRANCH  14  21
ATOM     20  C   UNL     1      29.416  22.719  30.891  0.00  0.00    +0.000 C 
ATOM     21  O   UNL     1      30.456  22.440  29.971  0.00  0.00    +0.000 OA
ENDBRANCH  14  21
ENDBRANCH  12  17
ENDBRANCH   1  12
TORSDOF 4
ENDMDL
MODEL 8
REMARK VINA RESULT:      -5.8     32.771     34.124
REMARK  Name = 
REMARK  4 active torsions:
REMARK  status: ('A' for Active; 'I' for Inactive)
REMARK    1  A    between atoms: O_2  and  C_3
REMARK    2  A    between atoms: C_6  and  C_7
REMARK    3  A    between atoms: C_7  and  C_9
REMARK    4  A    between atoms: C_9  and  N_10
REMARK                            x       y       z     vdW  Elec       q    Type
REMARK                         _______ _______ _______ _____ _____    ______ ____
ROOT
ATOM      1  C   UNL     1      16.356  -8.845  26.536  0.00  0.00    +0.000 C 
ENDROOT
BRANCH   1   2
ATOM      2  N   UNL     1      15.479  -8.923  25.347  0.00  0.00    +0.000 N 
ATOM      3  C   UNL     1      15.999  -9.263  24.161  0.00  0.00    +0.000 A 
ATOM      4  N   UNL     1      17.371  -9.632  23.874  0.00  0.00    +0.000 NA
ATOM      5  S   UNL     1      14.677  -9.159  23.096  0.00  0.00    +0.000 S 
ATOM      6  C   UNL     1      13.494  -8.678  24.219  0.00  0.00    +0.000 A 
ATOM      7  C   UNL     1      14.199  -8.621  25.387  0.00  0.00    +0.000 A 
ATOM      8  C   UNL     1      13.318  -8.159  26.542  0.00  0.00    +0.000 C 
ATOM      9  C   UNL     1      12.085  -9.044  26.621  0.00  0.00    +0.000 C 
ATOM     10  C   UNL     1      11.283  -9.021  25.339  0.00  0.00    +0.000 C 
ATOM     11  C   UNL     1      12.021  -8.336  24.210  0.00  0.00    +0.000 C 
ENDBRANCH   1   2
BRANCH   1  12
ATOM     12  C   UNL     1      17.082  -7.626  26.669  0.00  0.00    +0.000 C 
ATOM     13  O   UNL     1      16.442  -6.633  27.180  0.00  0.00    +0.000 OA
BRANCH  12  17
ATOM     14  C   UNL     1      21.177  -7.020  25.594  0.00  0.00    +0.000 A 
ATOM     15  C   UNL     1      20.288  -5.976  25.682  0.00  0.00    +0.000 A 
ATOM     16  C   UNL     1      18.972  -6.146  26.022  0.00  0.00    +0.000 A 
ATOM     17  C   UNL     1      18.450  -7.366  26.301  0.00  0.00    +0.000 A 
ATOM     18  C   UNL     1      19.361  -8.453  26.217  0.00  0.00    +0.000 A 
ATOM     19  C   UNL     1      20.671  -8.284  25.876  0.00  0.00    +0.000 A 
BRANCH  14  21
ATOM     20  C   UNL     1      22.914  -6.304  23.998  0.00  0.00    +0.000 C 
ATOM     21  O   UNL     1      22.504  -6.826  25.248  0.00  0.00    +0.000 OA
ENDBRANCH  14  21
ENDBRANCH  12  17
ENDBRANCH   1  12
TORSDOF 4
ENDMDL
MODEL 9
REMARK VINA RESULT:      -5.8      2.233      2.589
REMARK  Name = 
REMARK  4 active torsions:
REMARK  status: ('A' for Active; 'I' for Inactive)
REMARK    1  A    between atoms: O_2  and  C_3
REMARK    2  A    between atoms: C_6  and  C_7
REMARK    3  A    between atoms: C_7  and  C_9
REMARK    4  A    between atoms: C_9  and  N_10
REMARK                            x       y       z     vdW  Elec       q    Type
REMARK                         _______ _______ _______ _____ _____    ______ ____
ROOT
ATOM      1  C   UNL     1      25.581  24.403  24.847  0.00  0.00    +0.000 C 
ENDROOT
BRANCH   1   2
ATOM      2  N   UNL     1      26.608  24.599  23.800  0.00  0.00    +0.000 N 
ATOM      3  C   UNL     1      26.564  23.865  22.681  0.00  0.00    +0.000 A 
ATOM      4  N   UNL     1      25.565  22.882  22.312  0.00  0.00    +0.000 NA
ATOM      5  S   UNL     1      27.941  24.363  21.817  0.00  0.00    +0.000 S 
ATOM      6  C   UNL     1      28.531  25.504  22.931  0.00  0.00    +0.000 A 
ATOM      7  C   UNL     1      27.611  25.440  23.938  0.00  0.00    +0.000 A 
ATOM      8  C   UNL     1      27.980  26.375  25.084  0.00  0.00    +0.000 C 
ATOM      9  C   UNL     1      28.187  27.780  24.541  0.00  0.00    +0.000 C 
ATOM     10  C   UNL     1      29.269  27.830  23.486  0.00  0.00    +0.000 C 
ATOM     11  C   UNL     1      29.706  26.451  23.042  0.00  0.00    +0.000 C 
ENDBRANCH   1   2
BRANCH   1  12
ATOM     12  C   UNL     1      26.001  23.621  25.962  0.00  0.00    +0.000 C 
ATOM     13  O   UNL     1      26.550  22.490  25.691  0.00  0.00    +0.000 OA
BRANCH  12  17
ATOM     14  C   UNL     1      25.576  24.716  30.074  0.00  0.00    +0.000 A 
ATOM     15  C   UNL     1      26.289  23.606  29.689  0.00  0.00    +0.000 A 
ATOM     16  C   UNL     1      26.437  23.236  28.379  0.00  0.00    +0.000 A 
ATOM     17  C   UNL     1      25.888  23.944  27.362  0.00  0.00    +0.000 A 
ATOM     18  C   UNL     1      25.150  25.094  27.748  0.00  0.00    +0.000 A 
ATOM     19  C   UNL     1      25.001  25.463  29.053  0.00  0.00    +0.000 A 
BRANCH  14  21
ATOM     20  C   UNL     1      26.492  25.621  32.177  0.00  0.00    +0.000 C 
ATOM     21  O   UNL     1      25.439  25.073  31.406  0.00  0.00    +0.000 OA
ENDBRANCH  14  21
ENDBRANCH  12  17
ENDBRANCH   1  12
TORSDOF 4
ENDMDL
MODEL 10
REMARK VINA RESULT:      -5.7      2.406      3.219
REMARK  Name = 
REMARK  4 active torsions:
REMARK  status: ('A' for Active; 'I' for Inactive)
REMARK    1  A    between atoms: O_2  and  C_3
REMARK    2  A    between atoms: C_6  and  C_7
REMARK    3  A    between atoms: C_7  and  C_9
REMARK    4  A    between atoms: C_9  and  N_10
REMARK                            x       y       z     vdW  Elec       q    Type
REMARK                         _______ _______ _______ _____ _____    ______ ____
ROOT
ATOM      1  C   UNL     1      25.431  24.172  26.747  0.00  0.00    +0.000 C 
ENDROOT
BRANCH   1   2
ATOM      2  N   UNL     1      26.431  24.437  25.688  0.00  0.00    +0.000 N 
ATOM      3  C   UNL     1      26.306  25.522  24.914  0.00  0.00    +0.000 A 
ATOM      4  N   UNL     1      25.295  26.558  25.006  0.00  0.00    +0.000 NA
ATOM      5  S   UNL     1      27.599  25.389  23.819  0.00  0.00    +0.000 S 
ATOM      6  C   UNL     1      28.261  23.933  24.396  0.00  0.00    +0.000 A 
ATOM      7  C   UNL     1      27.427  23.617  25.430  0.00  0.00    +0.000 A 
ATOM      8  C   UNL     1      27.825  22.295  26.076  0.00  0.00    +0.000 C 
ATOM      9  C   UNL     1      29.290  22.349  26.475  0.00  0.00    +0.000 C 
ATOM     10  C   UNL     1      30.193  22.620  25.293  0.00  0.00    +0.000 C 
ATOM     11  C   UNL     1      29.420  23.022  24.056  0.00  0.00    +0.000 C 
ENDBRANCH   1   2
BRANCH   1  12
ATOM     12  C   UNL     1      25.816  24.588  28.054  0.00  0.00    +0.000 C 
ATOM     13  O   UNL     1      25.218  25.628  28.521  0.00  0.00    +0.000 OA
BRANCH  12  17
ATOM     14  C   UNL     1      28.613  22.672  30.661  0.00  0.00    +0.000 A 
ATOM     15  C   UNL     1      28.890  23.876  30.059  0.00  0.00    +0.000 A 
ATOM     16  C   UNL     1      28.010  24.507  29.220  0.00  0.00    +0.000 A 
ATOM     17  C   UNL     1      26.795  23.985  28.923  0.00  0.00    +0.000 A 
ATOM     18  C   UNL     1      26.497  22.742  29.541  0.00  0.00    +0.000 A 
ATOM     19  C   UNL     1      27.373  22.112  30.376  0.00  0.00    +0.000 A 
BRANCH  14  21
ATOM     20  C   UNL     1      30.921  22.131  31.341  0.00  0.00    +0.000 C 
ATOM     21  O   UNL     1      29.517  22.051  31.507  0.00  0.00    +0.000 OA
ENDBRANCH  14  21
ENDBRANCH  12  17
ENDBRANCH   1  12
TORSDOF 4
ENDMDL
