MODEL 1
REMARK VINA RESULT:      -7.8      0.000      0.000
REMARK  Name = 
REMARK  3 active torsions:
REMARK  status: ('A' for Active; 'I' for Inactive)
REMARK    1  A    between atoms: O_2  and  C_3
REMARK    2  A    between atoms: C_8  and  C_9
REMARK    3  A    between atoms: C_9  and  C_11
REMARK                            x       y       z     vdW  Elec       q    Type
REMARK                         _______ _______ _______ _____ _____    ______ ____
ROOT
ATOM      1  C   UNL     1      14.391  13.327  34.470  0.00  0.00    +0.000 A 
ATOM      2  C   UNL     1      13.522  14.370  34.144  0.00  0.00    +0.000 A 
ATOM      3  N   UNL     1      12.792  15.257  35.013  0.00  0.00    +0.000 NA
ATOM      4  S   UNL     1      13.504  14.377  32.446  0.00  0.00    +0.000 S 
ATOM      5  C   UNL     1      14.573  13.089  32.162  0.00  0.00    +0.000 A 
ATOM      6  C   UNL     1      14.923  12.677  33.425  0.00  0.00    +0.000 A 
ATOM      7  C   UNL     1      15.853  11.511  33.566  0.00  0.00    +0.000 C 
ATOM      8  C   UNL     1      15.231  10.306  32.920  0.00  0.00    +0.000 C 
ATOM      9  C   UNL     1      15.474  10.263  31.429  0.00  0.00    +0.000 C 
ATOM     10  C   UNL     1      14.519  11.149  30.662  0.00  0.00    +0.000 C 
ATOM     11  C   UNL     1      14.965  12.606  30.801  0.00  0.00    +0.000 C 
ENDROOT
BRANCH   1  12
ATOM     12  C   UNL     1      14.624  13.012  35.873  0.00  0.00    +0.000 C 
ATOM     13  O   UNL     1      15.695  13.468  36.420  0.00  0.00    +0.000 OA
BRANCH  12  19
ATOM     14  C   UNL     1      14.391  11.416  37.680  0.00  0.00    +0.000 A 
ATOM     15  C   UNL     1      13.634  10.605  38.488  0.00  0.00    +0.000 A 
ATOM     16  C   UNL     1      12.270  10.574  38.385  0.00  0.00    +0.000 A 
ATOM     17  C   UNL     1      11.685  11.384  37.443  0.00  0.00    +0.000 A 
ATOM     18  C   UNL     1      12.413  12.209  36.618  0.00  0.00    +0.000 A 
ATOM     19  C   UNL     1      13.777  12.238  36.724  0.00  0.00    +0.000 A 
BRANCH  14  21
ATOM     20  C   UNL     1      16.464  10.325  38.307  0.00  0.00    +0.000 C 
ATOM     21  O   UNL     1      15.774  11.443  37.790  0.00  0.00    +0.000 OA
ENDBRANCH  14  21
ENDBRANCH  12  19
ENDBRANCH   1  12
TORSDOF 3
ENDMDL
MODEL 2
REMARK VINA RESULT:      -6.9     19.795     22.422
REMARK  Name = 
REMARK  3 active torsions:
REMARK  status: ('A' for Active; 'I' for Inactive)
REMARK    1  A    between atoms: O_2  and  C_3
REMARK    2  A    between atoms: C_8  and  C_9
REMARK    3  A    between atoms: C_9  and  C_11
REMARK                            x       y       z     vdW  Elec       q    Type
REMARK                         _______ _______ _______ _____ _____    ______ ____
ROOT
ATOM      1  C   UNL     1      28.012  23.259  24.448  0.00  0.00    +0.000 A 
ATOM      2  C   UNL     1      27.025  23.010  25.403  0.00  0.00    +0.000 A 
ATOM      3  N   UNL     1      25.594  23.122  25.288  0.00  0.00    +0.000 NA
ATOM      4  S   UNL     1      27.895  22.531  26.781  0.00  0.00    +0.000 S 
ATOM      5  C   UNL     1      29.469  22.643  26.156  0.00  0.00    +0.000 A 
ATOM      6  C   UNL     1      29.272  23.063  24.862  0.00  0.00    +0.000 A 
ATOM      7  C   UNL     1      30.472  23.305  23.997  0.00  0.00    +0.000 C 
ATOM      8  C   UNL     1      31.325  24.367  24.628  0.00  0.00    +0.000 C 
ATOM      9  C   UNL     1      32.253  23.810  25.683  0.00  0.00    +0.000 C 
ATOM     10  C   UNL     1      31.560  23.600  27.010  0.00  0.00    +0.000 C 
ATOM     11  C   UNL     1      30.708  22.331  26.936  0.00  0.00    +0.000 C 
ENDROOT
BRANCH   1  12
ATOM     12  C   UNL     1      27.617  23.728  23.127  0.00  0.00    +0.000 C 
ATOM     13  O   UNL     1      26.740  23.041  22.484  0.00  0.00    +0.000 OA
BRANCH  12  19
ATOM     14  C   UNL     1      27.559  26.129  22.813  0.00  0.00    +0.000 A 
ATOM     15  C   UNL     1      27.946  27.275  22.164  0.00  0.00    +0.000 A 
ATOM     16  C   UNL     1      28.869  27.240  21.154  0.00  0.00    +0.000 A 
ATOM     17  C   UNL     1      29.395  26.019  20.814  0.00  0.00    +0.000 A 
ATOM     18  C   UNL     1      29.030  24.852  21.444  0.00  0.00    +0.000 A 
ATOM     19  C   UNL     1      28.106  24.889  22.454  0.00  0.00    +0.000 A 
BRANCH  14  21
ATOM     20  C   UNL     1      26.899  26.889  25.020  0.00  0.00    +0.000 C 
ATOM     21  O   UNL     1      26.622  26.171  23.836  0.00  0.00    +0.000 OA
ENDBRANCH  14  21
ENDBRANCH  12  19
ENDBRANCH   1  12
TORSDOF 3
ENDMDL
MODEL 3
REMARK VINA RESULT:      -6.9     18.018     19.102
REMARK  Name = 
REMARK  3 active torsions:
REMARK  status: ('A' for Active; 'I' for Inactive)
REMARK    1  A    between atoms: O_2  and  C_3
REMARK    2  A    between atoms: C_8  and  C_9
REMARK    3  A    between atoms: C_9  and  C_11
REMARK                            x       y       z     vdW  Elec       q    Type
REMARK                         _______ _______ _______ _____ _____    ______ ____
ROOT
ATOM      1  C   UNL     1      28.221  22.882  28.457  0.00  0.00    +0.000 A 
ATOM      2  C   UNL     1      29.335  23.095  29.271  0.00  0.00    +0.000 A 
ATOM      3  N   UNL     1      29.393  23.404  30.676  0.00  0.00    +0.000 NA
ATOM      4  S   UNL     1      30.656  22.906  28.221  0.00  0.00    +0.000 S 
ATOM      5  C   UNL     1      29.813  22.565  26.788  0.00  0.00    +0.000 A 
ATOM      6  C   UNL     1      28.495  22.609  27.173  0.00  0.00    +0.000 A 
ATOM      7  C   UNL     1      27.437  22.381  26.135  0.00  0.00    +0.000 C 
ATOM      8  C   UNL     1      27.568  23.425  25.064  0.00  0.00    +0.000 C 
ATOM      9  C   UNL     1      28.603  23.059  24.026  0.00  0.00    +0.000 C 
ATOM     10  C   UNL     1      30.012  23.369  24.480  0.00  0.00    +0.000 C 
ATOM     11  C   UNL     1      30.468  22.296  25.470  0.00  0.00    +0.000 C 
ENDROOT
BRANCH   1  12
ATOM     12  C   UNL     1      26.889  22.998  29.035  0.00  0.00    +0.000 C 
ATOM     13  O   UNL     1      26.425  21.985  29.678  0.00  0.00    +0.000 OA
BRANCH  12  19
ATOM     14  C   UNL     1      25.726  24.799  30.160  0.00  0.00    +0.000 A 
ATOM     15  C   UNL     1      24.857  25.862  30.165  0.00  0.00    +0.000 A 
ATOM     16  C   UNL     1      24.263  26.299  29.012  0.00  0.00    +0.000 A 
ATOM     17  C   UNL     1      24.568  25.636  27.849  0.00  0.00    +0.000 A 
ATOM     18  C   UNL     1      25.434  24.568  27.808  0.00  0.00    +0.000 A 
ATOM     19  C   UNL     1      26.026  24.134  28.963  0.00  0.00    +0.000 A 
BRANCH  14  21
ATOM     20  C   UNL     1      26.778  25.297  32.287  0.00  0.00    +0.000 C 
ATOM     21  O   UNL     1      26.324  24.361  31.333  0.00  0.00    +0.000 OA
ENDBRANCH  14  21
ENDBRANCH  12  19
ENDBRANCH   1  12
TORSDOF 3
ENDMDL
MODEL 4
REMARK VINA RESULT:      -6.8     19.661     21.902
REMARK  Name = 
REMARK  3 active torsions:
REMARK  status: ('A' for Active; 'I' for Inactive)
REMARK    1  A    between atoms: O_2  and  C_3
REMARK    2  A    between atoms: C_8  and  C_9
REMARK    3  A    between atoms: C_9  and  C_11
REMARK                            x       y       z     vdW  Elec       q    Type
REMARK                         _______ _______ _______ _____ _____    ______ ____
ROOT
ATOM      1  C   UNL     1      27.396  25.224  23.659  0.00  0.00    +0.000 A 
ATOM      2  C   UNL     1      26.344  25.967  24.197  0.00  0.00    +0.000 A 
ATOM      3  N   UNL     1      25.270  25.541  25.055  0.00  0.00    +0.000 NA
ATOM      4  S   UNL     1      26.605  27.538  23.607  0.00  0.00    +0.000 S 
ATOM      5  C   UNL     1      28.014  27.254  22.703  0.00  0.00    +0.000 A 
ATOM      6  C   UNL     1      28.249  25.913  22.887  0.00  0.00    +0.000 A 
ATOM      7  C   UNL     1      29.423  25.290  22.195  0.00  0.00    +0.000 C 
ATOM      8  C   UNL     1      29.264  25.460  20.711  0.00  0.00    +0.000 C 
ATOM      9  C   UNL     1      29.752  26.807  20.231  0.00  0.00    +0.000 C 
ATOM     10  C   UNL     1      28.733  27.902  20.450  0.00  0.00    +0.000 C 
ATOM     11  C   UNL     1      28.741  28.306  21.926  0.00  0.00    +0.000 C 
ENDROOT
BRANCH   1  12
ATOM     12  C   UNL     1      27.471  23.796  23.941  0.00  0.00    +0.000 C 
ATOM     13  O   UNL     1      26.645  23.021  23.331  0.00  0.00    +0.000 OA
BRANCH  12  19
ATOM     14  C   UNL     1      27.924  22.878  26.135  0.00  0.00    +0.000 A 
ATOM     15  C   UNL     1      28.765  22.311  27.060  0.00  0.00    +0.000 A 
ATOM     16  C   UNL     1      30.060  22.001  26.745  0.00  0.00    +0.000 A 
ATOM     17  C   UNL     1      30.488  22.276  25.470  0.00  0.00    +0.000 A 
ATOM     18  C   UNL     1      29.671  22.842  24.519  0.00  0.00    +0.000 A 
ATOM     19  C   UNL     1      28.377  23.151  24.837  0.00  0.00    +0.000 A 
BRANCH  14  21
ATOM     20  C   UNL     1      26.282  23.570  27.781  0.00  0.00    +0.000 C 
ATOM     21  O   UNL     1      26.611  23.190  26.461  0.00  0.00    +0.000 OA
ENDBRANCH  14  21
ENDBRANCH  12  19
ENDBRANCH   1  12
TORSDOF 3
ENDMDL
MODEL 5
REMARK VINA RESULT:      -6.8     18.016     20.184
REMARK  Name = 
REMARK  3 active torsions:
REMARK  status: ('A' for Active; 'I' for Inactive)
REMARK    1  A    between atoms: O_2  and  C_3
REMARK    2  A    between atoms: C_8  and  C_9
REMARK    3  A    between atoms: C_9  and  C_11
REMARK                            x       y       z     vdW  Elec       q    Type
REMARK                         _______ _______ _______ _____ _____    ______ ____
ROOT
ATOM      1  C   UNL     1      26.048  24.459  26.545  0.00  0.00    +0.000 A 
ATOM      2  C   UNL     1      25.726  25.669  25.927  0.00  0.00    +0.000 A 
ATOM      3  N   UNL     1      25.842  26.046  24.542  0.00  0.00    +0.000 NA
ATOM      4  S   UNL     1      25.148  26.640  27.195  0.00  0.00    +0.000 S 
ATOM      5  C   UNL     1      25.311  25.535  28.473  0.00  0.00    +0.000 A 
ATOM      6  C   UNL     1      25.824  24.415  27.866  0.00  0.00    +0.000 A 
ATOM      7  C   UNL     1      26.133  23.218  28.715  0.00  0.00    +0.000 C 
ATOM      8  C   UNL     1      27.148  23.601  29.752  0.00  0.00    +0.000 C 
ATOM      9  C   UNL     1      26.517  24.243  30.966  0.00  0.00    +0.000 C 
ATOM     10  C   UNL     1      26.207  25.708  30.750  0.00  0.00    +0.000 C 
ATOM     11  C   UNL     1      24.945  25.833  29.894  0.00  0.00    +0.000 C 
ENDROOT
BRANCH   1  12
ATOM     12  C   UNL     1      26.612  23.382  25.743  0.00  0.00    +0.000 C 
ATOM     13  O   UNL     1      25.795  22.607  25.121  0.00  0.00    +0.000 OA
BRANCH  12  19
ATOM     14  C   UNL     1      28.547  23.270  24.290  0.00  0.00    +0.000 A 
ATOM     15  C   UNL     1      29.859  22.950  24.045  0.00  0.00    +0.000 A 
ATOM     16  C   UNL     1      30.663  22.447  25.031  0.00  0.00    +0.000 A 
ATOM     17  C   UNL     1      30.111  22.275  26.276  0.00  0.00    +0.000 A 
ATOM     18  C   UNL     1      28.800  22.585  26.557  0.00  0.00    +0.000 A 
ATOM     19  C   UNL     1      27.999  23.088  25.568  0.00  0.00    +0.000 A 
BRANCH  14  21
ATOM     20  C   UNL     1      28.248  23.945  21.980  0.00  0.00    +0.000 C 
ATOM     21  O   UNL     1      27.736  23.779  23.286  0.00  0.00    +0.000 OA
ENDBRANCH  14  21
ENDBRANCH  12  19
ENDBRANCH   1  12
TORSDOF 3
ENDMDL
MODEL 6
REMARK VINA RESULT:      -6.6     21.544     23.926
REMARK  Name = 
REMARK  3 active torsions:
REMARK  status: ('A' for Active; 'I' for Inactive)
REMARK    1  A    between atoms: O_2  and  C_3
REMARK    2  A    between atoms: C_8  and  C_9
REMARK    3  A    between atoms: C_9  and  C_11
REMARK                            x       y       z     vdW  Elec       q    Type
REMARK                         _______ _______ _______ _____ _____    ______ ____
ROOT
ATOM      1  C   UNL     1      20.948  -8.816  24.217  0.00  0.00    +0.000 A 
ATOM      2  C   UNL     1      20.056  -9.667  23.563  0.00  0.00    +0.000 A 
ATOM      3  N   UNL     1      18.839 -10.263  24.049  0.00  0.00    +0.000 NA
ATOM      4  S   UNL     1      20.728  -9.859  22.015  0.00  0.00    +0.000 S 
ATOM      5  C   UNL     1      22.104  -8.882  22.198  0.00  0.00    +0.000 A 
ATOM      6  C   UNL     1      22.003  -8.423  23.489  0.00  0.00    +0.000 A 
ATOM      7  C   UNL     1      23.088  -7.536  24.022  0.00  0.00    +0.000 C 
ATOM      8  C   UNL     1      24.395  -8.274  23.970  0.00  0.00    +0.000 C 
ATOM      9  C   UNL     1      25.051  -8.188  22.611  0.00  0.00    +0.000 C 
ATOM     10  C   UNL     1      24.471  -9.176  21.625  0.00  0.00    +0.000 C 
ATOM     11  C   UNL     1      23.122  -8.653  21.125  0.00  0.00    +0.000 C 
ENDROOT
BRANCH   1  12
ATOM     12  C   UNL     1      20.693  -8.455  25.606  0.00  0.00    +0.000 C 
ATOM     13  O   UNL     1      21.218  -9.189  26.522  0.00  0.00    +0.000 OA
BRANCH  12  19
ATOM     14  C   UNL     1      18.769  -7.645  26.833  0.00  0.00    +0.000 A 
ATOM     15  C   UNL     1      17.942  -6.635  27.259  0.00  0.00    +0.000 A 
ATOM     16  C   UNL     1      18.203  -5.327  26.952  0.00  0.00    +0.000 A 
ATOM     17  C   UNL     1      19.322  -5.061  26.203  0.00  0.00    +0.000 A 
ATOM     18  C   UNL     1      20.172  -6.048  25.760  0.00  0.00    +0.000 A 
ATOM     19  C   UNL     1      19.908  -7.355  26.069  0.00  0.00    +0.000 A 
BRANCH  14  21
ATOM     20  C   UNL     1      18.094  -9.317  28.455  0.00  0.00    +0.000 C 
ATOM     21  O   UNL     1      18.498  -8.969  27.148  0.00  0.00    +0.000 OA
ENDBRANCH  14  21
ENDBRANCH  12  19
ENDBRANCH   1  12
TORSDOF 3
ENDMDL
MODEL 7
REMARK VINA RESULT:      -6.6     21.539     23.941
REMARK  Name = 
REMARK  3 active torsions:
REMARK  status: ('A' for Active; 'I' for Inactive)
REMARK    1  A    between atoms: O_2  and  C_3
REMARK    2  A    between atoms: C_8  and  C_9
REMARK    3  A    between atoms: C_9  and  C_11
REMARK                            x       y       z     vdW  Elec       q    Type
REMARK                         _______ _______ _______ _____ _____    ______ ____
ROOT
ATOM      1  C   UNL     1      21.370  -9.385  25.487  0.00  0.00    +0.000 A 
ATOM      2  C   UNL     1      21.745 -10.107  26.622  0.00  0.00    +0.000 A 
ATOM      3  N   UNL     1      20.969 -10.447  27.786  0.00  0.00    +0.000 NA
ATOM      4  S   UNL     1      23.367 -10.517  26.333  0.00  0.00    +0.000 S 
ATOM      5  C   UNL     1      23.560  -9.791  24.811  0.00  0.00    +0.000 A 
ATOM      6  C   UNL     1      22.329  -9.233  24.563  0.00  0.00    +0.000 A 
ATOM      7  C   UNL     1      22.134  -8.465  23.291  0.00  0.00    +0.000 C 
ATOM      8  C   UNL     1      23.098  -7.314  23.260  0.00  0.00    +0.000 C 
ATOM      9  C   UNL     1      24.463  -7.720  22.754  0.00  0.00    +0.000 C 
ATOM     10  C   UNL     1      25.305  -8.377  23.824  0.00  0.00    +0.000 C 
ATOM     11  C   UNL     1      24.831  -9.819  24.021  0.00  0.00    +0.000 C 
ENDROOT
BRANCH   1  12
ATOM     12  C   UNL     1      20.021  -8.841  25.408  0.00  0.00    +0.000 C 
ATOM     13  O   UNL     1      19.131  -9.535  24.791  0.00  0.00    +0.000 OA
BRANCH  12  19
ATOM     14  C   UNL     1      18.496  -7.631  26.848  0.00  0.00    +0.000 A 
ATOM     15  C   UNL     1      17.981  -6.466  27.359  0.00  0.00    +0.000 A 
ATOM     16  C   UNL     1      18.496  -5.248  27.007  0.00  0.00    +0.000 A 
ATOM     17  C   UNL     1      19.549  -5.233  26.126  0.00  0.00    +0.000 A 
ATOM     18  C   UNL     1      20.089  -6.382  25.596  0.00  0.00    +0.000 A 
ATOM     19  C   UNL     1      19.571  -7.598  25.949  0.00  0.00    +0.000 A 
BRANCH  14  21
ATOM     20  C   UNL     1      17.741  -9.164  28.570  0.00  0.00    +0.000 C 
ATOM     21  O   UNL     1      17.968  -8.863  27.209  0.00  0.00    +0.000 OA
ENDBRANCH  14  21
ENDBRANCH  12  19
ENDBRANCH   1  12
TORSDOF 3
ENDMDL
MODEL 8
REMARK VINA RESULT:      -6.5     18.442     20.419
REMARK  Name = 
REMARK  3 active torsions:
REMARK  status: ('A' for Active; 'I' for Inactive)
REMARK    1  A    between atoms: O_2  and  C_3
REMARK    2  A    between atoms: C_8  and  C_9
REMARK    3  A    between atoms: C_9  and  C_11
REMARK                            x       y       z     vdW  Elec       q    Type
REMARK                         _______ _______ _______ _____ _____    ______ ____
ROOT
ATOM      1  C   UNL     1      26.552  24.995  24.850  0.00  0.00    +0.000 A 
ATOM      2  C   UNL     1      25.675  26.073  24.989  0.00  0.00    +0.000 A 
ATOM      3  N   UNL     1      24.498  26.193  25.810  0.00  0.00    +0.000 NA
ATOM      4  S   UNL     1      26.309  27.258  23.951  0.00  0.00    +0.000 S 
ATOM      5  C   UNL     1      27.652  26.404  23.359  0.00  0.00    +0.000 A 
ATOM      6  C   UNL     1      27.568  25.191  23.998  0.00  0.00    +0.000 A 
ATOM      7  C   UNL     1      28.597  24.146  23.689  0.00  0.00    +0.000 C 
ATOM      8  C   UNL     1      28.541  23.821  22.223  0.00  0.00    +0.000 C 
ATOM      9  C   UNL     1      29.341  24.793  21.387  0.00  0.00    +0.000 C 
ATOM     10  C   UNL     1      28.590  26.077  21.117  0.00  0.00    +0.000 C 
ATOM     11  C   UNL     1      28.629  26.956  22.369  0.00  0.00    +0.000 C 
ENDROOT
BRANCH   1  12
ATOM     12  C   UNL     1      26.289  23.768  25.591  0.00  0.00    +0.000 C 
ATOM     13  O   UNL     1      25.745  22.790  24.956  0.00  0.00    +0.000 OA
BRANCH  12  19
ATOM     14  C   UNL     1      27.703  22.758  27.277  0.00  0.00    +0.000 A 
ATOM     15  C   UNL     1      27.998  22.446  28.580  0.00  0.00    +0.000 A 
ATOM     16  C   UNL     1      27.203  22.871  29.609  0.00  0.00    +0.000 A 
ATOM     17  C   UNL     1      26.100  23.624  29.292  0.00  0.00    +0.000 A 
ATOM     18  C   UNL     1      25.776  23.957  27.996  0.00  0.00    +0.000 A 
ATOM     19  C   UNL     1      26.573  23.529  26.970  0.00  0.00    +0.000 A 
BRANCH  14  21
ATOM     20  C   UNL     1      29.896  22.128  26.453  0.00  0.00    +0.000 C 
ATOM     21  O   UNL     1      28.513  22.323  26.237  0.00  0.00    +0.000 OA
ENDBRANCH  14  21
ENDBRANCH  12  19
ENDBRANCH   1  12
TORSDOF 3
ENDMDL
MODEL 9
REMARK VINA RESULT:      -6.4     18.575     20.728
REMARK  Name = 
REMARK  3 active torsions:
REMARK  status: ('A' for Active; 'I' for Inactive)
REMARK    1  A    between atoms: O_2  and  C_3
REMARK    2  A    between atoms: C_8  and  C_9
REMARK    3  A    between atoms: C_9  and  C_11
REMARK                            x       y       z     vdW  Elec       q    Type
REMARK                         _______ _______ _______ _____ _____    ______ ____
ROOT
ATOM      1  C   UNL     1      26.825  23.417  26.711  0.00  0.00    +0.000 A 
ATOM      2  C   UNL     1      25.928  24.143  27.495  0.00  0.00    +0.000 A 
ATOM      3  N   UNL     1      24.727  24.836  27.106  0.00  0.00    +0.000 NA
ATOM      4  S   UNL     1      26.570  24.036  29.064  0.00  0.00    +0.000 S 
ATOM      5  C   UNL     1      27.941  23.093  28.728  0.00  0.00    +0.000 A 
ATOM      6  C   UNL     1      27.862  22.882  27.373  0.00  0.00    +0.000 A 
ATOM      7  C   UNL     1      28.948  22.095  26.705  0.00  0.00    +0.000 C 
ATOM      8  C   UNL     1      30.261  22.793  26.917  0.00  0.00    +0.000 C 
ATOM      9  C   UNL     1      30.888  22.448  28.248  0.00  0.00    +0.000 C 
ATOM     10  C   UNL     1      30.298  23.244  29.389  0.00  0.00    +0.000 C 
ATOM     11  C   UNL     1      28.934  22.656  29.759  0.00  0.00    +0.000 C 
ENDROOT
BRANCH   1  12
ATOM     12  C   UNL     1      26.595  23.323  25.275  0.00  0.00    +0.000 C 
ATOM     13  O   UNL     1      25.584  22.636  24.874  0.00  0.00    +0.000 OA
BRANCH  12  19
ATOM     14  C   UNL     1      27.012  25.195  23.798  0.00  0.00    +0.000 A 
ATOM     15  C   UNL     1      27.696  25.799  22.771  0.00  0.00    +0.000 A 
ATOM     16  C   UNL     1      28.751  25.177  22.160  0.00  0.00    +0.000 A 
ATOM     17  C   UNL     1      29.102  23.929  22.610  0.00  0.00    +0.000 A 
ATOM     18  C   UNL     1      28.439  23.296  23.636  0.00  0.00    +0.000 A 
ATOM     19  C   UNL     1      27.384  23.920  24.245  0.00  0.00    +0.000 A 
BRANCH  14  21
ATOM     20  C   UNL     1      25.949  27.234  24.569  0.00  0.00    +0.000 C 
ATOM     21  O   UNL     1      25.943  25.830  24.413  0.00  0.00    +0.000 OA
ENDBRANCH  14  21
ENDBRANCH  12  19
ENDBRANCH   1  12
TORSDOF 3
ENDMDL
MODEL 10
REMARK VINA RESULT:      -6.4      6.101      8.094
REMARK  Name = 
REMARK  3 active torsions:
REMARK  status: ('A' for Active; 'I' for Inactive)
REMARK    1  A    between atoms: O_2  and  C_3
REMARK    2  A    between atoms: C_8  and  C_9
REMARK    3  A    between atoms: C_9  and  C_11
REMARK                            x       y       z     vdW  Elec       q    Type
REMARK                         _______ _______ _______ _____ _____    ______ ____
ROOT
ATOM      1  C   UNL     1      21.572  12.016  38.765  0.00  0.00    +0.000 A 
ATOM      2  C   UNL     1      21.916  13.354  38.966  0.00  0.00    +0.000 A 
ATOM      3  N   UNL     1      21.129  14.428  39.514  0.00  0.00    +0.000 NA
ATOM      4  S   UNL     1      23.517  13.457  38.409  0.00  0.00    +0.000 S 
ATOM      5  C   UNL     1      23.740  11.842  37.936  0.00  0.00    +0.000 A 
ATOM      6  C   UNL     1      22.534  11.252  38.229  0.00  0.00    +0.000 A 
ATOM      7  C   UNL     1      22.350   9.799  37.909  0.00  0.00    +0.000 C 
ATOM      8  C   UNL     1      22.538   9.595  36.433  0.00  0.00    +0.000 C 
ATOM      9  C   UNL     1      23.993   9.450  36.052  0.00  0.00    +0.000 C 
ATOM     10  C   UNL     1      24.697  10.783  35.942  0.00  0.00    +0.000 C 
ATOM     11  C   UNL     1      25.007  11.305  37.347  0.00  0.00    +0.000 C 
ENDROOT
BRANCH   1  12
ATOM     12  C   UNL     1      20.229  11.571  39.112  0.00  0.00    +0.000 C 
ATOM     13  O   UNL     1      20.017  11.194  40.324  0.00  0.00    +0.000 OA
BRANCH  12  19
ATOM     14  C   UNL     1      18.623  10.236  37.886  0.00  0.00    +0.000 A 
ATOM     15  C   UNL     1      17.579  10.106  37.004  0.00  0.00    +0.000 A 
ATOM     16  C   UNL     1      16.980  11.203  36.447  0.00  0.00    +0.000 A 
ATOM     17  C   UNL     1      17.460  12.439  36.802  0.00  0.00    +0.000 A 
ATOM     18  C   UNL     1      18.504  12.605  37.682  0.00  0.00    +0.000 A 
ATOM     19  C   UNL     1      19.101  11.506  38.238  0.00  0.00    +0.000 A 
BRANCH  14  21
ATOM     20  C   UNL     1      18.479   8.252  39.273  0.00  0.00    +0.000 C 
ATOM     21  O   UNL     1      19.227   9.119  38.447  0.00  0.00    +0.000 OA
ENDBRANCH  14  21
ENDBRANCH  12  19
ENDBRANCH   1  12
TORSDOF 3
ENDMDL
