MODEL 1
REMARK VINA RESULT:      -6.7      0.000      0.000
REMARK  Name = 
REMARK  2 active torsions:
REMARK  status: ('A' for Active; 'I' for Inactive)
REMARK    1  A    between atoms: C_7  and  N_8
REMARK    2  A    between atoms: C_9  and  C_11
REMARK                            x       y       z     vdW  Elec       q    Type
REMARK                         _______ _______ _______ _____ _____    ______ ____
ROOT
ATOM      1  N   UNL     1      28.098  23.466  21.978  0.00  0.00    +0.000 NA
ATOM      2  C   UNL     1      27.664  23.364  23.325  0.00  0.00    +0.000 A 
ATOM      3  C   UNL     1      26.345  23.636  23.605  0.00  0.00    +0.000 A 
ATOM      4  C   UNL     1      25.858  23.553  24.900  0.00  0.00    +0.000 A 
ATOM      5  C   UNL     1      26.681  23.201  25.929  0.00  0.00    +0.000 A 
ATOM      6  C   UNL     1      28.004  22.926  25.657  0.00  0.00    +0.000 A 
ATOM      7  C   UNL     1      28.790  22.575  26.730  0.00  0.00    +0.000 A 
ATOM      8  C   UNL     1      30.115  22.299  26.468  0.00  0.00    +0.000 A 
ATOM      9  C   UNL     1      30.635  22.371  25.181  0.00  0.00    +0.000 A 
ATOM     10  C   UNL     1      29.832  22.727  24.106  0.00  0.00    +0.000 A 
ATOM     11  C   UNL     1      28.505  23.006  24.356  0.00  0.00    +0.000 A 
ENDROOT
BRANCH   7  12
ATOM     12  N   UNL     1      28.230  22.508  28.048  0.00  0.00    +0.000 NA
ATOM     13  C   UNL     1      28.402  23.568  28.876  0.00  0.00    +0.000 C 
ATOM     14  O   UNL     1      29.012  24.613  28.585  0.00  0.00    +0.000 OA
BRANCH  13  15
ATOM     15  C   UNL     1      27.789  23.534  30.374  0.00  0.00    +0.000 C 
ATOM     16  C   UNL     1      26.429  22.668  29.998  0.00  0.00    +0.000 C 
ATOM     17  C   UNL     1      26.389  24.284  30.043  0.00  0.00    +0.000 C 
ATOM     18  C   UNL     1      26.107  25.122  29.011  0.00  0.00    +0.000 C 
ATOM     19  C   UNL     1      25.533  26.090  30.069  0.00  0.00    +0.000 C 
ATOM     20  C   UNL     1      25.682  24.939  31.089  0.00  0.00    +0.000 C 
ENDBRANCH  13  15
ENDBRANCH   7  12
TORSDOF 2
ENDMDL
MODEL 2
REMARK VINA RESULT:      -6.5      1.507      3.334
REMARK  Name = 
REMARK  2 active torsions:
REMARK  status: ('A' for Active; 'I' for Inactive)
REMARK    1  A    between atoms: C_7  and  N_8
REMARK    2  A    between atoms: C_9  and  C_11
REMARK                            x       y       z     vdW  Elec       q    Type
REMARK                         _______ _______ _______ _____ _____    ______ ____
ROOT
ATOM      1  N   UNL     1      29.800  24.206  22.175  0.00  0.00    +0.000 NA
ATOM      2  C   UNL     1      29.810  23.689  23.495  0.00  0.00    +0.000 A 
ATOM      3  C   UNL     1      31.027  23.499  24.109  0.00  0.00    +0.000 A 
ATOM      4  C   UNL     1      31.106  22.998  25.399  0.00  0.00    +0.000 A 
ATOM      5  C   UNL     1      29.973  22.680  26.090  0.00  0.00    +0.000 A 
ATOM      6  C   UNL     1      28.751  22.868  25.482  0.00  0.00    +0.000 A 
ATOM      7  C   UNL     1      27.641  22.532  26.223  0.00  0.00    +0.000 A 
ATOM      8  C   UNL     1      26.412  22.716  25.624  0.00  0.00    +0.000 A 
ATOM      9  C   UNL     1      26.299  23.217  24.332  0.00  0.00    +0.000 A 
ATOM     10  C   UNL     1      27.426  23.552  23.595  0.00  0.00    +0.000 A 
ATOM     11  C   UNL     1      28.660  23.373  24.183  0.00  0.00    +0.000 A 
ENDROOT
BRANCH   7  12
ATOM     12  N   UNL     1      27.785  22.018  27.553  0.00  0.00    +0.000 NA
ATOM     13  C   UNL     1      27.424  22.811  28.592  0.00  0.00    +0.000 C 
ATOM     14  O   UNL     1      26.970  23.965  28.490  0.00  0.00    +0.000 OA
BRANCH  13  15
ATOM     15  C   UNL     1      27.572  22.271  30.112  0.00  0.00    +0.000 C 
ATOM     16  C   UNL     1      27.758  23.755  30.819  0.00  0.00    +0.000 C 
ATOM     17  C   UNL     1      29.049  22.875  30.404  0.00  0.00    +0.000 C 
ATOM     18  C   UNL     1      30.013  23.213  29.508  0.00  0.00    +0.000 C 
ATOM     19  C   UNL     1      30.984  22.375  30.368  0.00  0.00    +0.000 C 
ATOM     20  C   UNL     1      29.855  22.291  31.421  0.00  0.00    +0.000 C 
ENDBRANCH  13  15
ENDBRANCH   7  12
TORSDOF 2
ENDMDL
MODEL 3
REMARK VINA RESULT:      -6.1     27.236     28.666
REMARK  Name = 
REMARK  2 active torsions:
REMARK  status: ('A' for Active; 'I' for Inactive)
REMARK    1  A    between atoms: C_7  and  N_8
REMARK    2  A    between atoms: C_9  and  C_11
REMARK                            x       y       z     vdW  Elec       q    Type
REMARK                         _______ _______ _______ _____ _____    ______ ____
ROOT
ATOM      1  N   UNL     1      35.893  -7.577  32.337  0.00  0.00    +0.000 NA
ATOM      2  C   UNL     1      35.196  -6.378  32.636  0.00  0.00    +0.000 A 
ATOM      3  C   UNL     1      34.428  -5.808  31.647  0.00  0.00    +0.000 A 
ATOM      4  C   UNL     1      33.722  -4.639  31.875  0.00  0.00    +0.000 A 
ATOM      5  C   UNL     1      33.774  -4.023  33.091  0.00  0.00    +0.000 A 
ATOM      6  C   UNL     1      34.540  -4.588  34.088  0.00  0.00    +0.000 A 
ATOM      7  C   UNL     1      34.557  -3.928  35.296  0.00  0.00    +0.000 A 
ATOM      8  C   UNL     1      35.321  -4.485  36.300  0.00  0.00    +0.000 A 
ATOM      9  C   UNL     1      36.040  -5.658  36.103  0.00  0.00    +0.000 A 
ATOM     10  C   UNL     1      36.016  -6.315  34.881  0.00  0.00    +0.000 A 
ATOM     11  C   UNL     1      35.255  -5.767  33.869  0.00  0.00    +0.000 A 
ENDROOT
BRANCH   7  12
ATOM     12  N   UNL     1      33.806  -2.720  35.473  0.00  0.00    +0.000 NA
ATOM     13  C   UNL     1      34.475  -1.540  35.472  0.00  0.00    +0.000 C 
ATOM     14  O   UNL     1      35.704  -1.412  35.326  0.00  0.00    +0.000 OA
BRANCH  13  15
ATOM     15  C   UNL     1      33.666  -0.151  35.671  0.00  0.00    +0.000 C 
ATOM     16  C   UNL     1      32.264  -0.647  34.945  0.00  0.00    +0.000 C 
ATOM     17  C   UNL     1      33.388   0.154  34.102  0.00  0.00    +0.000 C 
ATOM     18  C   UNL     1      34.075  -0.301  33.021  0.00  0.00    +0.000 C 
ATOM     19  C   UNL     1      34.127   1.168  32.546  0.00  0.00    +0.000 C 
ATOM     20  C   UNL     1      33.131   1.490  33.684  0.00  0.00    +0.000 C 
ENDBRANCH  13  15
ENDBRANCH   7  12
TORSDOF 2
ENDMDL
MODEL 4
REMARK VINA RESULT:      -6.0      2.365      6.559
REMARK  Name = 
REMARK  2 active torsions:
REMARK  status: ('A' for Active; 'I' for Inactive)
REMARK    1  A    between atoms: C_7  and  N_8
REMARK    2  A    between atoms: C_9  and  C_11
REMARK                            x       y       z     vdW  Elec       q    Type
REMARK                         _______ _______ _______ _____ _____    ______ ____
ROOT
ATOM      1  N   UNL     1      25.309  25.299  31.641  0.00  0.00    +0.000 NA
ATOM      2  C   UNL     1      25.573  24.813  30.335  0.00  0.00    +0.000 A 
ATOM      3  C   UNL     1      26.351  23.685  30.206  0.00  0.00    +0.000 A 
ATOM      4  C   UNL     1      26.644  23.159  28.958  0.00  0.00    +0.000 A 
ATOM      5  C   UNL     1      26.168  23.752  27.826  0.00  0.00    +0.000 A 
ATOM      6  C   UNL     1      25.388  24.881  27.946  0.00  0.00    +0.000 A 
ATOM      7  C   UNL     1      24.933  25.439  26.773  0.00  0.00    +0.000 A 
ATOM      8  C   UNL     1      24.152  26.570  26.883  0.00  0.00    +0.000 A 
ATOM      9  C   UNL     1      23.838  27.122  28.120  0.00  0.00    +0.000 A 
ATOM     10  C   UNL     1      24.303  26.551  29.295  0.00  0.00    +0.000 A 
ATOM     11  C   UNL     1      25.085  25.420  29.198  0.00  0.00    +0.000 A 
ENDROOT
BRANCH   7  12
ATOM     12  N   UNL     1      25.270  24.850  25.511  0.00  0.00    +0.000 NA
ATOM     13  C   UNL     1      26.315  25.368  24.818  0.00  0.00    +0.000 C 
ATOM     14  O   UNL     1      27.019  26.324  25.189  0.00  0.00    +0.000 OA
BRANCH  13  15
ATOM     15  C   UNL     1      26.730  24.734  23.386  0.00  0.00    +0.000 C 
ATOM     16  C   UNL     1      26.172  23.206  23.690  0.00  0.00    +0.000 C 
ATOM     17  C   UNL     1      27.724  23.581  23.949  0.00  0.00    +0.000 C 
ATOM     18  C   UNL     1      28.385  23.546  25.136  0.00  0.00    +0.000 C 
ATOM     19  C   UNL     1      29.654  23.218  24.319  0.00  0.00    +0.000 C 
ATOM     20  C   UNL     1      28.727  23.045  23.095  0.00  0.00    +0.000 C 
ENDBRANCH  13  15
ENDBRANCH   7  12
TORSDOF 2
ENDMDL
MODEL 5
REMARK VINA RESULT:      -5.9      1.522      2.621
REMARK  Name = 
REMARK  2 active torsions:
REMARK  status: ('A' for Active; 'I' for Inactive)
REMARK    1  A    between atoms: C_7  and  N_8
REMARK    2  A    between atoms: C_9  and  C_11
REMARK                            x       y       z     vdW  Elec       q    Type
REMARK                         _______ _______ _______ _____ _____    ______ ____
ROOT
ATOM      1  N   UNL     1      29.354  24.178  21.371  0.00  0.00    +0.000 NA
ATOM      2  C   UNL     1      29.378  24.322  22.781  0.00  0.00    +0.000 A 
ATOM      3  C   UNL     1      30.526  24.806  23.366  0.00  0.00    +0.000 A 
ATOM      4  C   UNL     1      30.613  24.972  24.738  0.00  0.00    +0.000 A 
ATOM      5  C   UNL     1      29.559  24.655  25.544  0.00  0.00    +0.000 A 
ATOM      6  C   UNL     1      28.405  24.171  24.966  0.00  0.00    +0.000 A 
ATOM      7  C   UNL     1      27.372  23.868  25.823  0.00  0.00    +0.000 A 
ATOM      8  C   UNL     1      26.213  23.382  25.256  0.00  0.00    +0.000 A 
ATOM      9  C   UNL     1      26.092  23.205  23.882  0.00  0.00    +0.000 A 
ATOM     10  C   UNL     1      27.142  23.514  23.028  0.00  0.00    +0.000 A 
ATOM     11  C   UNL     1      28.306  24.001  23.584  0.00  0.00    +0.000 A 
ENDROOT
BRANCH   7  12
ATOM     12  N   UNL     1      27.521  24.060  27.236  0.00  0.00    +0.000 NA
ATOM     13  C   UNL     1      27.805  22.980  28.006  0.00  0.00    +0.000 C 
ATOM     14  O   UNL     1      27.952  21.818  27.585  0.00  0.00    +0.000 OA
BRANCH  13  15
ATOM     15  C   UNL     1      27.980  23.151  29.607  0.00  0.00    +0.000 C 
ATOM     16  C   UNL     1      26.768  22.109  30.038  0.00  0.00    +0.000 C 
ATOM     17  C   UNL     1      26.484  23.697  29.922  0.00  0.00    +0.000 C 
ATOM     18  C   UNL     1      25.617  24.311  29.075  0.00  0.00    +0.000 C 
ATOM     19  C   UNL     1      25.453  25.391  30.168  0.00  0.00    +0.000 C 
ATOM     20  C   UNL     1      26.252  24.455  31.103  0.00  0.00    +0.000 C 
ENDBRANCH  13  15
ENDBRANCH   7  12
TORSDOF 2
ENDMDL
MODEL 6
REMARK VINA RESULT:      -5.8      1.935      5.689
REMARK  Name = 
REMARK  2 active torsions:
REMARK  status: ('A' for Active; 'I' for Inactive)
REMARK    1  A    between atoms: C_7  and  N_8
REMARK    2  A    between atoms: C_9  and  C_11
REMARK                            x       y       z     vdW  Elec       q    Type
REMARK                         _______ _______ _______ _____ _____    ______ ____
ROOT
ATOM      1  N   UNL     1      24.564  25.678  30.468  0.00  0.00    +0.000 NA
ATOM      2  C   UNL     1      25.034  25.243  29.203  0.00  0.00    +0.000 A 
ATOM      3  C   UNL     1      24.519  25.841  28.077  0.00  0.00    +0.000 A 
ATOM      4  C   UNL     1      24.937  25.462  26.812  0.00  0.00    +0.000 A 
ATOM      5  C   UNL     1      25.873  24.482  26.655  0.00  0.00    +0.000 A 
ATOM      6  C   UNL     1      26.395  23.878  27.779  0.00  0.00    +0.000 A 
ATOM      7  C   UNL     1      27.336  22.896  27.565  0.00  0.00    +0.000 A 
ATOM      8  C   UNL     1      27.864  22.285  28.683  0.00  0.00    +0.000 A 
ATOM      9  C   UNL     1      27.466  22.643  29.966  0.00  0.00    +0.000 A 
ATOM     10  C   UNL     1      26.516  23.634  30.169  0.00  0.00    +0.000 A 
ATOM     11  C   UNL     1      25.981  24.252  29.058  0.00  0.00    +0.000 A 
ENDROOT
BRANCH   7  12
ATOM     12  N   UNL     1      27.729  22.546  26.232  0.00  0.00    +0.000 NA
ATOM     13  C   UNL     1      28.933  22.979  25.782  0.00  0.00    +0.000 C 
ATOM     14  O   UNL     1      29.740  23.664  26.437  0.00  0.00    +0.000 OA
BRANCH  13  15
ATOM     15  C   UNL     1      29.417  22.609  24.281  0.00  0.00    +0.000 C 
ATOM     16  C   UNL     1      30.344  23.960  24.046  0.00  0.00    +0.000 C 
ATOM     17  C   UNL     1      28.809  23.917  23.538  0.00  0.00    +0.000 C 
ATOM     18  C   UNL     1      27.792  24.720  23.946  0.00  0.00    +0.000 C 
ATOM     19  C   UNL     1      27.200  24.543  22.531  0.00  0.00    +0.000 C 
ATOM     20  C   UNL     1      28.533  23.864  22.143  0.00  0.00    +0.000 C 
ENDBRANCH  13  15
ENDBRANCH   7  12
TORSDOF 2
ENDMDL
MODEL 7
REMARK VINA RESULT:      -5.8      1.976      5.811
REMARK  Name = 
REMARK  2 active torsions:
REMARK  status: ('A' for Active; 'I' for Inactive)
REMARK    1  A    between atoms: C_7  and  N_8
REMARK    2  A    between atoms: C_9  and  C_11
REMARK                            x       y       z     vdW  Elec       q    Type
REMARK                         _______ _______ _______ _____ _____    ______ ____
ROOT
ATOM      1  N   UNL     1      30.991  22.359  30.404  0.00  0.00    +0.000 NA
ATOM      2  C   UNL     1      30.326  22.473  29.156  0.00  0.00    +0.000 A 
ATOM      3  C   UNL     1      31.049  22.238  28.010  0.00  0.00    +0.000 A 
ATOM      4  C   UNL     1      30.459  22.332  26.761  0.00  0.00    +0.000 A 
ATOM      5  C   UNL     1      29.141  22.663  26.639  0.00  0.00    +0.000 A 
ATOM      6  C   UNL     1      28.409  22.900  27.783  0.00  0.00    +0.000 A 
ATOM      7  C   UNL     1      27.085  23.229  27.605  0.00  0.00    +0.000 A 
ATOM      8  C   UNL     1      26.343  23.469  28.743  0.00  0.00    +0.000 A 
ATOM      9  C   UNL     1      26.906  23.382  30.011  0.00  0.00    +0.000 A 
ATOM     10  C   UNL     1      28.243  23.049  30.178  0.00  0.00    +0.000 A 
ATOM     11  C   UNL     1      28.994  22.807  29.047  0.00  0.00    +0.000 A 
ENDROOT
BRANCH   7  12
ATOM     12  N   UNL     1      26.529  23.312  26.286  0.00  0.00    +0.000 NA
ATOM     13  C   UNL     1      26.463  24.529  25.691  0.00  0.00    +0.000 C 
ATOM     14  O   UNL     1      26.851  25.597  26.196  0.00  0.00    +0.000 OA
BRANCH  13  15
ATOM     15  C   UNL     1      25.840  24.669  24.202  0.00  0.00    +0.000 C 
ATOM     16  C   UNL     1      26.258  23.154  23.683  0.00  0.00    +0.000 C 
ATOM     17  C   UNL     1      27.215  24.421  23.377  0.00  0.00    +0.000 C 
ATOM     18  C   UNL     1      28.494  24.599  23.801  0.00  0.00    +0.000 C 
ATOM     19  C   UNL     1      28.719  25.406  22.504  0.00  0.00    +0.000 C 
ATOM     20  C   UNL     1      27.329  24.909  22.045  0.00  0.00    +0.000 C 
ENDBRANCH  13  15
ENDBRANCH   7  12
TORSDOF 2
ENDMDL
MODEL 8
REMARK VINA RESULT:      -5.8      1.934      5.872
REMARK  Name = 
REMARK  2 active torsions:
REMARK  status: ('A' for Active; 'I' for Inactive)
REMARK    1  A    between atoms: C_7  and  N_8
REMARK    2  A    between atoms: C_9  and  C_11
REMARK                            x       y       z     vdW  Elec       q    Type
REMARK                         _______ _______ _______ _____ _____    ______ ____
ROOT
ATOM      1  N   UNL     1      29.454  22.344  31.469  0.00  0.00    +0.000 NA
ATOM      2  C   UNL     1      28.672  22.642  30.323  0.00  0.00    +0.000 A 
ATOM      3  C   UNL     1      27.337  22.923  30.502  0.00  0.00    +0.000 A 
ATOM      4  C   UNL     1      26.520  23.222  29.424  0.00  0.00    +0.000 A 
ATOM      5  C   UNL     1      27.023  23.242  28.156  0.00  0.00    +0.000 A 
ATOM      6  C   UNL     1      28.359  22.963  27.969  0.00  0.00    +0.000 A 
ATOM      7  C   UNL     1      28.816  22.997  26.671  0.00  0.00    +0.000 A 
ATOM      8  C   UNL     1      30.152  22.718  26.472  0.00  0.00    +0.000 A 
ATOM      9  C   UNL     1      30.999  22.415  27.532  0.00  0.00    +0.000 A 
ATOM     10  C   UNL     1      30.526  22.383  28.837  0.00  0.00    +0.000 A 
ATOM     11  C   UNL     1      29.192  22.660  29.047  0.00  0.00    +0.000 A 
ENDROOT
BRANCH   7  12
ATOM     12  N   UNL     1      27.922  23.313  25.596  0.00  0.00    +0.000 NA
ATOM     13  C   UNL     1      27.877  24.593  25.151  0.00  0.00    +0.000 C 
ATOM     14  O   UNL     1      28.557  25.533  25.601  0.00  0.00    +0.000 OA
BRANCH  13  15
ATOM     15  C   UNL     1      26.880  24.995  23.939  0.00  0.00    +0.000 C 
ATOM     16  C   UNL     1      26.727  23.471  23.312  0.00  0.00    +0.000 C 
ATOM     17  C   UNL     1      27.826  24.497  22.718  0.00  0.00    +0.000 C 
ATOM     18  C   UNL     1      29.175  24.334  22.711  0.00  0.00    +0.000 C 
ATOM     19  C   UNL     1      29.181  25.167  21.411  0.00  0.00    +0.000 C 
ATOM     20  C   UNL     1      27.640  25.050  21.420  0.00  0.00    +0.000 C 
ENDBRANCH  13  15
ENDBRANCH   7  12
TORSDOF 2
ENDMDL
MODEL 9
REMARK VINA RESULT:      -5.8      2.044      6.108
REMARK  Name = 
REMARK  2 active torsions:
REMARK  status: ('A' for Active; 'I' for Inactive)
REMARK    1  A    between atoms: C_7  and  N_8
REMARK    2  A    between atoms: C_9  and  C_11
REMARK                            x       y       z     vdW  Elec       q    Type
REMARK                         _______ _______ _______ _____ _____    ______ ____
ROOT
ATOM      1  N   UNL     1      25.352  24.893  31.036  0.00  0.00    +0.000 NA
ATOM      2  C   UNL     1      26.244  24.337  30.083  0.00  0.00    +0.000 A 
ATOM      3  C   UNL     1      27.369  23.692  30.545  0.00  0.00    +0.000 A 
ATOM      4  C   UNL     1      28.279  23.127  29.667  0.00  0.00    +0.000 A 
ATOM      5  C   UNL     1      28.079  23.198  28.319  0.00  0.00    +0.000 A 
ATOM      6  C   UNL     1      26.954  23.841  27.849  0.00  0.00    +0.000 A 
ATOM      7  C   UNL     1      26.800  23.885  26.482  0.00  0.00    +0.000 A 
ATOM      8  C   UNL     1      25.678  24.526  26.001  0.00  0.00    +0.000 A 
ATOM      9  C   UNL     1      24.746  25.103  26.855  0.00  0.00    +0.000 A 
ATOM     10  C   UNL     1      24.912  25.054  28.232  0.00  0.00    +0.000 A 
ATOM     11  C   UNL     1      26.031  24.414  28.725  0.00  0.00    +0.000 A 
ENDROOT
BRANCH   7  12
ATOM     12  N   UNL     1      27.776  23.282  25.623  0.00  0.00    +0.000 NA
ATOM     13  C   UNL     1      28.659  24.089  24.985  0.00  0.00    +0.000 C 
ATOM     14  O   UNL     1      28.699  25.329  25.084  0.00  0.00    +0.000 OA
BRANCH  13  15
ATOM     15  C   UNL     1      29.778  23.451  24.003  0.00  0.00    +0.000 C 
ATOM     16  C   UNL     1      30.207  22.200  24.998  0.00  0.00    +0.000 C 
ATOM     17  C   UNL     1      31.042  23.585  25.012  0.00  0.00    +0.000 C 
ATOM     18  C   UNL     1      31.194  24.436  26.060  0.00  0.00    +0.000 C 
ATOM     19  C   UNL     1      32.571  24.793  25.457  0.00  0.00    +0.000 C 
ATOM     20  C   UNL     1      32.361  23.614  24.480  0.00  0.00    +0.000 C 
ENDBRANCH  13  15
ENDBRANCH   7  12
TORSDOF 2
ENDMDL
MODEL 10
REMARK VINA RESULT:      -5.7     33.017     33.947
REMARK  Name = 
REMARK  2 active torsions:
REMARK  status: ('A' for Active; 'I' for Inactive)
REMARK    1  A    between atoms: C_7  and  N_8
REMARK    2  A    between atoms: C_9  and  C_11
REMARK                            x       y       z     vdW  Elec       q    Type
REMARK                         _______ _______ _______ _____ _____    ______ ____
ROOT
ATOM      1  N   UNL     1      18.556  -4.580  26.405  0.00  0.00    +0.000 NA
ATOM      2  C   UNL     1      18.601  -5.987  26.582  0.00  0.00    +0.000 A 
ATOM      3  C   UNL     1      17.553  -6.594  27.236  0.00  0.00    +0.000 A 
ATOM      4  C   UNL     1      17.537  -7.964  27.441  0.00  0.00    +0.000 A 
ATOM      5  C   UNL     1      18.565  -8.744  26.999  0.00  0.00    +0.000 A 
ATOM      6  C   UNL     1      19.618  -8.144  26.343  0.00  0.00    +0.000 A 
ATOM      7  C   UNL     1      20.628  -8.976  25.918  0.00  0.00    +0.000 A 
ATOM      8  C   UNL     1      21.687  -8.385  25.260  0.00  0.00    +0.000 A 
ATOM      9  C   UNL     1      21.734  -7.014  25.038  0.00  0.00    +0.000 A 
ATOM     10  C   UNL     1      20.709  -6.185  25.472  0.00  0.00    +0.000 A 
ATOM     11  C   UNL     1      19.645  -6.764  26.130  0.00  0.00    +0.000 A 
ENDROOT
BRANCH   7  12
ATOM     12  N   UNL     1      20.556 -10.387  26.159  0.00  0.00    +0.000 NA
ATOM     13  C   UNL     1      21.305 -10.907  27.163  0.00  0.00    +0.000 C 
ATOM     14  O   UNL     1      22.060 -10.255  27.907  0.00  0.00    +0.000 OA
BRANCH  13  15
ATOM     15  C   UNL     1      21.256 -12.497  27.470  0.00  0.00    +0.000 C 
ATOM     16  C   UNL     1      19.649 -12.702  27.129  0.00  0.00    +0.000 C 
ATOM     17  C   UNL     1      20.141 -12.446  28.648  0.00  0.00    +0.000 C 
ATOM     18  C   UNL     1      19.809 -11.400  29.449  0.00  0.00    +0.000 C 
ATOM     19  C   UNL     1      19.965 -12.373  30.638  0.00  0.00    +0.000 C 
ATOM     20  C   UNL     1      20.076 -13.507  29.594  0.00  0.00    +0.000 C 
ENDBRANCH  13  15
ENDBRANCH   7  12
TORSDOF 2
ENDMDL
