MODEL 1
REMARK VINA RESULT:      -8.3      0.000      0.000
REMARK  Name = 
REMARK  7 active torsions:
REMARK  status: ('A' for Active; 'I' for Inactive)
REMARK    1  A    between atoms: O_2  and  C_3
REMARK    2  A    between atoms: C_6  and  C_7
REMARK    3  A    between atoms: C_7  and  N_8
REMARK    4  A    between atoms: C_9  and  C_11
REMARK    5  A    between atoms: C_13  and  C_14
REMARK    6  A    between atoms: C_18  and  O_19
REMARK    7  A    between atoms: O_19  and  C_20
REMARK                            x       y       z     vdW  Elec       q    Type
REMARK                         _______ _______ _______ _____ _____    ______ ____
ROOT
ATOM      1  C   UNL     1      37.540   1.384  15.303  0.00  0.00    +0.000 A 
ATOM      2  C   UNL     1      38.513   0.704  14.602  0.00  0.00    +0.000 A 
ATOM      3  C   UNL     1      38.451  -0.692  14.588  0.00  0.00    +0.000 A 
ATOM      4  N   UNL     1      37.493  -1.377  15.224  0.00  0.00    +0.000 NA
ATOM      5  C   UNL     1      36.533  -0.733  15.915  0.00  0.00    +0.000 A 
ATOM      6  C   UNL     1      35.532  -1.449  16.579  0.00  0.00    +0.000 A 
ATOM      7  C   UNL     1      34.562  -0.785  17.279  0.00  0.00    +0.000 A 
ATOM      8  C   UNL     1      34.609   0.593  17.302  0.00  0.00    +0.000 A 
ATOM      9  C   UNL     1      35.589   1.313  16.653  0.00  0.00    +0.000 A 
ATOM     10  C   UNL     1      36.576   0.638  15.942  0.00  0.00    +0.000 A 
ENDROOT
BRANCH   3  11
ATOM     11  C   UNL     1      39.485  -1.409  13.843  0.00  0.00    +0.000 A 
ATOM     12  C   UNL     1      40.711  -1.673  14.418  0.00  0.00    +0.000 A 
ATOM     13  C   UNL     1      41.719  -2.343  13.763  0.00  0.00    +0.000 A 
ATOM     14  C   UNL     1      41.504  -2.773  12.477  0.00  0.00    +0.000 A 
ATOM     15  C   UNL     1      40.294  -2.523  11.884  0.00  0.00    +0.000 A 
ATOM     16  C   UNL     1      39.292  -1.848  12.558  0.00  0.00    +0.000 A 
BRANCH  15  17
ATOM     17  O   UNL     1      40.058  -2.944  10.597  0.00  0.00    +0.000 OA
BRANCH  17  18
ATOM     18  C   UNL     1      40.992  -2.866   9.553  0.00  0.00    +0.000 C 
ATOM     19  C   UNL     1      41.062  -4.200   8.825  0.00  0.00    +0.000 C 
ATOM     20  C   UNL     1      40.548  -1.825   8.523  0.00  0.00    +0.000 C 
ENDBRANCH  17  18
ENDBRANCH  15  17
ENDBRANCH   3  11
BRANCH   1  22
ATOM     21  N   UNL     1      38.264   3.558  16.362  0.00  0.00    +0.000 NA
ATOM     22  C   UNL     1      37.557   2.847  15.353  0.00  0.00    +0.000 C 
ATOM     23  O   UNL     1      36.948   3.548  14.507  0.00  0.00    +0.000 OA
BRANCH  21  24
ATOM     24  C   UNL     1      38.293   5.000  16.428  0.00  0.00    +0.000 C 
BRANCH  24  28
ATOM     25  C   UNL     1      41.250   6.506  19.079  0.00  0.00    +0.000 A 
ATOM     26  C   UNL     1      40.008   6.102  19.522  0.00  0.00    +0.000 A 
ATOM     27  C   UNL     1      39.041   5.612  18.678  0.00  0.00    +0.000 A 
ATOM     28  C   UNL     1      39.312   5.520  17.345  0.00  0.00    +0.000 A 
ATOM     29  C   UNL     1      40.531   5.911  16.875  0.00  0.00    +0.000 A 
ATOM     30  C   UNL     1      41.521   6.411  17.730  0.00  0.00    +0.000 A 
BRANCH  25  32
ATOM     31  C   UNL     1      42.746   6.125  20.956  0.00  0.00    +0.000 C 
ATOM     32  O   UNL     1      42.176   6.990  19.993  0.00  0.00    +0.000 OA
ENDBRANCH  25  32
ENDBRANCH  24  28
ENDBRANCH  21  24
ENDBRANCH   1  22
TORSDOF 7
ENDMDL
MODEL 2
REMARK VINA RESULT:      -8.3      1.587      2.757
REMARK  Name = 
REMARK  7 active torsions:
REMARK  status: ('A' for Active; 'I' for Inactive)
REMARK    1  A    between atoms: O_2  and  C_3
REMARK    2  A    between atoms: C_6  and  C_7
REMARK    3  A    between atoms: C_7  and  N_8
REMARK    4  A    between atoms: C_9  and  C_11
REMARK    5  A    between atoms: C_13  and  C_14
REMARK    6  A    between atoms: C_18  and  O_19
REMARK    7  A    between atoms: O_19  and  C_20
REMARK                            x       y       z     vdW  Elec       q    Type
REMARK                         _______ _______ _______ _____ _____    ______ ____
ROOT
ATOM      1  C   UNL     1      37.956   1.735  15.288  0.00  0.00    +0.000 A 
ATOM      2  C   UNL     1      38.965   1.000  14.703  0.00  0.00    +0.000 A 
ATOM      3  C   UNL     1      38.825  -0.391  14.670  0.00  0.00    +0.000 A 
ATOM      4  N   UNL     1      37.760  -1.019  15.182  0.00  0.00    +0.000 NA
ATOM      5  C   UNL     1      36.763  -0.321  15.758  0.00  0.00    +0.000 A 
ATOM      6  C   UNL     1      35.650  -0.978  16.291  0.00  0.00    +0.000 A 
ATOM      7  C   UNL     1      34.643  -0.259  16.875  0.00  0.00    +0.000 A 
ATOM      8  C   UNL     1      34.766   1.113  16.915  0.00  0.00    +0.000 A 
ATOM      9  C   UNL     1      35.856   1.776  16.394  0.00  0.00    +0.000 A 
ATOM     10  C   UNL     1      36.881   1.045  15.800  0.00  0.00    +0.000 A 
ENDROOT
BRANCH   3  11
ATOM     11  C   UNL     1      39.898  -1.166  14.049  0.00  0.00    +0.000 A 
ATOM     12  C   UNL     1      39.618  -2.099  13.073  0.00  0.00    +0.000 A 
ATOM     13  C   UNL     1      40.588  -2.855  12.456  0.00  0.00    +0.000 A 
ATOM     14  C   UNL     1      41.900  -2.679  12.822  0.00  0.00    +0.000 A 
ATOM     15  C   UNL     1      42.204  -1.758  13.790  0.00  0.00    +0.000 A 
ATOM     16  C   UNL     1      41.215  -1.007  14.400  0.00  0.00    +0.000 A 
BRANCH  15  17
ATOM     17  O   UNL     1      43.511  -1.566  14.172  0.00  0.00    +0.000 OA
BRANCH  17  18
ATOM     18  C   UNL     1      44.033  -0.345  14.625  0.00  0.00    +0.000 C 
ATOM     19  C   UNL     1      45.045  -0.598  15.733  0.00  0.00    +0.000 C 
ATOM     20  C   UNL     1      44.784   0.360  13.495  0.00  0.00    +0.000 C 
ENDBRANCH  17  18
ENDBRANCH  15  17
ENDBRANCH   3  11
BRANCH   1  22
ATOM     21  N   UNL     1      38.539   3.868  16.505  0.00  0.00    +0.000 NA
ATOM     22  C   UNL     1      38.051   3.194  15.351  0.00  0.00    +0.000 C 
ATOM     23  O   UNL     1      37.707   3.925  14.389  0.00  0.00    +0.000 OA
BRANCH  21  24
ATOM     24  C   UNL     1      38.641   5.306  16.587  0.00  0.00    +0.000 C 
BRANCH  24  28
ATOM     25  C   UNL     1      41.608   6.633  19.319  0.00  0.00    +0.000 A 
ATOM     26  C   UNL     1      41.838   6.576  17.961  0.00  0.00    +0.000 A 
ATOM     27  C   UNL     1      40.889   6.150  17.064  0.00  0.00    +0.000 A 
ATOM     28  C   UNL     1      39.667   5.764  17.528  0.00  0.00    +0.000 A 
ATOM     29  C   UNL     1      39.407   5.809  18.866  0.00  0.00    +0.000 A 
ATOM     30  C   UNL     1      40.371   6.243  19.785  0.00  0.00    +0.000 A 
BRANCH  25  32
ATOM     31  C   UNL     1      43.069   6.258  21.225  0.00  0.00    +0.000 C 
ATOM     32  O   UNL     1      42.617   7.076  20.164  0.00  0.00    +0.000 OA
ENDBRANCH  25  32
ENDBRANCH  24  28
ENDBRANCH  21  24
ENDBRANCH   1  22
TORSDOF 7
ENDMDL
MODEL 3
REMARK VINA RESULT:      -8.2      3.566      9.862
REMARK  Name = 
REMARK  7 active torsions:
REMARK  status: ('A' for Active; 'I' for Inactive)
REMARK    1  A    between atoms: O_2  and  C_3
REMARK    2  A    between atoms: C_6  and  C_7
REMARK    3  A    between atoms: C_7  and  N_8
REMARK    4  A    between atoms: C_9  and  C_11
REMARK    5  A    between atoms: C_13  and  C_14
REMARK    6  A    between atoms: C_18  and  O_19
REMARK    7  A    between atoms: O_19  and  C_20
REMARK                            x       y       z     vdW  Elec       q    Type
REMARK                         _______ _______ _______ _____ _____    ______ ____
ROOT
ATOM      1  C   UNL     1      37.492   3.534  16.454  0.00  0.00    +0.000 A 
ATOM      2  C   UNL     1      37.929   4.389  17.444  0.00  0.00    +0.000 A 
ATOM      3  C   UNL     1      39.073   5.151  17.188  0.00  0.00    +0.000 A 
ATOM      4  N   UNL     1      39.744   5.078  16.032  0.00  0.00    +0.000 NA
ATOM      5  C   UNL     1      39.334   4.250  15.053  0.00  0.00    +0.000 A 
ATOM      6  C   UNL     1      40.035   4.173  13.845  0.00  0.00    +0.000 A 
ATOM      7  C   UNL     1      39.611   3.327  12.857  0.00  0.00    +0.000 A 
ATOM      8  C   UNL     1      38.484   2.569  13.094  0.00  0.00    +0.000 A 
ATOM      9  C   UNL     1      37.782   2.632  14.278  0.00  0.00    +0.000 A 
ATOM     10  C   UNL     1      38.214   3.491  15.284  0.00  0.00    +0.000 A 
ENDROOT
BRANCH   3  11
ATOM     11  C   UNL     1      39.533   6.056  18.240  0.00  0.00    +0.000 A 
ATOM     12  C   UNL     1      38.641   6.863  18.915  0.00  0.00    +0.000 A 
ATOM     13  C   UNL     1      39.019   7.731  19.913  0.00  0.00    +0.000 A 
ATOM     14  C   UNL     1      40.346   7.807  20.259  0.00  0.00    +0.000 A 
ATOM     15  C   UNL     1      41.252   7.016  19.603  0.00  0.00    +0.000 A 
ATOM     16  C   UNL     1      40.853   6.148  18.602  0.00  0.00    +0.000 A 
BRANCH  15  17
ATOM     17  O   UNL     1      42.586   7.076  19.934  0.00  0.00    +0.000 OA
BRANCH  17  18
ATOM     18  C   UNL     1      43.076   7.088  21.249  0.00  0.00    +0.000 C 
ATOM     19  C   UNL     1      43.793   5.778  21.541  0.00  0.00    +0.000 C 
ATOM     20  C   UNL     1      44.110   8.203  21.417  0.00  0.00    +0.000 C 
ENDBRANCH  17  18
ENDBRANCH  15  17
ENDBRANCH   3  11
BRANCH   1  22
ATOM     21  N   UNL     1      36.358   1.470  17.365  0.00  0.00    +0.000 NA
ATOM     22  C   UNL     1      36.301   2.710  16.669  0.00  0.00    +0.000 C 
ATOM     23  O   UNL     1      35.169   3.057  16.250  0.00  0.00    +0.000 OA
BRANCH  21  24
ATOM     24  C   UNL     1      35.195   0.644  17.587  0.00  0.00    +0.000 C 
BRANCH  24  28
ATOM     25  C   UNL     1      35.269  -2.984  15.381  0.00  0.00    +0.000 A 
ATOM     26  C   UNL     1      34.449  -2.811  16.475  0.00  0.00    +0.000 A 
ATOM     27  C   UNL     1      34.412  -1.643  17.199  0.00  0.00    +0.000 A 
ATOM     28  C   UNL     1      35.220  -0.610  16.827  0.00  0.00    +0.000 A 
ATOM     29  C   UNL     1      36.043  -0.750  15.749  0.00  0.00    +0.000 A 
ATOM     30  C   UNL     1      36.084  -1.937  15.008  0.00  0.00    +0.000 A 
BRANCH  25  32
ATOM     31  C   UNL     1      34.023  -4.748  14.264  0.00  0.00    +0.000 C 
ATOM     32  O   UNL     1      35.250  -4.194  14.699  0.00  0.00    +0.000 OA
ENDBRANCH  25  32
ENDBRANCH  24  28
ENDBRANCH  21  24
ENDBRANCH   1  22
TORSDOF 7
ENDMDL
MODEL 4
REMARK VINA RESULT:      -8.1      2.410      5.124
REMARK  Name = 
REMARK  7 active torsions:
REMARK  status: ('A' for Active; 'I' for Inactive)
REMARK    1  A    between atoms: O_2  and  C_3
REMARK    2  A    between atoms: C_6  and  C_7
REMARK    3  A    between atoms: C_7  and  N_8
REMARK    4  A    between atoms: C_9  and  C_11
REMARK    5  A    between atoms: C_13  and  C_14
REMARK    6  A    between atoms: C_18  and  O_19
REMARK    7  A    between atoms: O_19  and  C_20
REMARK                            x       y       z     vdW  Elec       q    Type
REMARK                         _______ _______ _______ _____ _____    ______ ____
ROOT
ATOM      1  C   UNL     1      37.998   2.169  15.139  0.00  0.00    +0.000 A 
ATOM      2  C   UNL     1      37.038   1.318  15.643  0.00  0.00    +0.000 A 
ATOM      3  C   UNL     1      37.110  -0.032  15.286  0.00  0.00    +0.000 A 
ATOM      4  N   UNL     1      38.065  -0.514  14.484  0.00  0.00    +0.000 NA
ATOM      5  C   UNL     1      39.013   0.299  13.980  0.00  0.00    +0.000 A 
ATOM      6  C   UNL     1      40.012  -0.206  13.141  0.00  0.00    +0.000 A 
ATOM      7  C   UNL     1      40.970   0.630  12.635  0.00  0.00    +0.000 A 
ATOM      8  C   UNL     1      40.913   1.963  12.978  0.00  0.00    +0.000 A 
ATOM      9  C   UNL     1      39.935   2.476  13.802  0.00  0.00    +0.000 A 
ATOM     10  C   UNL     1      38.961   1.628  14.318  0.00  0.00    +0.000 A 
ENDROOT
BRANCH   3  11
ATOM     11  C   UNL     1      36.088  -0.930  15.823  0.00  0.00    +0.000 A 
ATOM     12  C   UNL     1      35.110  -0.456  16.672  0.00  0.00    +0.000 A 
ATOM     13  C   UNL     1      34.126  -1.257  17.206  0.00  0.00    +0.000 A 
ATOM     14  C   UNL     1      34.109  -2.591  16.883  0.00  0.00    +0.000 A 
ATOM     15  C   UNL     1      35.070  -3.086  16.041  0.00  0.00    +0.000 A 
ATOM     16  C   UNL     1      36.052  -2.266  15.514  0.00  0.00    +0.000 A 
BRANCH  15  17
ATOM     17  O   UNL     1      35.071  -4.420  15.705  0.00  0.00    +0.000 OA
BRANCH  17  18
ATOM     18  C   UNL     1      33.933  -5.137  15.306  0.00  0.00    +0.000 C 
ATOM     19  C   UNL     1      33.559  -4.754  13.882  0.00  0.00    +0.000 C 
ATOM     20  C   UNL     1      34.232  -6.637  15.294  0.00  0.00    +0.000 C 
ENDBRANCH  17  18
ENDBRANCH  15  17
ENDBRANCH   3  11
BRANCH   1  22
ATOM     21  N   UNL     1      38.584   4.097  16.660  0.00  0.00    +0.000 NA
ATOM     22  C   UNL     1      37.970   3.592  15.479  0.00  0.00    +0.000 C 
ATOM     23  O   UNL     1      37.402   4.440  14.746  0.00  0.00    +0.000 OA
BRANCH  21  24
ATOM     24  C   UNL     1      38.566   5.497  17.013  0.00  0.00    +0.000 C 
BRANCH  24  28
ATOM     25  C   UNL     1      41.817   6.652  19.489  0.00  0.00    +0.000 A 
ATOM     26  C   UNL     1      41.948   6.525  18.123  0.00  0.00    +0.000 A 
ATOM     27  C   UNL     1      40.907   6.153  17.308  0.00  0.00    +0.000 A 
ATOM     28  C   UNL     1      39.690   5.895  17.866  0.00  0.00    +0.000 A 
ATOM     29  C   UNL     1      39.527   6.012  19.215  0.00  0.00    +0.000 A 
ATOM     30  C   UNL     1      40.585   6.392  20.051  0.00  0.00    +0.000 A 
BRANCH  25  32
ATOM     31  C   UNL     1      43.240   6.336  21.434  0.00  0.00    +0.000 C 
ATOM     32  O   UNL     1      42.916   7.034  20.247  0.00  0.00    +0.000 OA
ENDBRANCH  25  32
ENDBRANCH  24  28
ENDBRANCH  21  24
ENDBRANCH   1  22
TORSDOF 7
ENDMDL
MODEL 5
REMARK VINA RESULT:      -8.1     23.622     28.116
REMARK  Name = 
REMARK  7 active torsions:
REMARK  status: ('A' for Active; 'I' for Inactive)
REMARK    1  A    between atoms: O_2  and  C_3
REMARK    2  A    between atoms: C_6  and  C_7
REMARK    3  A    between atoms: C_7  and  N_8
REMARK    4  A    between atoms: C_9  and  C_11
REMARK    5  A    between atoms: C_13  and  C_14
REMARK    6  A    between atoms: C_18  and  O_19
REMARK    7  A    between atoms: O_19  and  C_20
REMARK                            x       y       z     vdW  Elec       q    Type
REMARK                         _______ _______ _______ _____ _____    ______ ____
ROOT
ATOM      1  C   UNL     1      12.802   0.290  26.707  0.00  0.00    +0.000 A 
ATOM      2  C   UNL     1      12.218  -0.804  26.106  0.00  0.00    +0.000 A 
ATOM      3  C   UNL     1      10.939  -0.646  25.564  0.00  0.00    +0.000 A 
ATOM      4  N   UNL     1      10.276   0.516  25.611  0.00  0.00    +0.000 NA
ATOM      5  C   UNL     1      10.827   1.597  26.193  0.00  0.00    +0.000 A 
ATOM      6  C   UNL     1      10.135   2.811  26.242  0.00  0.00    +0.000 A 
ATOM      7  C   UNL     1      10.704   3.904  26.837  0.00  0.00    +0.000 A 
ATOM      8  C   UNL     1      11.965   3.763  27.376  0.00  0.00    +0.000 A 
ATOM      9  C   UNL     1      12.661   2.574  27.337  0.00  0.00    +0.000 A 
ATOM     10  C   UNL     1      12.082   1.463  26.732  0.00  0.00    +0.000 A 
ENDROOT
BRANCH   3  11
ATOM     11  C   UNL     1      10.324  -1.809  24.927  0.00  0.00    +0.000 A 
ATOM     12  C   UNL     1       8.973  -1.826  24.646  0.00  0.00    +0.000 A 
ATOM     13  C   UNL     1       8.343  -2.893  24.049  0.00  0.00    +0.000 A 
ATOM     14  C   UNL     1       9.085  -3.998  23.713  0.00  0.00    +0.000 A 
ATOM     15  C   UNL     1      10.428  -4.007  23.982  0.00  0.00    +0.000 A 
ATOM     16  C   UNL     1      11.045  -2.924  24.583  0.00  0.00    +0.000 A 
BRANCH  15  17
ATOM     17  O   UNL     1      11.190  -5.103  23.654  0.00  0.00    +0.000 OA
BRANCH  17  18
ATOM     18  C   UNL     1      10.872  -6.013  22.633  0.00  0.00    +0.000 C 
ATOM     19  C   UNL     1      11.713  -5.716  21.401  0.00  0.00    +0.000 C 
ATOM     20  C   UNL     1      11.218  -7.438  23.069  0.00  0.00    +0.000 C 
ENDBRANCH  17  18
ENDBRANCH  15  17
ENDBRANCH   3  11
BRANCH   1  22
ATOM     21  N   UNL     1      15.314   0.178  26.491  0.00  0.00    +0.000 NA
ATOM     22  C   UNL     1      14.139   0.180  27.293  0.00  0.00    +0.000 C 
ATOM     23  O   UNL     1      14.316   0.081  28.533  0.00  0.00    +0.000 OA
BRANCH  21  24
ATOM     24  C   UNL     1      16.641   0.069  27.049  0.00  0.00    +0.000 C 
BRANCH  24  28
ATOM     25  C   UNL     1      19.652  -0.561  24.121  0.00  0.00    +0.000 A 
ATOM     26  C   UNL     1      19.071  -1.605  24.808  0.00  0.00    +0.000 A 
ATOM     27  C   UNL     1      18.095  -1.418  25.757  0.00  0.00    +0.000 A 
ATOM     28  C   UNL     1      17.681  -0.151  26.039  0.00  0.00    +0.000 A 
ATOM     29  C   UNL     1      18.237   0.905  25.377  0.00  0.00    +0.000 A 
ATOM     30  C   UNL     1      19.231   0.720  24.408  0.00  0.00    +0.000 A 
BRANCH  25  32
ATOM     31  C   UNL     1      20.484  -1.916  22.283  0.00  0.00    +0.000 C 
ATOM     32  O   UNL     1      20.633  -0.829  23.175  0.00  0.00    +0.000 OA
ENDBRANCH  25  32
ENDBRANCH  24  28
ENDBRANCH  21  24
ENDBRANCH   1  22
TORSDOF 7
ENDMDL
MODEL 6
REMARK VINA RESULT:      -8.1     24.173     28.709
REMARK  Name = 
REMARK  7 active torsions:
REMARK  status: ('A' for Active; 'I' for Inactive)
REMARK    1  A    between atoms: O_2  and  C_3
REMARK    2  A    between atoms: C_6  and  C_7
REMARK    3  A    between atoms: C_7  and  N_8
REMARK    4  A    between atoms: C_9  and  C_11
REMARK    5  A    between atoms: C_13  and  C_14
REMARK    6  A    between atoms: C_18  and  O_19
REMARK    7  A    between atoms: O_19  and  C_20
REMARK                            x       y       z     vdW  Elec       q    Type
REMARK                         _______ _______ _______ _____ _____    ______ ____
ROOT
ATOM      1  C   UNL     1      12.674   0.373  26.871  0.00  0.00    +0.000 A 
ATOM      2  C   UNL     1      11.984  -0.724  26.401  0.00  0.00    +0.000 A 
ATOM      3  C   UNL     1      10.708  -0.513  25.870  0.00  0.00    +0.000 A 
ATOM      4  N   UNL     1      10.146   0.699  25.808  0.00  0.00    +0.000 NA
ATOM      5  C   UNL     1      10.801   1.784  26.261  0.00  0.00    +0.000 A 
ATOM      6  C   UNL     1      10.214   3.052  26.195  0.00  0.00    +0.000 A 
ATOM      7  C   UNL     1      10.889   4.147  26.660  0.00  0.00    +0.000 A 
ATOM      8  C   UNL     1      12.149   3.956  27.186  0.00  0.00    +0.000 A 
ATOM      9  C   UNL     1      12.742   2.714  27.259  0.00  0.00    +0.000 A 
ATOM     10  C   UNL     1      12.056   1.600  26.786  0.00  0.00    +0.000 A 
ENDROOT
BRANCH   3  11
ATOM     11  C   UNL     1       9.980  -1.679  25.373  0.00  0.00    +0.000 A 
ATOM     12  C   UNL     1      10.173  -2.923  25.937  0.00  0.00    +0.000 A 
ATOM     13  C   UNL     1       9.515  -4.053  25.509  0.00  0.00    +0.000 A 
ATOM     14  C   UNL     1       8.622  -3.948  24.471  0.00  0.00    +0.000 A 
ATOM     15  C   UNL     1       8.412  -2.723  23.894  0.00  0.00    +0.000 A 
ATOM     16  C   UNL     1       9.083  -1.597  24.338  0.00  0.00    +0.000 A 
BRANCH  15  17
ATOM     17  O   UNL     1       7.522  -2.595  22.853  0.00  0.00    +0.000 OA
BRANCH  17  18
ATOM     18  C   UNL     1       7.861  -2.128  21.574  0.00  0.00    +0.000 C 
ATOM     19  C   UNL     1       8.833  -3.096  20.915  0.00  0.00    +0.000 C 
ATOM     20  C   UNL     1       6.618  -2.078  20.683  0.00  0.00    +0.000 C 
ENDBRANCH  17  18
ENDBRANCH  15  17
ENDBRANCH   3  11
BRANCH   1  22
ATOM     21  N   UNL     1      15.181   0.208  26.624  0.00  0.00    +0.000 NA
ATOM     22  C   UNL     1      14.014   0.210  27.438  0.00  0.00    +0.000 C 
ATOM     23  O   UNL     1      14.200   0.063  28.672  0.00  0.00    +0.000 OA
BRANCH  21  24
ATOM     24  C   UNL     1      16.510   0.048  27.165  0.00  0.00    +0.000 C 
BRANCH  24  28
ATOM     25  C   UNL     1      19.469  -0.603  24.188  0.00  0.00    +0.000 A 
ATOM     26  C   UNL     1      18.858  -1.645  24.852  0.00  0.00    +0.000 A 
ATOM     27  C   UNL     1      17.899  -1.452  25.816  0.00  0.00    +0.000 A 
ATOM     28  C   UNL     1      17.532  -0.179  26.138  0.00  0.00    +0.000 A 
ATOM     29  C   UNL     1      18.117   0.875  25.500  0.00  0.00    +0.000 A 
ATOM     30  C   UNL     1      19.096   0.684  24.516  0.00  0.00    +0.000 A 
BRANCH  25  32
ATOM     31  C   UNL     1      20.334  -2.047  22.435  0.00  0.00    +0.000 C 
ATOM     32  O   UNL     1      20.430  -0.877  23.224  0.00  0.00    +0.000 OA
ENDBRANCH  25  32
ENDBRANCH  24  28
ENDBRANCH  21  24
ENDBRANCH   1  22
TORSDOF 7
ENDMDL
MODEL 7
REMARK VINA RESULT:      -7.7      4.059     10.469
REMARK  Name = 
REMARK  7 active torsions:
REMARK  status: ('A' for Active; 'I' for Inactive)
REMARK    1  A    between atoms: O_2  and  C_3
REMARK    2  A    between atoms: C_6  and  C_7
REMARK    3  A    between atoms: C_7  and  N_8
REMARK    4  A    between atoms: C_9  and  C_11
REMARK    5  A    between atoms: C_13  and  C_14
REMARK    6  A    between atoms: C_18  and  O_19
REMARK    7  A    between atoms: O_19  and  C_20
REMARK                            x       y       z     vdW  Elec       q    Type
REMARK                         _______ _______ _______ _____ _____    ______ ____
ROOT
ATOM      1  C   UNL     1      39.921   6.483  18.025  0.00  0.00    +0.000 A 
ATOM      2  C   UNL     1      41.198   6.212  18.469  0.00  0.00    +0.000 A 
ATOM      3  C   UNL     1      41.606   6.793  19.674  0.00  0.00    +0.000 A 
ATOM      4  N   UNL     1      40.810   7.589  20.396  0.00  0.00    +0.000 NA
ATOM      5  C   UNL     1      39.559   7.867  19.981  0.00  0.00    +0.000 A 
ATOM      6  C   UNL     1      38.726   8.699  20.736  0.00  0.00    +0.000 A 
ATOM      7  C   UNL     1      37.457   8.975  20.305  0.00  0.00    +0.000 A 
ATOM      8  C   UNL     1      37.040   8.410  19.119  0.00  0.00    +0.000 A 
ATOM      9  C   UNL     1      37.848   7.589  18.363  0.00  0.00    +0.000 A 
ATOM     10  C   UNL     1      39.138   7.308  18.801  0.00  0.00    +0.000 A 
ENDROOT
BRANCH   3  11
ATOM     11  C   UNL     1      42.961   6.503  20.141  0.00  0.00    +0.000 A 
ATOM     12  C   UNL     1      44.053   6.766  19.339  0.00  0.00    +0.000 A 
ATOM     13  C   UNL     1      45.348   6.514  19.728  0.00  0.00    +0.000 A 
ATOM     14  C   UNL     1      45.575   5.974  20.970  0.00  0.00    +0.000 A 
ATOM     15  C   UNL     1      44.508   5.703  21.785  0.00  0.00    +0.000 A 
ATOM     16  C   UNL     1      43.212   5.964  21.377  0.00  0.00    +0.000 A 
BRANCH  15  17
ATOM     17  O   UNL     1      44.712   5.162  23.032  0.00  0.00    +0.000 OA
BRANCH  17  18
ATOM     18  C   UNL     1      45.291   5.851  24.109  0.00  0.00    +0.000 C 
ATOM     19  C   UNL     1      44.264   6.781  24.735  0.00  0.00    +0.000 C 
ATOM     20  C   UNL     1      45.715   4.865  25.200  0.00  0.00    +0.000 C 
ENDBRANCH  17  18
ENDBRANCH  15  17
ENDBRANCH   3  11
BRANCH   1  22
ATOM     21  N   UNL     1      38.729   4.673  16.732  0.00  0.00    +0.000 NA
ATOM     22  C   UNL     1      39.442   5.904  16.769  0.00  0.00    +0.000 C 
ATOM     23  O   UNL     1      39.637   6.464  15.662  0.00  0.00    +0.000 OA
BRANCH  21  24
ATOM     24  C   UNL     1      38.249   4.085  15.503  0.00  0.00    +0.000 C 
BRANCH  24  28
ATOM     25  C   UNL     1      35.910   0.594  16.115  0.00  0.00    +0.000 A 
ATOM     26  C   UNL     1      36.960   0.622  15.222  0.00  0.00    +0.000 A 
ATOM     27  C   UNL     1      37.727   1.743  15.014  0.00  0.00    +0.000 A 
ATOM     28  C   UNL     1      37.443   2.879  15.712  0.00  0.00    +0.000 A 
ATOM     29  C   UNL     1      36.410   2.883  16.603  0.00  0.00    +0.000 A 
ATOM     30  C   UNL     1      35.625   1.743  16.820  0.00  0.00    +0.000 A 
BRANCH  25  32
ATOM     31  C   UNL     1      35.646  -1.789  15.708  0.00  0.00    +0.000 C 
ATOM     32  O   UNL     1      35.181  -0.578  16.272  0.00  0.00    +0.000 OA
ENDBRANCH  25  32
ENDBRANCH  24  28
ENDBRANCH  21  24
ENDBRANCH   1  22
TORSDOF 7
ENDMDL
MODEL 8
REMARK VINA RESULT:      -7.6      1.478      2.108
REMARK  Name = 
REMARK  7 active torsions:
REMARK  status: ('A' for Active; 'I' for Inactive)
REMARK    1  A    between atoms: O_2  and  C_3
REMARK    2  A    between atoms: C_6  and  C_7
REMARK    3  A    between atoms: C_7  and  N_8
REMARK    4  A    between atoms: C_9  and  C_11
REMARK    5  A    between atoms: C_13  and  C_14
REMARK    6  A    between atoms: C_18  and  O_19
REMARK    7  A    between atoms: O_19  and  C_20
REMARK                            x       y       z     vdW  Elec       q    Type
REMARK                         _______ _______ _______ _____ _____    ______ ____
ROOT
ATOM      1  C   UNL     1      37.159   1.672  14.991  0.00  0.00    +0.000 A 
ATOM      2  C   UNL     1      37.932   1.139  13.981  0.00  0.00    +0.000 A 
ATOM      3  C   UNL     1      37.888  -0.244  13.787  0.00  0.00    +0.000 A 
ATOM      4  N   UNL     1      37.133  -1.053  14.538  0.00  0.00    +0.000 NA
ATOM      5  C   UNL     1      36.370  -0.555  15.530  0.00  0.00    +0.000 A 
ATOM      6  C   UNL     1      35.580  -1.401  16.315  0.00  0.00    +0.000 A 
ATOM      7  C   UNL     1      34.809  -0.884  17.320  0.00  0.00    +0.000 A 
ATOM      8  C   UNL     1      34.841   0.479  17.525  0.00  0.00    +0.000 A 
ATOM      9  C   UNL     1      35.615   1.326  16.760  0.00  0.00    +0.000 A 
ATOM     10  C   UNL     1      36.399   0.801  15.738  0.00  0.00    +0.000 A 
ENDROOT
BRANCH   3  11
ATOM     11  C   UNL     1      38.710  -0.804  12.715  0.00  0.00    +0.000 A 
ATOM     12  C   UNL     1      39.230  -2.078  12.819  0.00  0.00    +0.000 A 
ATOM     13  C   UNL     1      40.009  -2.653  11.841  0.00  0.00    +0.000 A 
ATOM     14  C   UNL     1      40.287  -1.934  10.705  0.00  0.00    +0.000 A 
ATOM     15  C   UNL     1      39.781  -0.667  10.578  0.00  0.00    +0.000 A 
ATOM     16  C   UNL     1      39.000  -0.104  11.571  0.00  0.00    +0.000 A 
BRANCH  15  17
ATOM     17  O   UNL     1      40.047   0.071   9.448  0.00  0.00    +0.000 OA
BRANCH  17  18
ATOM     18  C   UNL     1      39.390   1.263   9.108  0.00  0.00    +0.000 C 
ATOM     19  C   UNL     1      40.413   2.312   8.696  0.00  0.00    +0.000 C 
ATOM     20  C   UNL     1      38.479   1.038   7.900  0.00  0.00    +0.000 C 
ENDBRANCH  17  18
ENDBRANCH  15  17
ENDBRANCH   3  11
BRANCH   1  22
ATOM     21  N   UNL     1      38.142   3.728  16.076  0.00  0.00    +0.000 NA
ATOM     22  C   UNL     1      37.168   3.114  15.240  0.00  0.00    +0.000 C 
ATOM     23  O   UNL     1      36.315   3.882  14.729  0.00  0.00    +0.000 OA
BRANCH  21  24
ATOM     24  C   UNL     1      38.167   5.148  16.334  0.00  0.00    +0.000 C 
BRANCH  24  28
ATOM     25  C   UNL     1      41.384   6.351  18.833  0.00  0.00    +0.000 A 
ATOM     26  C   UNL     1      41.508   6.287  17.461  0.00  0.00    +0.000 A 
ATOM     27  C   UNL     1      40.477   5.901  16.639  0.00  0.00    +0.000 A 
ATOM     28  C   UNL     1      39.279   5.564  17.195  0.00  0.00    +0.000 A 
ATOM     29  C   UNL     1      39.124   5.617  18.549  0.00  0.00    +0.000 A 
ATOM     30  C   UNL     1      40.171   6.010  19.392  0.00  0.00    +0.000 A 
BRANCH  25  32
ATOM     31  C   UNL     1      42.686   6.193  20.879  0.00  0.00    +0.000 C 
ATOM     32  O   UNL     1      42.471   6.752  19.598  0.00  0.00    +0.000 OA
ENDBRANCH  25  32
ENDBRANCH  24  28
ENDBRANCH  21  24
ENDBRANCH   1  22
TORSDOF 7
ENDMDL
MODEL 9
REMARK VINA RESULT:      -7.6     26.906     29.859
REMARK  Name = 
REMARK  7 active torsions:
REMARK  status: ('A' for Active; 'I' for Inactive)
REMARK    1  A    between atoms: O_2  and  C_3
REMARK    2  A    between atoms: C_6  and  C_7
REMARK    3  A    between atoms: C_7  and  N_8
REMARK    4  A    between atoms: C_9  and  C_11
REMARK    5  A    between atoms: C_13  and  C_14
REMARK    6  A    between atoms: C_18  and  O_19
REMARK    7  A    between atoms: O_19  and  C_20
REMARK                            x       y       z     vdW  Elec       q    Type
REMARK                         _______ _______ _______ _____ _____    ______ ____
ROOT
ATOM      1  C   UNL     1      27.349  15.106  38.418  0.00  0.00    +0.000 A 
ATOM      2  C   UNL     1      26.546  15.242  37.306  0.00  0.00    +0.000 A 
ATOM      3  C   UNL     1      27.160  15.585  36.097  0.00  0.00    +0.000 A 
ATOM      4  N   UNL     1      28.479  15.782  35.989  0.00  0.00    +0.000 NA
ATOM      5  C   UNL     1      29.281  15.653  37.063  0.00  0.00    +0.000 A 
ATOM      6  C   UNL     1      30.660  15.858  36.950  0.00  0.00    +0.000 A 
ATOM      7  C   UNL     1      31.467  15.726  38.047  0.00  0.00    +0.000 A 
ATOM      8  C   UNL     1      30.877  15.388  39.246  0.00  0.00    +0.000 A 
ATOM      9  C   UNL     1      29.520  15.183  39.375  0.00  0.00    +0.000 A 
ATOM     10  C   UNL     1      28.700  15.318  38.259  0.00  0.00    +0.000 A 
ENDROOT
BRANCH   3  11
ATOM     11  C   UNL     1      26.304  15.730  34.920  0.00  0.00    +0.000 A 
ATOM     12  C   UNL     1      26.197  14.709  33.998  0.00  0.00    +0.000 A 
ATOM     13  C   UNL     1      25.408  14.792  32.874  0.00  0.00    +0.000 A 
ATOM     14  C   UNL     1      24.688  15.939  32.651  0.00  0.00    +0.000 A 
ATOM     15  C   UNL     1      24.777  16.968  33.552  0.00  0.00    +0.000 A 
ATOM     16  C   UNL     1      25.577  16.867  34.677  0.00  0.00    +0.000 A 
BRANCH  15  17
ATOM     17  O   UNL     1      24.065  18.127  33.349  0.00  0.00    +0.000 OA
BRANCH  17  18
ATOM     18  C   UNL     1      24.184  18.939  32.211  0.00  0.00    +0.000 C 
ATOM     19  C   UNL     1      22.817  19.487  31.827  0.00  0.00    +0.000 C 
ATOM     20  C   UNL     1      25.072  20.147  32.514  0.00  0.00    +0.000 C 
ENDBRANCH  17  18
ENDBRANCH  15  17
ENDBRANCH   3  11
BRANCH   1  22
ATOM     21  N   UNL     1      26.524  13.397  40.083  0.00  0.00    +0.000 NA
ATOM     22  C   UNL     1      26.760  14.750  39.710  0.00  0.00    +0.000 C 
ATOM     23  O   UNL     1      26.431  15.621  40.553  0.00  0.00    +0.000 OA
BRANCH  21  24
ATOM     24  C   UNL     1      25.944  13.025  41.351  0.00  0.00    +0.000 C 
BRANCH  24  28
ATOM     25  C   UNL     1      26.684   8.982  42.416  0.00  0.00    +0.000 A 
ATOM     26  C   UNL     1      25.850   9.791  43.157  0.00  0.00    +0.000 A 
ATOM     27  C   UNL     1      25.599  11.101  42.826  0.00  0.00    +0.000 A 
ATOM     28  C   UNL     1      26.198  11.630  41.721  0.00  0.00    +0.000 A 
ATOM     29  C   UNL     1      27.029  10.855  40.967  0.00  0.00    +0.000 A 
ATOM     30  C   UNL     1      27.288   9.519  41.300  0.00  0.00    +0.000 A 
BRANCH  25  32
ATOM     31  C   UNL     1      27.126   7.363  44.175  0.00  0.00    +0.000 C 
ATOM     32  O   UNL     1      26.888   7.667  42.814  0.00  0.00    +0.000 OA
ENDBRANCH  25  32
ENDBRANCH  24  28
ENDBRANCH  21  24
ENDBRANCH   1  22
TORSDOF 7
ENDMDL
MODEL 10
REMARK VINA RESULT:      -7.4      3.581     10.023
REMARK  Name = 
REMARK  7 active torsions:
REMARK  status: ('A' for Active; 'I' for Inactive)
REMARK    1  A    between atoms: O_2  and  C_3
REMARK    2  A    between atoms: C_6  and  C_7
REMARK    3  A    between atoms: C_7  and  N_8
REMARK    4  A    between atoms: C_9  and  C_11
REMARK    5  A    between atoms: C_13  and  C_14
REMARK    6  A    between atoms: C_18  and  O_19
REMARK    7  A    between atoms: O_19  and  C_20
REMARK                            x       y       z     vdW  Elec       q    Type
REMARK                         _______ _______ _______ _____ _____    ______ ____
ROOT
ATOM      1  C   UNL     1      37.569   3.682  16.185  0.00  0.00    +0.000 A 
ATOM      2  C   UNL     1      37.792   4.515  17.261  0.00  0.00    +0.000 A 
ATOM      3  C   UNL     1      38.913   5.350  17.219  0.00  0.00    +0.000 A 
ATOM      4  N   UNL     1      39.761   5.364  16.184  0.00  0.00    +0.000 NA
ATOM      5  C   UNL     1      39.563   4.559  15.123  0.00  0.00    +0.000 A 
ATOM      6  C   UNL     1      40.449   4.574  14.042  0.00  0.00    +0.000 A 
ATOM      7  C   UNL     1      40.239   3.751  12.969  0.00  0.00    +0.000 A 
ATOM      8  C   UNL     1      39.138   2.922  12.996  0.00  0.00    +0.000 A 
ATOM      9  C   UNL     1      38.255   2.894  14.054  0.00  0.00    +0.000 A 
ATOM     10  C   UNL     1      38.469   3.731  15.145  0.00  0.00    +0.000 A 
ENDROOT
BRANCH   3  11
ATOM     11  C   UNL     1      39.145   6.231  18.362  0.00  0.00    +0.000 A 
ATOM     12  C   UNL     1      40.239   6.046  19.183  0.00  0.00    +0.000 A 
ATOM     13  C   UNL     1      40.505   6.845  20.271  0.00  0.00    +0.000 A 
ATOM     14  C   UNL     1      39.648   7.878  20.561  0.00  0.00    +0.000 A 
ATOM     15  C   UNL     1      38.554   8.082  19.761  0.00  0.00    +0.000 A 
ATOM     16  C   UNL     1      38.302   7.269  18.671  0.00  0.00    +0.000 A 
BRANCH  15  17
ATOM     17  O   UNL     1      37.683   9.110  20.034  0.00  0.00    +0.000 OA
BRANCH  17  18
ATOM     18  C   UNL     1      37.790  10.403  19.499  0.00  0.00    +0.000 C 
ATOM     19  C   UNL     1      39.213  10.642  19.015  0.00  0.00    +0.000 C 
ATOM     20  C   UNL     1      36.880  10.546  18.278  0.00  0.00    +0.000 C 
ENDBRANCH  17  18
ENDBRANCH  15  17
ENDBRANCH   3  11
BRANCH   1  22
ATOM     21  N   UNL     1      36.328   1.657  17.040  0.00  0.00    +0.000 NA
ATOM     22  C   UNL     1      36.412   2.786  16.178  0.00  0.00    +0.000 C 
ATOM     23  O   UNL     1      35.435   2.968  15.409  0.00  0.00    +0.000 OA
BRANCH  21  24
ATOM     24  C   UNL     1      35.195   0.762  17.047  0.00  0.00    +0.000 C 
BRANCH  24  28
ATOM     25  C   UNL     1      36.199  -3.241  16.044  0.00  0.00    +0.000 A 
ATOM     26  C   UNL     1      37.030  -2.182  15.746  0.00  0.00    +0.000 A 
ATOM     27  C   UNL     1      36.721  -0.882  16.064  0.00  0.00    +0.000 A 
ATOM     28  C   UNL     1      35.544  -0.619  16.699  0.00  0.00    +0.000 A 
ATOM     29  C   UNL     1      34.699  -1.645  17.009  0.00  0.00    +0.000 A 
ATOM     30  C   UNL     1      35.009  -2.972  16.687  0.00  0.00    +0.000 A 
BRANCH  25  32
ATOM     31  C   UNL     1      37.263  -5.350  16.618  0.00  0.00    +0.000 C 
ATOM     32  O   UNL     1      36.581  -4.529  15.690  0.00  0.00    +0.000 OA
ENDBRANCH  25  32
ENDBRANCH  24  28
ENDBRANCH  21  24
ENDBRANCH   1  22
TORSDOF 7
ENDMDL
