MODEL 1
REMARK VINA RESULT:      -8.6      0.000      0.000
REMARK  Name = 
REMARK  7 active torsions:
REMARK  status: ('A' for Active; 'I' for Inactive)
REMARK    1  A    between atoms: C_2  and  O_3
REMARK    2  A    between atoms: O_3  and  C_4
REMARK    3  A    between atoms: C_7  and  N_8
REMARK    4  A    between atoms: C_11  and  N_12
REMARK    5  A    between atoms: N_12  and  C_13
REMARK    6  A    between atoms: C_20  and  S_21
REMARK    7  A    between atoms: S_21  and  C_22
REMARK                            x       y       z     vdW  Elec       q    Type
REMARK                         _______ _______ _______ _____ _____    ______ ____
ROOT
ATOM      1  N   UNL     1      36.478   1.850  15.087  0.00  0.00    +0.000 N 
ATOM      2  C   UNL     1      35.593   2.914  14.789  0.00  0.00    +0.000 C 
ATOM      3  O   UNL     1      34.342   2.746  14.654  0.00  0.00    +0.000 OA
ATOM      4  C   UNL     1      36.319   4.158  14.671  0.00  0.00    +0.000 C 
ATOM      5  C   UNL     1      37.631   3.917  14.884  0.00  0.00    +0.000 C 
ATOM      6  C   UNL     1      37.772   2.494  15.145  0.00  0.00    +0.000 C 
ATOM      7  O   UNL     1      38.812   1.832  15.395  0.00  0.00    +0.000 OA
ENDROOT
BRANCH   1  11
ATOM      8  C   UNL     1      35.735  -2.297  15.646  0.00  0.00    +0.000 A 
ATOM      9  C   UNL     1      36.497  -1.846  14.592  0.00  0.00    +0.000 A 
ATOM     10  C   UNL     1      36.731  -0.500  14.421  0.00  0.00    +0.000 A 
ATOM     11  C   UNL     1      36.217   0.466  15.292  0.00  0.00    +0.000 A 
ATOM     12  C   UNL     1      35.461  -0.008  16.337  0.00  0.00    +0.000 A 
ATOM     13  C   UNL     1      35.220  -1.362  16.518  0.00  0.00    +0.000 A 
BRANCH   8  14
ATOM     14  O   UNL     1      35.533  -3.663  15.770  0.00  0.00    +0.000 OA
BRANCH  14  16
ATOM     15  C   UNL     1      33.382  -4.383  14.986  0.00  0.00    +0.000 C 
ATOM     16  C   UNL     1      34.879  -4.419  14.764  0.00  0.00    +0.000 C 
ENDBRANCH  14  16
ENDBRANCH   8  14
ENDBRANCH   1  11
BRANCH   4  17
ATOM     17  N   UNL     1      35.794   5.437  14.383  0.00  0.00    +0.000 NA
BRANCH  17  18
ATOM     18  C   UNL     1      35.441   5.923  13.116  0.00  0.00    +0.000 A 
ATOM     19  C   UNL     1      36.117   5.573  11.964  0.00  0.00    +0.000 A 
ATOM     20  C   UNL     1      35.712   6.093  10.755  0.00  0.00    +0.000 A 
ATOM     21  C   UNL     1      34.643   6.955  10.664  0.00  0.00    +0.000 A 
ATOM     22  C   UNL     1      33.967   7.306  11.808  0.00  0.00    +0.000 A 
ATOM     23  C   UNL     1      34.373   6.786  13.019  0.00  0.00    +0.000 A 
ATOM     24  C   UNL     1      33.626   7.177  14.267  0.00  0.00    +0.000 C 
ENDBRANCH  17  18
ENDBRANCH   4  17
BRANCH   5  25
ATOM     25  S   UNL     1      38.866   5.188  14.828  0.00  0.00    +0.000 S 
BRANCH  25  26
ATOM     26  C   UNL     1      39.598   5.584  16.385  0.00  0.00    +0.000 A 
ATOM     27  C   UNL     1      38.887   5.329  17.572  0.00  0.00    +0.000 A 
ATOM     28  C   UNL     1      39.422   5.627  18.794  0.00  0.00    +0.000 A 
ATOM     29  C   UNL     1      40.667   6.185  18.965  0.00  0.00    +0.000 A 
ATOM     30  C   UNL     1      41.256   6.510  20.286  0.00  0.00    +0.000 C 
ATOM     31  C   UNL     1      41.377   6.440  17.804  0.00  0.00    +0.000 A 
ATOM     32  C   UNL     1      40.834   6.139  16.573  0.00  0.00    +0.000 A 
ENDBRANCH  25  26
ENDBRANCH   5  25
TORSDOF 7
ENDMDL
MODEL 2
REMARK VINA RESULT:      -8.2      1.340      2.032
REMARK  Name = 
REMARK  7 active torsions:
REMARK  status: ('A' for Active; 'I' for Inactive)
REMARK    1  A    between atoms: C_2  and  O_3
REMARK    2  A    between atoms: O_3  and  C_4
REMARK    3  A    between atoms: C_7  and  N_8
REMARK    4  A    between atoms: C_11  and  N_12
REMARK    5  A    between atoms: N_12  and  C_13
REMARK    6  A    between atoms: C_20  and  S_21
REMARK    7  A    between atoms: S_21  and  C_22
REMARK                            x       y       z     vdW  Elec       q    Type
REMARK                         _______ _______ _______ _____ _____    ______ ____
ROOT
ATOM      1  N   UNL     1      36.740   2.664  15.718  0.00  0.00    +0.000 N 
ATOM      2  C   UNL     1      36.548   3.280  14.457  0.00  0.00    +0.000 C 
ATOM      3  O   UNL     1      36.026   2.674  13.472  0.00  0.00    +0.000 OA
ATOM      4  C   UNL     1      37.024   4.644  14.484  0.00  0.00    +0.000 C 
ATOM      5  C   UNL     1      37.509   4.912  15.716  0.00  0.00    +0.000 C 
ATOM      6  C   UNL     1      37.352   3.706  16.513  0.00  0.00    +0.000 C 
ATOM      7  O   UNL     1      37.665   3.502  17.713  0.00  0.00    +0.000 OA
ENDROOT
BRANCH   1  11
ATOM      8  C   UNL     1      35.859  -1.292  16.997  0.00  0.00    +0.000 A 
ATOM      9  C   UNL     1      37.004  -1.012  16.286  0.00  0.00    +0.000 A 
ATOM     10  C   UNL     1      37.279   0.273  15.877  0.00  0.00    +0.000 A 
ATOM     11  C   UNL     1      36.426   1.347  16.155  0.00  0.00    +0.000 A 
ATOM     12  C   UNL     1      35.290   1.043  16.865  0.00  0.00    +0.000 A 
ATOM     13  C   UNL     1      35.004  -0.249  17.282  0.00  0.00    +0.000 A 
BRANCH   8  14
ATOM     14  O   UNL     1      35.633  -2.604  17.384  0.00  0.00    +0.000 OA
BRANCH  14  16
ATOM     15  C   UNL     1      34.510  -3.610  15.516  0.00  0.00    +0.000 C 
ATOM     16  C   UNL     1      35.691  -3.679  16.461  0.00  0.00    +0.000 C 
ENDBRANCH  14  16
ENDBRANCH   8  14
ENDBRANCH   1  11
BRANCH   4  17
ATOM     17  N   UNL     1      37.009   5.582  13.428  0.00  0.00    +0.000 NA
BRANCH  17  18
ATOM     18  C   UNL     1      35.870   6.143  12.833  0.00  0.00    +0.000 A 
ATOM     19  C   UNL     1      34.757   6.524  13.558  0.00  0.00    +0.000 A 
ATOM     20  C   UNL     1      33.674   7.067  12.902  0.00  0.00    +0.000 A 
ATOM     21  C   UNL     1      33.673   7.241  11.537  0.00  0.00    +0.000 A 
ATOM     22  C   UNL     1      34.777   6.864  10.813  0.00  0.00    +0.000 A 
ATOM     23  C   UNL     1      35.861   6.319  11.468  0.00  0.00    +0.000 A 
ATOM     24  C   UNL     1      37.067   5.908  10.665  0.00  0.00    +0.000 C 
ENDBRANCH  17  18
ENDBRANCH   4  17
BRANCH   5  25
ATOM     25  S   UNL     1      38.191   6.486  16.163  0.00  0.00    +0.000 S 
BRANCH  25  26
ATOM     26  C   UNL     1      39.367   6.441  17.478  0.00  0.00    +0.000 A 
ATOM     27  C   UNL     1      40.743   6.406  17.181  0.00  0.00    +0.000 A 
ATOM     28  C   UNL     1      41.680   6.366  18.175  0.00  0.00    +0.000 A 
ATOM     29  C   UNL     1      41.370   6.357  19.515  0.00  0.00    +0.000 A 
ATOM     30  C   UNL     1      42.380   6.315  20.599  0.00  0.00    +0.000 C 
ATOM     31  C   UNL     1      40.020   6.392  19.820  0.00  0.00    +0.000 A 
ATOM     32  C   UNL     1      39.077   6.431  18.815  0.00  0.00    +0.000 A 
ENDBRANCH  25  26
ENDBRANCH   5  25
TORSDOF 7
ENDMDL
MODEL 3
REMARK VINA RESULT:      -8.1      3.546      8.735
REMARK  Name = 
REMARK  7 active torsions:
REMARK  status: ('A' for Active; 'I' for Inactive)
REMARK    1  A    between atoms: C_2  and  O_3
REMARK    2  A    between atoms: O_3  and  C_4
REMARK    3  A    between atoms: C_7  and  N_8
REMARK    4  A    between atoms: C_11  and  N_12
REMARK    5  A    between atoms: N_12  and  C_13
REMARK    6  A    between atoms: C_20  and  S_21
REMARK    7  A    between atoms: S_21  and  C_22
REMARK                            x       y       z     vdW  Elec       q    Type
REMARK                         _______ _______ _______ _____ _____    ______ ____
ROOT
ATOM      1  N   UNL     1      38.311   4.011  16.086  0.00  0.00    +0.000 N 
ATOM      2  C   UNL     1      39.103   3.526  15.016  0.00  0.00    +0.000 C 
ATOM      3  O   UNL     1      40.187   4.083  14.660  0.00  0.00    +0.000 OA
ATOM      4  C   UNL     1      38.498   2.351  14.432  0.00  0.00    +0.000 C 
ATOM      5  C   UNL     1      37.353   2.076  15.094  0.00  0.00    +0.000 C 
ATOM      6  C   UNL     1      37.200   3.085  16.129  0.00  0.00    +0.000 C 
ATOM      7  O   UNL     1      36.283   3.218  16.979  0.00  0.00    +0.000 OA
ENDROOT
BRANCH   1  11
ATOM      8  C   UNL     1      38.882   7.387  18.603  0.00  0.00    +0.000 A 
ATOM      9  C   UNL     1      38.405   7.528  17.319  0.00  0.00    +0.000 A 
ATOM     10  C   UNL     1      38.225   6.427  16.513  0.00  0.00    +0.000 A 
ATOM     11  C   UNL     1      38.510   5.127  16.944  0.00  0.00    +0.000 A 
ATOM     12  C   UNL     1      38.984   5.012  18.229  0.00  0.00    +0.000 A 
ATOM     13  C   UNL     1      39.169   6.115  19.049  0.00  0.00    +0.000 A 
BRANCH   8  14
ATOM     14  O   UNL     1      39.044   8.530  19.370  0.00  0.00    +0.000 OA
BRANCH  14  16
ATOM     15  C   UNL     1      38.497  10.061  21.136  0.00  0.00    +0.000 C 
ATOM     16  C   UNL     1      38.573   8.612  20.705  0.00  0.00    +0.000 C 
ENDBRANCH  14  16
ENDBRANCH   8  14
ENDBRANCH   1  11
BRANCH   4  17
ATOM     17  N   UNL     1      38.981   1.582  13.350  0.00  0.00    +0.000 NA
BRANCH  17  18
ATOM     18  C   UNL     1      39.538   0.298  13.428  0.00  0.00    +0.000 A 
ATOM     19  C   UNL     1      40.376  -0.095  14.453  0.00  0.00    +0.000 A 
ATOM     20  C   UNL     1      40.886  -1.374  14.461  0.00  0.00    +0.000 A 
ATOM     21  C   UNL     1      40.580  -2.276  13.469  0.00  0.00    +0.000 A 
ATOM     22  C   UNL     1      39.746  -1.891  12.447  0.00  0.00    +0.000 A 
ATOM     23  C   UNL     1      39.236  -0.610  12.438  0.00  0.00    +0.000 A 
ATOM     24  C   UNL     1      38.323  -0.197  11.313  0.00  0.00    +0.000 C 
ENDBRANCH  17  18
ENDBRANCH   4  17
BRANCH   5  25
ATOM     25  S   UNL     1      36.307   0.705  14.682  0.00  0.00    +0.000 S 
BRANCH  25  26
ATOM     26  C   UNL     1      36.864  -0.860  15.278  0.00  0.00    +0.000 A 
ATOM     27  C   UNL     1      37.573  -0.931  16.491  0.00  0.00    +0.000 A 
ATOM     28  C   UNL     1      38.023  -2.125  16.979  0.00  0.00    +0.000 A 
ATOM     29  C   UNL     1      37.826  -3.330  16.345  0.00  0.00    +0.000 A 
ATOM     30  C   UNL     1      38.309  -4.631  16.868  0.00  0.00    +0.000 C 
ATOM     31  C   UNL     1      37.129  -3.274  15.150  0.00  0.00    +0.000 A 
ATOM     32  C   UNL     1      36.677  -2.067  14.661  0.00  0.00    +0.000 A 
ENDBRANCH  25  26
ENDBRANCH   5  25
TORSDOF 7
ENDMDL
MODEL 4
REMARK VINA RESULT:      -8.1      2.691      5.724
REMARK  Name = 
REMARK  7 active torsions:
REMARK  status: ('A' for Active; 'I' for Inactive)
REMARK    1  A    between atoms: C_2  and  O_3
REMARK    2  A    between atoms: O_3  and  C_4
REMARK    3  A    between atoms: C_7  and  N_8
REMARK    4  A    between atoms: C_11  and  N_12
REMARK    5  A    between atoms: N_12  and  C_13
REMARK    6  A    between atoms: C_20  and  S_21
REMARK    7  A    between atoms: S_21  and  C_22
REMARK                            x       y       z     vdW  Elec       q    Type
REMARK                         _______ _______ _______ _____ _____    ______ ____
ROOT
ATOM      1  N   UNL     1      37.040   3.665  16.053  0.00  0.00    +0.000 N 
ATOM      2  C   UNL     1      37.846   4.363  16.985  0.00  0.00    +0.000 C 
ATOM      3  O   UNL     1      38.233   3.845  18.078  0.00  0.00    +0.000 OA
ATOM      4  C   UNL     1      38.138   5.694  16.504  0.00  0.00    +0.000 C 
ATOM      5  C   UNL     1      37.545   5.862  15.302  0.00  0.00    +0.000 C 
ATOM      6  C   UNL     1      36.852   4.624  14.986  0.00  0.00    +0.000 C 
ATOM      7  O   UNL     1      36.170   4.333  13.971  0.00  0.00    +0.000 OA
ENDROOT
BRANCH   1  11
ATOM      8  C   UNL     1      35.522  -0.303  16.152  0.00  0.00    +0.000 A 
ATOM      9  C   UNL     1      36.651   0.010  15.427  0.00  0.00    +0.000 A 
ATOM     10  C   UNL     1      37.133   1.299  15.403  0.00  0.00    +0.000 A 
ATOM     11  C   UNL     1      36.516   2.344  16.099  0.00  0.00    +0.000 A 
ATOM     12  C   UNL     1      35.392   2.007  16.814  0.00  0.00    +0.000 A 
ATOM     13  C   UNL     1      34.898   0.711  16.846  0.00  0.00    +0.000 A 
BRANCH   8  14
ATOM     14  O   UNL     1      35.081  -1.618  16.141  0.00  0.00    +0.000 OA
BRANCH  14  16
ATOM     15  C   UNL     1      34.743  -3.709  15.013  0.00  0.00    +0.000 C 
ATOM     16  C   UNL     1      35.730  -2.621  15.377  0.00  0.00    +0.000 C 
ENDBRANCH  14  16
ENDBRANCH   8  14
ENDBRANCH   1  11
BRANCH   4  17
ATOM     17  N   UNL     1      38.907   6.691  17.144  0.00  0.00    +0.000 NA
BRANCH  17  18
ATOM     18  C   UNL     1      38.539   7.419  18.284  0.00  0.00    +0.000 A 
ATOM     19  C   UNL     1      37.499   8.328  18.290  0.00  0.00    +0.000 A 
ATOM     20  C   UNL     1      37.197   9.007  19.449  0.00  0.00    +0.000 A 
ATOM     21  C   UNL     1      37.909   8.802  20.609  0.00  0.00    +0.000 A 
ATOM     22  C   UNL     1      38.945   7.899  20.608  0.00  0.00    +0.000 A 
ATOM     23  C   UNL     1      39.248   7.219  19.448  0.00  0.00    +0.000 A 
ATOM     24  C   UNL     1      40.385   6.232  19.457  0.00  0.00    +0.000 C 
ENDBRANCH  17  18
ENDBRANCH   4  17
BRANCH   5  25
ATOM     25  S   UNL     1      37.661   7.367  14.372  0.00  0.00    +0.000 S 
BRANCH  25  26
ATOM     26  C   UNL     1      36.493   8.612  14.822  0.00  0.00    +0.000 A 
ATOM     27  C   UNL     1      36.940   9.916  15.105  0.00  0.00    +0.000 A 
ATOM     28  C   UNL     1      36.064  10.902  15.461  0.00  0.00    +0.000 A 
ATOM     29  C   UNL     1      34.707  10.712  15.570  0.00  0.00    +0.000 A 
ATOM     30  C   UNL     1      33.749  11.777  15.954  0.00  0.00    +0.000 C 
ATOM     31  C   UNL     1      34.254   9.433  15.294  0.00  0.00    +0.000 A 
ATOM     32  C   UNL     1      35.140   8.441  14.936  0.00  0.00    +0.000 A 
ENDBRANCH  25  26
ENDBRANCH   5  25
TORSDOF 7
ENDMDL
MODEL 5
REMARK VINA RESULT:      -7.8      3.475      8.378
REMARK  Name = 
REMARK  7 active torsions:
REMARK  status: ('A' for Active; 'I' for Inactive)
REMARK    1  A    between atoms: C_2  and  O_3
REMARK    2  A    between atoms: O_3  and  C_4
REMARK    3  A    between atoms: C_7  and  N_8
REMARK    4  A    between atoms: C_11  and  N_12
REMARK    5  A    between atoms: N_12  and  C_13
REMARK    6  A    between atoms: C_20  and  S_21
REMARK    7  A    between atoms: S_21  and  C_22
REMARK                            x       y       z     vdW  Elec       q    Type
REMARK                         _______ _______ _______ _____ _____    ______ ____
ROOT
ATOM      1  N   UNL     1      35.436   7.863  14.597  0.00  0.00    +0.000 N 
ATOM      2  C   UNL     1      34.928   6.659  14.051  0.00  0.00    +0.000 C 
ATOM      3  O   UNL     1      33.762   6.570  13.556  0.00  0.00    +0.000 OA
ATOM      4  C   UNL     1      35.913   5.605  14.147  0.00  0.00    +0.000 C 
ATOM      5  C   UNL     1      37.024   6.100  14.735  0.00  0.00    +0.000 C 
ATOM      6  C   UNL     1      36.768   7.500  15.031  0.00  0.00    +0.000 C 
ATOM      7  O   UNL     1      37.522   8.347  15.574  0.00  0.00    +0.000 OA
ENDROOT
BRANCH   1  11
ATOM      8  C   UNL     1      33.624  11.683  15.016  0.00  0.00    +0.000 A 
ATOM      9  C   UNL     1      33.751  10.834  16.092  0.00  0.00    +0.000 A 
ATOM     10  C   UNL     1      34.340   9.598  15.944  0.00  0.00    +0.000 A 
ATOM     11  C   UNL     1      34.833   9.145  14.716  0.00  0.00    +0.000 A 
ATOM     12  C   UNL     1      34.694  10.010  13.657  0.00  0.00    +0.000 A 
ATOM     13  C   UNL     1      34.102  11.257  13.796  0.00  0.00    +0.000 A 
BRANCH   8  14
ATOM     14  O   UNL     1      33.022  12.916  15.223  0.00  0.00    +0.000 OA
BRANCH  14  16
ATOM     15  C   UNL     1      31.731  14.686  14.245  0.00  0.00    +0.000 C 
ATOM     16  C   UNL     1      33.046  13.937  14.240  0.00  0.00    +0.000 C 
ENDBRANCH  14  16
ENDBRANCH   8  14
ENDBRANCH   1  11
BRANCH   4  17
ATOM     17  N   UNL     1      35.785   4.266  13.716  0.00  0.00    +0.000 NA
BRANCH  17  18
ATOM     18  C   UNL     1      35.622   3.142  14.538  0.00  0.00    +0.000 A 
ATOM     19  C   UNL     1      34.847   3.156  15.682  0.00  0.00    +0.000 A 
ATOM     20  C   UNL     1      34.736   2.011  16.439  0.00  0.00    +0.000 A 
ATOM     21  C   UNL     1      35.380   0.848  16.085  0.00  0.00    +0.000 A 
ATOM     22  C   UNL     1      36.151   0.829  14.948  0.00  0.00    +0.000 A 
ATOM     23  C   UNL     1      36.264   1.975  14.189  0.00  0.00    +0.000 A 
ATOM     24  C   UNL     1      37.112   1.945  12.945  0.00  0.00    +0.000 C 
ENDBRANCH  17  18
ENDBRANCH   4  17
BRANCH   5  25
ATOM     25  S   UNL     1      38.471   5.122  15.040  0.00  0.00    +0.000 S 
BRANCH  25  26
ATOM     26  C   UNL     1      39.349   5.533  16.514  0.00  0.00    +0.000 A 
ATOM     27  C   UNL     1      38.746   5.317  17.767  0.00  0.00    +0.000 A 
ATOM     28  C   UNL     1      39.396   5.627  18.928  0.00  0.00    +0.000 A 
ATOM     29  C   UNL     1      40.661   6.163  18.973  0.00  0.00    +0.000 A 
ATOM     30  C   UNL     1      41.375   6.503  20.228  0.00  0.00    +0.000 C 
ATOM     31  C   UNL     1      41.266   6.381  17.746  0.00  0.00    +0.000 A 
ATOM     32  C   UNL     1      40.608   6.066  16.577  0.00  0.00    +0.000 A 
ENDBRANCH  25  26
ENDBRANCH   5  25
TORSDOF 7
ENDMDL
MODEL 6
REMARK VINA RESULT:      -7.8      2.668      7.640
REMARK  Name = 
REMARK  7 active torsions:
REMARK  status: ('A' for Active; 'I' for Inactive)
REMARK    1  A    between atoms: C_2  and  O_3
REMARK    2  A    between atoms: O_3  and  C_4
REMARK    3  A    between atoms: C_7  and  N_8
REMARK    4  A    between atoms: C_11  and  N_12
REMARK    5  A    between atoms: N_12  and  C_13
REMARK    6  A    between atoms: C_20  and  S_21
REMARK    7  A    between atoms: S_21  and  C_22
REMARK                            x       y       z     vdW  Elec       q    Type
REMARK                         _______ _______ _______ _____ _____    ______ ____
ROOT
ATOM      1  N   UNL     1      38.603   5.951  16.556  0.00  0.00    +0.000 N 
ATOM      2  C   UNL     1      38.031   6.861  15.634  0.00  0.00    +0.000 C 
ATOM      3  O   UNL     1      38.340   8.092  15.606  0.00  0.00    +0.000 OA
ATOM      4  C   UNL     1      37.087   6.183  14.775  0.00  0.00    +0.000 C 
ATOM      5  C   UNL     1      37.041   4.879  15.122  0.00  0.00    +0.000 C 
ATOM      6  C   UNL     1      37.969   4.693  16.226  0.00  0.00    +0.000 C 
ATOM      7  O   UNL     1      38.248   3.645  16.861  0.00  0.00    +0.000 OA
ENDROOT
BRANCH   1  11
ATOM      8  C   UNL     1      41.441   6.584  19.655  0.00  0.00    +0.000 A 
ATOM      9  C   UNL     1      40.098   6.463  19.933  0.00  0.00    +0.000 A 
ATOM     10  C   UNL     1      39.188   6.258  18.921  0.00  0.00    +0.000 A 
ATOM     11  C   UNL     1      39.569   6.164  17.578  0.00  0.00    +0.000 A 
ATOM     12  C   UNL     1      40.914   6.288  17.326  0.00  0.00    +0.000 A 
ATOM     13  C   UNL     1      41.839   6.494  18.338  0.00  0.00    +0.000 A 
BRANCH   8  14
ATOM     14  O   UNL     1      42.313   6.789  20.713  0.00  0.00    +0.000 OA
BRANCH  14  16
ATOM     15  C   UNL     1      44.085   5.488  21.675  0.00  0.00    +0.000 C 
ATOM     16  C   UNL     1      43.697   6.495  20.614  0.00  0.00    +0.000 C 
ENDBRANCH  14  16
ENDBRANCH   8  14
ENDBRANCH   1  11
BRANCH   4  17
ATOM     17  N   UNL     1      36.315   6.744  13.733  0.00  0.00    +0.000 NA
BRANCH  17  18
ATOM     18  C   UNL     1      35.569   7.929  13.799  0.00  0.00    +0.000 A 
ATOM     19  C   UNL     1      34.520   8.107  14.680  0.00  0.00    +0.000 A 
ATOM     20  C   UNL     1      33.833   9.300  14.685  0.00  0.00    +0.000 A 
ATOM     21  C   UNL     1      34.166  10.325  13.830  0.00  0.00    +0.000 A 
ATOM     22  C   UNL     1      35.208  10.153  12.951  0.00  0.00    +0.000 A 
ATOM     23  C   UNL     1      35.897   8.959  12.945  0.00  0.00    +0.000 A 
ATOM     24  C   UNL     1      37.037   8.779  11.978  0.00  0.00    +0.000 C 
ENDBRANCH  17  18
ENDBRANCH   4  17
BRANCH   5  25
ATOM     25  S   UNL     1      35.999   3.699  14.306  0.00  0.00    +0.000 S 
BRANCH  25  26
ATOM     26  C   UNL     1      35.709   2.212  15.211  0.00  0.00    +0.000 A 
ATOM     27  C   UNL     1      36.271   1.003  14.761  0.00  0.00    +0.000 A 
ATOM     28  C   UNL     1      36.063  -0.168  15.434  0.00  0.00    +0.000 A 
ATOM     29  C   UNL     1      35.307  -0.264  16.579  0.00  0.00    +0.000 A 
ATOM     30  C   UNL     1      35.077  -1.529  17.317  0.00  0.00    +0.000 C 
ATOM     31  C   UNL     1      34.749   0.919  17.033  0.00  0.00    +0.000 A 
ATOM     32  C   UNL     1      34.961   2.098  16.351  0.00  0.00    +0.000 A 
ENDBRANCH  25  26
ENDBRANCH   5  25
TORSDOF 7
ENDMDL
MODEL 7
REMARK VINA RESULT:      -7.7      2.106      6.153
REMARK  Name = 
REMARK  7 active torsions:
REMARK  status: ('A' for Active; 'I' for Inactive)
REMARK    1  A    between atoms: C_2  and  O_3
REMARK    2  A    between atoms: O_3  and  C_4
REMARK    3  A    between atoms: C_7  and  N_8
REMARK    4  A    between atoms: C_11  and  N_12
REMARK    5  A    between atoms: N_12  and  C_13
REMARK    6  A    between atoms: C_20  and  S_21
REMARK    7  A    between atoms: S_21  and  C_22
REMARK                            x       y       z     vdW  Elec       q    Type
REMARK                         _______ _______ _______ _____ _____    ______ ____
ROOT
ATOM      1  N   UNL     1      37.050   3.579  16.048  0.00  0.00    +0.000 N 
ATOM      2  C   UNL     1      37.852   4.292  16.972  0.00  0.00    +0.000 C 
ATOM      3  O   UNL     1      38.255   3.785  18.063  0.00  0.00    +0.000 OA
ATOM      4  C   UNL     1      38.118   5.627  16.484  0.00  0.00    +0.000 C 
ATOM      5  C   UNL     1      37.513   5.781  15.286  0.00  0.00    +0.000 C 
ATOM      6  C   UNL     1      36.838   4.530  14.979  0.00  0.00    +0.000 C 
ATOM      7  O   UNL     1      36.153   4.225  13.970  0.00  0.00    +0.000 OA
ENDROOT
BRANCH   1  11
ATOM      8  C   UNL     1      35.496  -0.372  16.249  0.00  0.00    +0.000 A 
ATOM      9  C   UNL     1      34.876   0.671  16.900  0.00  0.00    +0.000 A 
ATOM     10  C   UNL     1      35.389   1.947  16.827  0.00  0.00    +0.000 A 
ATOM     11  C   UNL     1      36.546   2.249  16.103  0.00  0.00    +0.000 A 
ATOM     12  C   UNL     1      37.147   1.192  15.462  0.00  0.00    +0.000 A 
ATOM     13  C   UNL     1      36.639  -0.096  15.528  0.00  0.00    +0.000 A 
BRANCH   8  14
ATOM     14  O   UNL     1      34.936  -1.636  16.356  0.00  0.00    +0.000 OA
BRANCH  14  16
ATOM     15  C   UNL     1      34.320  -3.761  15.428  0.00  0.00    +0.000 C 
ATOM     16  C   UNL     1      35.421  -2.738  15.606  0.00  0.00    +0.000 C 
ENDBRANCH  14  16
ENDBRANCH   8  14
ENDBRANCH   1  11
BRANCH   4  17
ATOM     17  N   UNL     1      38.877   6.638  17.114  0.00  0.00    +0.000 NA
BRANCH  17  18
ATOM     18  C   UNL     1      38.492   7.386  18.236  0.00  0.00    +0.000 A 
ATOM     19  C   UNL     1      37.447   8.289  18.212  0.00  0.00    +0.000 A 
ATOM     20  C   UNL     1      37.129   8.989  19.355  0.00  0.00    +0.000 A 
ATOM     21  C   UNL     1      37.829   8.810  20.526  0.00  0.00    +0.000 A 
ATOM     22  C   UNL     1      38.869   7.913  20.554  0.00  0.00    +0.000 A 
ATOM     23  C   UNL     1      39.189   7.213  19.411  0.00  0.00    +0.000 A 
ATOM     24  C   UNL     1      40.331   6.232  19.452  0.00  0.00    +0.000 C 
ENDBRANCH  17  18
ENDBRANCH   4  17
BRANCH   5  25
ATOM     25  S   UNL     1      37.598   7.284  14.349  0.00  0.00    +0.000 S 
BRANCH  25  26
ATOM     26  C   UNL     1      36.648   7.287  12.861  0.00  0.00    +0.000 A 
ATOM     27  C   UNL     1      35.285   7.635  12.907  0.00  0.00    +0.000 A 
ATOM     28  C   UNL     1      34.519   7.644  11.775  0.00  0.00    +0.000 A 
ATOM     29  C   UNL     1      35.001   7.324  10.528  0.00  0.00    +0.000 A 
ATOM     30  C   UNL     1      34.178   7.332   9.294  0.00  0.00    +0.000 C 
ATOM     31  C   UNL     1      36.341   6.981  10.469  0.00  0.00    +0.000 A 
ATOM     32  C   UNL     1      37.110   6.972  11.613  0.00  0.00    +0.000 A 
ENDBRANCH  25  26
ENDBRANCH   5  25
TORSDOF 7
ENDMDL
MODEL 8
REMARK VINA RESULT:      -7.7     24.033     26.436
REMARK  Name = 
REMARK  7 active torsions:
REMARK  status: ('A' for Active; 'I' for Inactive)
REMARK    1  A    between atoms: C_2  and  O_3
REMARK    2  A    between atoms: O_3  and  C_4
REMARK    3  A    between atoms: C_7  and  N_8
REMARK    4  A    between atoms: C_11  and  N_12
REMARK    5  A    between atoms: N_12  and  C_13
REMARK    6  A    between atoms: C_20  and  S_21
REMARK    7  A    between atoms: S_21  and  C_22
REMARK                            x       y       z     vdW  Elec       q    Type
REMARK                         _______ _______ _______ _____ _____    ______ ____
ROOT
ATOM      1  N   UNL     1      15.195  -0.154  26.881  0.00  0.00    +0.000 N 
ATOM      2  C   UNL     1      13.885  -0.385  26.394  0.00  0.00    +0.000 C 
ATOM      3  O   UNL     1      13.651  -0.711  25.190  0.00  0.00    +0.000 OA
ATOM      4  C   UNL     1      12.914  -0.195  27.447  0.00  0.00    +0.000 C 
ATOM      5  C   UNL     1      13.563   0.148  28.581  0.00  0.00    +0.000 C 
ATOM      6  C   UNL     1      14.983   0.185  28.272  0.00  0.00    +0.000 C 
ATOM      7  O   UNL     1      15.952   0.456  29.025  0.00  0.00    +0.000 OA
ENDROOT
BRANCH   1  11
ATOM      8  C   UNL     1      18.945  -0.299  24.887  0.00  0.00    +0.000 A 
ATOM      9  C   UNL     1      18.328   0.902  25.157  0.00  0.00    +0.000 A 
ATOM     10  C   UNL     1      17.113   0.936  25.804  0.00  0.00    +0.000 A 
ATOM     11  C   UNL     1      16.450  -0.225  26.215  0.00  0.00    +0.000 A 
ATOM     12  C   UNL     1      17.085  -1.410  25.934  0.00  0.00    +0.000 A 
ATOM     13  C   UNL     1      18.309  -1.456  25.284  0.00  0.00    +0.000 A 
BRANCH   8  14
ATOM     14  O   UNL     1      20.168  -0.274  24.234  0.00  0.00    +0.000 OA
BRANCH  14  16
ATOM     15  C   UNL     1      20.893  -1.277  22.178  0.00  0.00    +0.000 C 
ATOM     16  C   UNL     1      20.267  -0.066  22.835  0.00  0.00    +0.000 C 
ENDBRANCH  14  16
ENDBRANCH   8  14
ENDBRANCH   1  11
BRANCH   4  17
ATOM     17  N   UNL     1      11.511  -0.331  27.358  0.00  0.00    +0.000 NA
BRANCH  17  18
ATOM     18  C   UNL     1      10.653   0.427  26.549  0.00  0.00    +0.000 A 
ATOM     19  C   UNL     1      10.507   1.794  26.686  0.00  0.00    +0.000 A 
ATOM     20  C   UNL     1       9.643   2.471  25.854  0.00  0.00    +0.000 A 
ATOM     21  C   UNL     1       8.919   1.817  24.884  0.00  0.00    +0.000 A 
ATOM     22  C   UNL     1       9.060   0.458  24.744  0.00  0.00    +0.000 A 
ATOM     23  C   UNL     1       9.924  -0.221  25.577  0.00  0.00    +0.000 A 
ATOM     24  C   UNL     1      10.073  -1.711  25.416  0.00  0.00    +0.000 C 
ENDBRANCH  17  18
ENDBRANCH   4  17
BRANCH   5  25
ATOM     25  S   UNL     1      12.726   0.470  30.111  0.00  0.00    +0.000 S 
BRANCH  25  26
ATOM     26  C   UNL     1      13.580  -0.078  31.555  0.00  0.00    +0.000 A 
ATOM     27  C   UNL     1      14.318   0.845  32.320  0.00  0.00    +0.000 A 
ATOM     28  C   UNL     1      14.994   0.454  33.441  0.00  0.00    +0.000 A 
ATOM     29  C   UNL     1      15.011  -0.839  33.908  0.00  0.00    +0.000 A 
ATOM     30  C   UNL     1      15.741  -1.272  35.124  0.00  0.00    +0.000 C 
ATOM     31  C   UNL     1      14.288  -1.757  33.165  0.00  0.00    +0.000 A 
ATOM     32  C   UNL     1      13.608  -1.359  32.034  0.00  0.00    +0.000 A 
ENDBRANCH  25  26
ENDBRANCH   5  25
TORSDOF 7
ENDMDL
MODEL 9
REMARK VINA RESULT:      -7.6     26.163     29.034
REMARK  Name = 
REMARK  7 active torsions:
REMARK  status: ('A' for Active; 'I' for Inactive)
REMARK    1  A    between atoms: C_2  and  O_3
REMARK    2  A    between atoms: O_3  and  C_4
REMARK    3  A    between atoms: C_7  and  N_8
REMARK    4  A    between atoms: C_11  and  N_12
REMARK    5  A    between atoms: N_12  and  C_13
REMARK    6  A    between atoms: C_20  and  S_21
REMARK    7  A    between atoms: S_21  and  C_22
REMARK                            x       y       z     vdW  Elec       q    Type
REMARK                         _______ _______ _______ _____ _____    ______ ____
ROOT
ATOM      1  N   UNL     1      26.477  15.133  38.057  0.00  0.00    +0.000 N 
ATOM      2  C   UNL     1      27.756  15.108  38.665  0.00  0.00    +0.000 C 
ATOM      3  O   UNL     1      28.794  15.564  38.095  0.00  0.00    +0.000 OA
ATOM      4  C   UNL     1      27.679  14.506  39.977  0.00  0.00    +0.000 C 
ATOM      5  C   UNL     1      26.398  14.150  40.219  0.00  0.00    +0.000 C 
ATOM      6  C   UNL     1      25.619  14.522  39.049  0.00  0.00    +0.000 C 
ATOM      7  O   UNL     1      24.388  14.379  38.837  0.00  0.00    +0.000 OA
ENDROOT
BRANCH   1  11
ATOM      8  C   UNL     1      25.252  16.664  34.287  0.00  0.00    +0.000 A 
ATOM      9  C   UNL     1      25.094  17.400  35.440  0.00  0.00    +0.000 A 
ATOM     10  C   UNL     1      25.494  16.894  36.655  0.00  0.00    +0.000 A 
ATOM     11  C   UNL     1      26.073  15.627  36.785  0.00  0.00    +0.000 A 
ATOM     12  C   UNL     1      26.221  14.912  35.621  0.00  0.00    +0.000 A 
ATOM     13  C   UNL     1      25.821  15.413  34.391  0.00  0.00    +0.000 A 
BRANCH   8  14
ATOM     14  O   UNL     1      24.831  17.224  33.090  0.00  0.00    +0.000 OA
BRANCH  14  16
ATOM     15  C   UNL     1      23.964  18.882  31.587  0.00  0.00    +0.000 C 
ATOM     16  C   UNL     1      24.400  18.573  33.003  0.00  0.00    +0.000 C 
ENDBRANCH  14  16
ENDBRANCH   8  14
ENDBRANCH   1  11
BRANCH   4  17
ATOM     17  N   UNL     1      28.735  14.300  40.892  0.00  0.00    +0.000 NA
BRANCH  17  18
ATOM     18  C   UNL     1      29.540  13.156  40.986  0.00  0.00    +0.000 A 
ATOM     19  C   UNL     1      29.975  12.453  39.879  0.00  0.00    +0.000 A 
ATOM     20  C   UNL     1      30.763  11.337  40.051  0.00  0.00    +0.000 A 
ATOM     21  C   UNL     1      31.132  10.902  41.303  0.00  0.00    +0.000 A 
ATOM     22  C   UNL     1      30.703  11.599  42.407  0.00  0.00    +0.000 A 
ATOM     23  C   UNL     1      29.913  12.716  42.236  0.00  0.00    +0.000 A 
ATOM     24  C   UNL     1      29.447  13.472  43.452  0.00  0.00    +0.000 C 
ENDBRANCH  17  18
ENDBRANCH   4  17
BRANCH   5  25
ATOM     25  S   UNL     1      25.881  13.375  41.727  0.00  0.00    +0.000 S 
BRANCH  25  26
ATOM     26  C   UNL     1      26.502  11.741  41.974  0.00  0.00    +0.000 A 
ATOM     27  C   UNL     1      26.857  10.956  40.861  0.00  0.00    +0.000 A 
ATOM     28  C   UNL     1      27.336   9.685  41.016  0.00  0.00    +0.000 A 
ATOM     29  C   UNL     1      27.509   9.080  42.239  0.00  0.00    +0.000 A 
ATOM     30  C   UNL     1      28.030   7.703  42.416  0.00  0.00    +0.000 C 
ATOM     31  C   UNL     1      27.164   9.843  43.342  0.00  0.00    +0.000 A 
ATOM     32  C   UNL     1      26.680  11.123  43.181  0.00  0.00    +0.000 A 
ENDBRANCH  25  26
ENDBRANCH   5  25
TORSDOF 7
ENDMDL
MODEL 10
REMARK VINA RESULT:      -7.4      3.716      5.112
REMARK  Name = 
REMARK  7 active torsions:
REMARK  status: ('A' for Active; 'I' for Inactive)
REMARK    1  A    between atoms: C_2  and  O_3
REMARK    2  A    between atoms: O_3  and  C_4
REMARK    3  A    between atoms: C_7  and  N_8
REMARK    4  A    between atoms: C_11  and  N_12
REMARK    5  A    between atoms: N_12  and  C_13
REMARK    6  A    between atoms: C_20  and  S_21
REMARK    7  A    between atoms: S_21  and  C_22
REMARK                            x       y       z     vdW  Elec       q    Type
REMARK                         _______ _______ _______ _____ _____    ______ ____
ROOT
ATOM      1  N   UNL     1      38.837   3.017  14.765  0.00  0.00    +0.000 N 
ATOM      2  C   UNL     1      38.130   3.622  15.832  0.00  0.00    +0.000 C 
ATOM      3  O   UNL     1      37.296   2.987  16.547  0.00  0.00    +0.000 OA
ATOM      4  C   UNL     1      38.501   5.013  15.960  0.00  0.00    +0.000 C 
ATOM      5  C   UNL     1      39.417   5.308  15.012  0.00  0.00    +0.000 C 
ATOM      6  C   UNL     1      39.653   4.095  14.247  0.00  0.00    +0.000 C 
ATOM      7  O   UNL     1      40.425   3.908  13.273  0.00  0.00    +0.000 OA
ENDROOT
BRANCH   1  11
ATOM      8  C   UNL     1      38.776  -0.985  13.338  0.00  0.00    +0.000 A 
ATOM      9  C   UNL     1      39.780  -0.540  14.168  0.00  0.00    +0.000 A 
ATOM     10  C   UNL     1      39.789   0.758  14.624  0.00  0.00    +0.000 A 
ATOM     11  C   UNL     1      38.798   1.682  14.276  0.00  0.00    +0.000 A 
ATOM     12  C   UNL     1      37.808   1.215  13.446  0.00  0.00    +0.000 A 
ATOM     13  C   UNL     1      37.789  -0.091  12.981  0.00  0.00    +0.000 A 
BRANCH   8  14
ATOM     14  O   UNL     1      38.817  -2.303  12.909  0.00  0.00    +0.000 OA
BRANCH  14  16
ATOM     15  C   UNL     1      40.103  -2.443  10.888  0.00  0.00    +0.000 C 
ATOM     16  C   UNL     1      39.983  -2.870  12.335  0.00  0.00    +0.000 C 
ENDBRANCH  14  16
ENDBRANCH   8  14
ENDBRANCH   1  11
BRANCH   4  17
ATOM     17  N   UNL     1      38.017   5.950  16.900  0.00  0.00    +0.000 NA
BRANCH  17  18
ATOM     18  C   UNL     1      38.697   6.413  18.035  0.00  0.00    +0.000 A 
ATOM     19  C   UNL     1      39.615   5.644  18.725  0.00  0.00    +0.000 A 
ATOM     20  C   UNL     1      40.242   6.168  19.833  0.00  0.00    +0.000 A 
ATOM     21  C   UNL     1      39.977   7.444  20.274  0.00  0.00    +0.000 A 
ATOM     22  C   UNL     1      39.065   8.213  19.592  0.00  0.00    +0.000 A 
ATOM     23  C   UNL     1      38.436   7.689  18.482  0.00  0.00    +0.000 A 
ATOM     24  C   UNL     1      37.437   8.539  17.741  0.00  0.00    +0.000 C 
ENDBRANCH  17  18
ENDBRANCH   4  17
BRANCH   5  25
ATOM     25  S   UNL     1      40.131   6.921  14.830  0.00  0.00    +0.000 S 
BRANCH  25  26
ATOM     26  C   UNL     1      41.309   7.357  16.070  0.00  0.00    +0.000 A 
ATOM     27  C   UNL     1      41.323   8.666  16.587  0.00  0.00    +0.000 A 
ATOM     28  C   UNL     1      42.224   9.039  17.544  0.00  0.00    +0.000 A 
ATOM     29  C   UNL     1      43.169   8.191  18.072  0.00  0.00    +0.000 A 
ATOM     30  C   UNL     1      44.150   8.586  19.111  0.00  0.00    +0.000 C 
ATOM     31  C   UNL     1      43.166   6.900  17.572  0.00  0.00    +0.000 A 
ATOM     32  C   UNL     1      42.256   6.527  16.606  0.00  0.00    +0.000 A 
ENDBRANCH  25  26
ENDBRANCH   5  25
TORSDOF 7
ENDMDL
