MODEL 1
REMARK VINA RESULT:      -7.2      0.000      0.000
REMARK  Name = 
REMARK  9 active torsions:
REMARK  status: ('A' for Active; 'I' for Inactive)
REMARK    1  A    between atoms: C_2  and  N_3
REMARK    2  A    between atoms: C_2  and  C_12
REMARK    3  A    between atoms: N_3  and  O_4
REMARK    4  A    between atoms: O_4  and  C_5
REMARK    5  A    between atoms: C_5  and  C_6
REMARK    6  A    between atoms: N_18  and  C_19
REMARK    7  A    between atoms: C_19  and  C_20
REMARK    8  A    between atoms: C_20  and  C_21
REMARK    9  A    between atoms: C_21  and  N_22
REMARK                            x       y       z     vdW  Elec       q    Type
REMARK                         _______ _______ _______ _____ _____    ______ ____
ROOT
ATOM      1  C   UNL     1      35.933   2.902  15.132  0.00  0.00    +0.000 A 
ATOM      2  C   UNL     1      34.929   2.639  16.038  0.00  0.00    +0.000 A 
ATOM      3  C   UNL     1      34.904   1.465  16.741  0.00  0.00    +0.000 A 
ATOM      4  C   UNL     1      35.884   0.542  16.543  0.00  0.00    +0.000 A 
ATOM      5  C   UNL     1      36.913   0.732  15.662  0.00  0.00    +0.000 A 
ATOM      6  C   UNL     1      36.895   1.944  14.969  0.00  0.00    +0.000 A 
ATOM      7  N   UNL     1      37.985  -0.195  15.420  0.00  0.00    +0.000 N 
ATOM      8  C   UNL     1      38.124  -1.437  16.064  0.00  0.00    +0.000 A 
ATOM      9  C   UNL     1      39.208  -2.253  15.795  0.00  0.00    +0.000 A 
ATOM     10  C   UNL     1      39.429  -3.460  16.402  0.00  0.00    +0.000 A 
ATOM     11  C   UNL     1      38.542  -3.933  17.346  0.00  0.00    +0.000 A 
ATOM     12  C   UNL     1      37.464  -3.117  17.610  0.00  0.00    +0.000 A 
ATOM     13  C   UNL     1      37.252  -1.919  17.004  0.00  0.00    +0.000 A 
ATOM     14  S   UNL     1      35.814  -1.005  17.478  0.00  0.00    +0.000 S 
ENDROOT
BRANCH   1  16
ATOM     15  C   UNL     1      34.853   4.881  14.318  0.00  0.00    +0.000 C 
ATOM     16  C   UNL     1      35.962   4.168  14.378  0.00  0.00    +0.000 C 
BRANCH  16  17
ATOM     17  N   UNL     1      37.146   4.593  13.743  0.00  0.00    +0.000 NA
BRANCH  17  18
ATOM     18  O   UNL     1      38.003   5.486  14.309  0.00  0.00    +0.000 OA
BRANCH  18  19
ATOM     19  C   UNL     1      39.187   4.867  14.707  0.00  0.00    +0.000 C 
BRANCH  19  20
ATOM     20  C   UNL     1      39.383   5.177  16.169  0.00  0.00    +0.000 A 
ATOM     21  C   UNL     1      40.388   6.016  16.564  0.00  0.00    +0.000 A 
ATOM     22  C   UNL     1      40.602   6.324  17.884  0.00  0.00    +0.000 A 
ATOM     23  C   UNL     1      39.784   5.775  18.845  0.00  0.00    +0.000 A 
ATOM     24  C   UNL     1      38.759   4.922  18.454  0.00  0.00    +0.000 A 
ATOM     25  C   UNL     1      38.560   4.625  17.125  0.00  0.00    +0.000 A 
ENDBRANCH  19  20
ENDBRANCH  18  19
ENDBRANCH  17  18
ENDBRANCH  16  17
ENDBRANCH   1  16
BRANCH   7  26
ATOM     26  C   UNL     1      38.972   0.240  14.463  0.00  0.00    +0.000 C 
BRANCH  26  27
ATOM     27  C   UNL     1      38.748  -0.329  13.124  0.00  0.00    +0.000 C 
BRANCH  27  28
ATOM     28  C   UNL     1      39.328   0.482  11.982  0.00  0.00    +0.000 C 
BRANCH  28  29
ATOM     29  N   UNL     1      38.365   1.192  11.215  0.00  0.00    +0.000 NA
ATOM     30  C   UNL     1      37.008   0.765  11.386  0.00  0.00    +0.000 C 
ATOM     31  C   UNL     1      38.550   2.605  11.133  0.00  0.00    +0.000 C 
ENDBRANCH  28  29
ENDBRANCH  27  28
ENDBRANCH  26  27
ENDBRANCH   7  26
TORSDOF 9
ENDMDL
MODEL 2
REMARK VINA RESULT:      -6.9      2.064      2.968
REMARK  Name = 
REMARK  9 active torsions:
REMARK  status: ('A' for Active; 'I' for Inactive)
REMARK    1  A    between atoms: C_2  and  N_3
REMARK    2  A    between atoms: C_2  and  C_12
REMARK    3  A    between atoms: N_3  and  O_4
REMARK    4  A    between atoms: O_4  and  C_5
REMARK    5  A    between atoms: C_5  and  C_6
REMARK    6  A    between atoms: N_18  and  C_19
REMARK    7  A    between atoms: C_19  and  C_20
REMARK    8  A    between atoms: C_20  and  C_21
REMARK    9  A    between atoms: C_21  and  N_22
REMARK                            x       y       z     vdW  Elec       q    Type
REMARK                         _______ _______ _______ _____ _____    ______ ____
ROOT
ATOM      1  C   UNL     1      37.426   2.954  15.671  0.00  0.00    +0.000 A 
ATOM      2  C   UNL     1      36.361   3.055  16.539  0.00  0.00    +0.000 A 
ATOM      3  C   UNL     1      35.611   1.958  16.865  0.00  0.00    +0.000 A 
ATOM      4  C   UNL     1      35.918   0.748  16.323  0.00  0.00    +0.000 A 
ATOM      5  C   UNL     1      36.959   0.569  15.454  0.00  0.00    +0.000 A 
ATOM      6  C   UNL     1      37.695   1.716  15.153  0.00  0.00    +0.000 A 
ATOM      7  N   UNL     1      37.343  -0.682  14.860  0.00  0.00    +0.000 N 
ATOM      8  C   UNL     1      36.696  -1.908  15.096  0.00  0.00    +0.000 A 
ATOM      9  C   UNL     1      37.156  -3.073  14.509  0.00  0.00    +0.000 A 
ATOM     10  C   UNL     1      36.597  -4.306  14.713  0.00  0.00    +0.000 A 
ATOM     11  C   UNL     1      35.508  -4.444  15.546  0.00  0.00    +0.000 A 
ATOM     12  C   UNL     1      35.054  -3.282  16.129  0.00  0.00    +0.000 A 
ATOM     13  C   UNL     1      35.613  -2.060  15.922  0.00  0.00    +0.000 A 
ATOM     14  S   UNL     1      34.897  -0.678  16.763  0.00  0.00    +0.000 S 
ENDROOT
BRANCH   1  16
ATOM     15  C   UNL     1      39.418   3.935  14.770  0.00  0.00    +0.000 C 
ATOM     16  C   UNL     1      38.237   4.134  15.323  0.00  0.00    +0.000 C 
BRANCH  16  17
ATOM     17  N   UNL     1      37.753   5.433  15.579  0.00  0.00    +0.000 NA
BRANCH  17  18
ATOM     18  O   UNL     1      38.427   6.329  16.351  0.00  0.00    +0.000 OA
BRANCH  18  19
ATOM     19  C   UNL     1      38.411   5.950  17.693  0.00  0.00    +0.000 C 
BRANCH  19  20
ATOM     20  C   UNL     1      39.799   6.173  18.236  0.00  0.00    +0.000 A 
ATOM     21  C   UNL     1      40.008   6.227  19.586  0.00  0.00    +0.000 A 
ATOM     22  C   UNL     1      41.254   6.429  20.123  0.00  0.00    +0.000 A 
ATOM     23  C   UNL     1      42.332   6.582  19.281  0.00  0.00    +0.000 A 
ATOM     24  C   UNL     1      42.131   6.529  17.908  0.00  0.00    +0.000 A 
ATOM     25  C   UNL     1      40.873   6.325  17.389  0.00  0.00    +0.000 A 
ENDBRANCH  19  20
ENDBRANCH  18  19
ENDBRANCH  17  18
ENDBRANCH  16  17
ENDBRANCH   1  16
BRANCH   7  26
ATOM     26  C   UNL     1      38.496  -0.626  13.995  0.00  0.00    +0.000 C 
BRANCH  26  27
ATOM     27  C   UNL     1      39.764  -0.677  14.740  0.00  0.00    +0.000 C 
BRANCH  27  28
ATOM     28  C   UNL     1      40.604  -1.911  14.484  0.00  0.00    +0.000 C 
BRANCH  28  29
ATOM     29  N   UNL     1      41.219  -1.950  13.203  0.00  0.00    +0.000 NA
ATOM     30  C   UNL     1      42.542  -1.406  13.140  0.00  0.00    +0.000 C 
ATOM     31  C   UNL     1      41.018  -3.146  12.449  0.00  0.00    +0.000 C 
ENDBRANCH  28  29
ENDBRANCH  27  28
ENDBRANCH  26  27
ENDBRANCH   7  26
TORSDOF 9
ENDMDL
MODEL 3
REMARK VINA RESULT:      -6.8      1.326      1.923
REMARK  Name = 
REMARK  9 active torsions:
REMARK  status: ('A' for Active; 'I' for Inactive)
REMARK    1  A    between atoms: C_2  and  N_3
REMARK    2  A    between atoms: C_2  and  C_12
REMARK    3  A    between atoms: N_3  and  O_4
REMARK    4  A    between atoms: O_4  and  C_5
REMARK    5  A    between atoms: C_5  and  C_6
REMARK    6  A    between atoms: N_18  and  C_19
REMARK    7  A    between atoms: C_19  and  C_20
REMARK    8  A    between atoms: C_20  and  C_21
REMARK    9  A    between atoms: C_21  and  N_22
REMARK                            x       y       z     vdW  Elec       q    Type
REMARK                         _______ _______ _______ _____ _____    ______ ____
ROOT
ATOM      1  C   UNL     1      36.073   3.101  15.223  0.00  0.00    +0.000 A 
ATOM      2  C   UNL     1      34.993   2.716  15.986  0.00  0.00    +0.000 A 
ATOM      3  C   UNL     1      34.925   1.462  16.530  0.00  0.00    +0.000 A 
ATOM      4  C   UNL     1      35.938   0.580  16.313  0.00  0.00    +0.000 A 
ATOM      5  C   UNL     1      37.043   0.889  15.567  0.00  0.00    +0.000 A 
ATOM      6  C   UNL     1      37.066   2.179  15.035  0.00  0.00    +0.000 A 
ATOM      7  N   UNL     1      38.151   0.009  15.315  0.00  0.00    +0.000 N 
ATOM      8  C   UNL     1      38.254  -1.304  15.807  0.00  0.00    +0.000 A 
ATOM      9  C   UNL     1      39.375  -2.070  15.545  0.00  0.00    +0.000 A 
ATOM     10  C   UNL     1      39.561  -3.343  16.013  0.00  0.00    +0.000 A 
ATOM     11  C   UNL     1      38.598  -3.940  16.799  0.00  0.00    +0.000 A 
ATOM     12  C   UNL     1      37.484  -3.173  17.058  0.00  0.00    +0.000 A 
ATOM     13  C   UNL     1      37.305  -1.909  16.590  0.00  0.00    +0.000 A 
ATOM     14  S   UNL     1      35.810  -1.075  17.033  0.00  0.00    +0.000 S 
ENDROOT
BRANCH   1  16
ATOM     15  C   UNL     1      35.070   4.937  14.054  0.00  0.00    +0.000 C 
ATOM     16  C   UNL     1      36.149   4.452  14.641  0.00  0.00    +0.000 C 
BRANCH  16  17
ATOM     17  N   UNL     1      37.344   5.196  14.715  0.00  0.00    +0.000 NA
BRANCH  17  18
ATOM     18  O   UNL     1      37.928   5.531  15.897  0.00  0.00    +0.000 OA
BRANCH  18  19
ATOM     19  C   UNL     1      39.185   4.940  16.024  0.00  0.00    +0.000 C 
BRANCH  19  20
ATOM     20  C   UNL     1      39.871   5.596  17.194  0.00  0.00    +0.000 A 
ATOM     21  C   UNL     1      39.299   5.560  18.435  0.00  0.00    +0.000 A 
ATOM     22  C   UNL     1      39.889   6.146  19.526  0.00  0.00    +0.000 A 
ATOM     23  C   UNL     1      41.095   6.790  19.375  0.00  0.00    +0.000 A 
ATOM     24  C   UNL     1      41.686   6.833  18.118  0.00  0.00    +0.000 A 
ATOM     25  C   UNL     1      41.078   6.239  17.035  0.00  0.00    +0.000 A 
ENDBRANCH  19  20
ENDBRANCH  18  19
ENDBRANCH  17  18
ENDBRANCH  16  17
ENDBRANCH   1  16
BRANCH   7  26
ATOM     26  C   UNL     1      39.216   0.570  14.521  0.00  0.00    +0.000 C 
BRANCH  26  27
ATOM     27  C   UNL     1      39.151   0.150  13.112  0.00  0.00    +0.000 C 
BRANCH  27  28
ATOM     28  C   UNL     1      40.441   0.325  12.336  0.00  0.00    +0.000 C 
BRANCH  28  29
ATOM     29  N   UNL     1      41.614  -0.029  13.055  0.00  0.00    +0.000 NA
ATOM     30  C   UNL     1      41.999  -1.405  12.963  0.00  0.00    +0.000 C 
ATOM     31  C   UNL     1      42.690   0.907  12.994  0.00  0.00    +0.000 C 
ENDBRANCH  28  29
ENDBRANCH  27  28
ENDBRANCH  26  27
ENDBRANCH   7  26
TORSDOF 9
ENDMDL
MODEL 4
REMARK VINA RESULT:      -6.6      1.816      2.384
REMARK  Name = 
REMARK  9 active torsions:
REMARK  status: ('A' for Active; 'I' for Inactive)
REMARK    1  A    between atoms: C_2  and  N_3
REMARK    2  A    between atoms: C_2  and  C_12
REMARK    3  A    between atoms: N_3  and  O_4
REMARK    4  A    between atoms: O_4  and  C_5
REMARK    5  A    between atoms: C_5  and  C_6
REMARK    6  A    between atoms: N_18  and  C_19
REMARK    7  A    between atoms: C_19  and  C_20
REMARK    8  A    between atoms: C_20  and  C_21
REMARK    9  A    between atoms: C_21  and  N_22
REMARK                            x       y       z     vdW  Elec       q    Type
REMARK                         _______ _______ _______ _____ _____    ______ ____
ROOT
ATOM      1  C   UNL     1      37.512   3.114  15.717  0.00  0.00    +0.000 A 
ATOM      2  C   UNL     1      36.512   3.127  16.664  0.00  0.00    +0.000 A 
ATOM      3  C   UNL     1      35.798   1.995  16.950  0.00  0.00    +0.000 A 
ATOM      4  C   UNL     1      36.077   0.839  16.289  0.00  0.00    +0.000 A 
ATOM      5  C   UNL     1      37.055   0.748  15.336  0.00  0.00    +0.000 A 
ATOM      6  C   UNL     1      37.755   1.928  15.080  0.00  0.00    +0.000 A 
ATOM      7  N   UNL     1      37.408  -0.444  14.615  0.00  0.00    +0.000 N 
ATOM      8  C   UNL     1      36.791  -1.695  14.793  0.00  0.00    +0.000 A 
ATOM      9  C   UNL     1      37.220  -2.800  14.080  0.00  0.00    +0.000 A 
ATOM     10  C   UNL     1      36.690  -4.055  14.220  0.00  0.00    +0.000 A 
ATOM     11  C   UNL     1      35.665  -4.278  15.114  0.00  0.00    +0.000 A 
ATOM     12  C   UNL     1      35.242  -3.175  15.822  0.00  0.00    +0.000 A 
ATOM     13  C   UNL     1      35.773  -1.932  15.679  0.00  0.00    +0.000 A 
ATOM     14  S   UNL     1      35.105  -0.635  16.680  0.00  0.00    +0.000 S 
ENDROOT
BRANCH   1  16
ATOM     15  C   UNL     1      39.423   4.198  14.760  0.00  0.00    +0.000 C 
ATOM     16  C   UNL     1      38.283   4.332  15.412  0.00  0.00    +0.000 C 
BRANCH  16  17
ATOM     17  N   UNL     1      37.807   5.598  15.810  0.00  0.00    +0.000 NA
BRANCH  17  18
ATOM     18  O   UNL     1      38.508   6.418  16.639  0.00  0.00    +0.000 OA
BRANCH  18  19
ATOM     19  C   UNL     1      38.591   5.884  17.924  0.00  0.00    +0.000 C 
BRANCH  19  20
ATOM     20  C   UNL     1      39.979   6.168  18.437  0.00  0.00    +0.000 A 
ATOM     21  C   UNL     1      41.019   6.311  17.561  0.00  0.00    +0.000 A 
ATOM     22  C   UNL     1      42.299   6.568  17.985  0.00  0.00    +0.000 A 
ATOM     23  C   UNL     1      42.549   6.690  19.333  0.00  0.00    +0.000 A 
ATOM     24  C   UNL     1      41.499   6.548  20.232  0.00  0.00    +0.000 A 
ATOM     25  C   UNL     1      40.223   6.289  19.787  0.00  0.00    +0.000 A 
ENDBRANCH  19  20
ENDBRANCH  18  19
ENDBRANCH  17  18
ENDBRANCH  16  17
ENDBRANCH   1  16
BRANCH   7  26
ATOM     26  C   UNL     1      38.494  -0.298  13.677  0.00  0.00    +0.000 C 
BRANCH  26  27
ATOM     27  C   UNL     1      38.049  -0.402  12.278  0.00  0.00    +0.000 C 
BRANCH  27  28
ATOM     28  C   UNL     1      37.682   0.916  11.627  0.00  0.00    +0.000 C 
BRANCH  28  29
ATOM     29  N   UNL     1      38.399   1.203  10.434  0.00  0.00    +0.000 NA
ATOM     30  C   UNL     1      39.513   0.343  10.165  0.00  0.00    +0.000 C 
ATOM     31  C   UNL     1      37.608   1.544   9.296  0.00  0.00    +0.000 C 
ENDBRANCH  28  29
ENDBRANCH  27  28
ENDBRANCH  26  27
ENDBRANCH   7  26
TORSDOF 9
ENDMDL
MODEL 5
REMARK VINA RESULT:      -6.6      3.848      6.934
REMARK  Name = 
REMARK  9 active torsions:
REMARK  status: ('A' for Active; 'I' for Inactive)
REMARK    1  A    between atoms: C_2  and  N_3
REMARK    2  A    between atoms: C_2  and  C_12
REMARK    3  A    between atoms: N_3  and  O_4
REMARK    4  A    between atoms: O_4  and  C_5
REMARK    5  A    between atoms: C_5  and  C_6
REMARK    6  A    between atoms: N_18  and  C_19
REMARK    7  A    between atoms: C_19  and  C_20
REMARK    8  A    between atoms: C_20  and  C_21
REMARK    9  A    between atoms: C_21  and  N_22
REMARK                            x       y       z     vdW  Elec       q    Type
REMARK                         _______ _______ _______ _____ _____    ______ ____
ROOT
ATOM      1  C   UNL     1      39.641  -1.736  11.647  0.00  0.00    +0.000 A 
ATOM      2  C   UNL     1      39.481  -0.562  10.946  0.00  0.00    +0.000 A 
ATOM      3  C   UNL     1      38.647   0.423  11.401  0.00  0.00    +0.000 A 
ATOM      4  C   UNL     1      37.963   0.240  12.564  0.00  0.00    +0.000 A 
ATOM      5  C   UNL     1      38.070  -0.899  13.315  0.00  0.00    +0.000 A 
ATOM      6  C   UNL     1      38.933  -1.873  12.809  0.00  0.00    +0.000 A 
ATOM      7  N   UNL     1      37.389  -1.146  14.556  0.00  0.00    +0.000 N 
ATOM      8  C   UNL     1      36.510  -0.241  15.176  0.00  0.00    +0.000 A 
ATOM      9  C   UNL     1      35.924  -0.547  16.391  0.00  0.00    +0.000 A 
ATOM     10  C   UNL     1      35.082   0.293  17.069  0.00  0.00    +0.000 A 
ATOM     11  C   UNL     1      34.770   1.531  16.549  0.00  0.00    +0.000 A 
ATOM     12  C   UNL     1      35.357   1.831  15.339  0.00  0.00    +0.000 A 
ATOM     13  C   UNL     1      36.192   0.992  14.671  0.00  0.00    +0.000 A 
ATOM     14  S   UNL     1      36.857   1.554  13.131  0.00  0.00    +0.000 S 
ENDROOT
BRANCH   1  16
ATOM     15  C   UNL     1      40.485  -3.118   9.879  0.00  0.00    +0.000 C 
ATOM     16  C   UNL     1      40.543  -2.795  11.158  0.00  0.00    +0.000 C 
BRANCH  16  17
ATOM     17  N   UNL     1      41.436  -3.435  12.040  0.00  0.00    +0.000 NA
BRANCH  17  18
ATOM     18  O   UNL     1      42.774  -3.184  12.041  0.00  0.00    +0.000 OA
BRANCH  18  19
ATOM     19  C   UNL     1      43.169  -2.561  13.224  0.00  0.00    +0.000 C 
BRANCH  19  20
ATOM     20  C   UNL     1      42.718  -1.126  13.145  0.00  0.00    +0.000 A 
ATOM     21  C   UNL     1      43.142  -0.327  12.121  0.00  0.00    +0.000 A 
ATOM     22  C   UNL     1      42.757   0.985  12.012  0.00  0.00    +0.000 A 
ATOM     23  C   UNL     1      41.915   1.520  12.961  0.00  0.00    +0.000 A 
ATOM     24  C   UNL     1      41.478   0.717  14.007  0.00  0.00    +0.000 A 
ATOM     25  C   UNL     1      41.876  -0.597  14.098  0.00  0.00    +0.000 A 
ENDBRANCH  19  20
ENDBRANCH  18  19
ENDBRANCH  17  18
ENDBRANCH  16  17
ENDBRANCH   1  16
BRANCH   7  26
ATOM     26  C   UNL     1      37.685  -2.412  15.180  0.00  0.00    +0.000 C 
BRANCH  26  27
ATOM     27  C   UNL     1      38.674  -2.290  16.262  0.00  0.00    +0.000 C 
BRANCH  27  28
ATOM     28  C   UNL     1      38.771  -3.495  17.176  0.00  0.00    +0.000 C 
BRANCH  28  29
ATOM     29  N   UNL     1      38.317  -3.265  18.503  0.00  0.00    +0.000 NA
ATOM     30  C   UNL     1      38.912  -4.095  19.508  0.00  0.00    +0.000 C 
ATOM     31  C   UNL     1      38.137  -1.898  18.874  0.00  0.00    +0.000 C 
ENDBRANCH  28  29
ENDBRANCH  27  28
ENDBRANCH  26  27
ENDBRANCH   7  26
TORSDOF 9
ENDMDL
MODEL 6
REMARK VINA RESULT:      -6.6      4.645      9.743
REMARK  Name = 
REMARK  9 active torsions:
REMARK  status: ('A' for Active; 'I' for Inactive)
REMARK    1  A    between atoms: C_2  and  N_3
REMARK    2  A    between atoms: C_2  and  C_12
REMARK    3  A    between atoms: N_3  and  O_4
REMARK    4  A    between atoms: O_4  and  C_5
REMARK    5  A    between atoms: C_5  and  C_6
REMARK    6  A    between atoms: N_18  and  C_19
REMARK    7  A    between atoms: C_19  and  C_20
REMARK    8  A    between atoms: C_20  and  C_21
REMARK    9  A    between atoms: C_21  and  N_22
REMARK                            x       y       z     vdW  Elec       q    Type
REMARK                         _______ _______ _______ _____ _____    ______ ____
ROOT
ATOM      1  C   UNL     1      38.775   6.075  17.959  0.00  0.00    +0.000 A 
ATOM      2  C   UNL     1      39.411   5.936  19.172  0.00  0.00    +0.000 A 
ATOM      3  C   UNL     1      39.519   6.992  20.036  0.00  0.00    +0.000 A 
ATOM      4  C   UNL     1      38.993   8.199  19.692  0.00  0.00    +0.000 A 
ATOM      5  C   UNL     1      38.347   8.413  18.505  0.00  0.00    +0.000 A 
ATOM      6  C   UNL     1      38.262   7.307  17.658  0.00  0.00    +0.000 A 
ATOM      7  N   UNL     1      37.757   9.657  18.090  0.00  0.00    +0.000 N 
ATOM      8  C   UNL     1      37.761  10.835  18.857  0.00  0.00    +0.000 A 
ATOM      9  C   UNL     1      37.137  11.980  18.394  0.00  0.00    +0.000 A 
ATOM     10  C   UNL     1      37.073  13.154  19.095  0.00  0.00    +0.000 A 
ATOM     11  C   UNL     1      37.652  13.250  20.342  0.00  0.00    +0.000 A 
ATOM     12  C   UNL     1      38.272  12.108  20.798  0.00  0.00    +0.000 A 
ATOM     13  C   UNL     1      38.332  10.944  20.098  0.00  0.00    +0.000 A 
ATOM     14  S   UNL     1      39.166   9.578  20.849  0.00  0.00    +0.000 S 
ENDROOT
BRANCH   1  16
ATOM     15  C   UNL     1      39.353   4.972  15.910  0.00  0.00    +0.000 C 
ATOM     16  C   UNL     1      38.655   4.936  17.030  0.00  0.00    +0.000 C 
BRANCH  16  17
ATOM     17  N   UNL     1      37.815   3.848  17.341  0.00  0.00    +0.000 NA
BRANCH  17  18
ATOM     18  O   UNL     1      37.378   2.966  16.400  0.00  0.00    +0.000 OA
BRANCH  18  19
ATOM     19  C   UNL     1      36.005   2.751  16.510  0.00  0.00    +0.000 C 
BRANCH  19  20
ATOM     20  C   UNL     1      35.776   1.265  16.415  0.00  0.00    +0.000 A 
ATOM     21  C   UNL     1      36.460   0.522  15.493  0.00  0.00    +0.000 A 
ATOM     22  C   UNL     1      36.280  -0.833  15.372  0.00  0.00    +0.000 A 
ATOM     23  C   UNL     1      35.386  -1.470  16.201  0.00  0.00    +0.000 A 
ATOM     24  C   UNL     1      34.686  -0.724  17.141  0.00  0.00    +0.000 A 
ATOM     25  C   UNL     1      34.880   0.634  17.247  0.00  0.00    +0.000 A 
ENDBRANCH  19  20
ENDBRANCH  18  19
ENDBRANCH  17  18
ENDBRANCH  16  17
ENDBRANCH   1  16
BRANCH   7  26
ATOM     26  C   UNL     1      37.105   9.631  16.804  0.00  0.00    +0.000 C 
BRANCH  26  27
ATOM     27  C   UNL     1      35.639   9.708  16.914  0.00  0.00    +0.000 C 
BRANCH  27  28
ATOM     28  C   UNL     1      34.910   9.874  15.596  0.00  0.00    +0.000 C 
BRANCH  28  29
ATOM     29  N   UNL     1      33.763   9.046  15.449  0.00  0.00    +0.000 NA
ATOM     30  C   UNL     1      33.924   7.926  14.571  0.00  0.00    +0.000 C 
ATOM     31  C   UNL     1      33.027   8.781  16.643  0.00  0.00    +0.000 C 
ENDBRANCH  28  29
ENDBRANCH  27  28
ENDBRANCH  26  27
ENDBRANCH   7  26
TORSDOF 9
ENDMDL
MODEL 7
REMARK VINA RESULT:      -6.4      3.245      6.525
REMARK  Name = 
REMARK  9 active torsions:
REMARK  status: ('A' for Active; 'I' for Inactive)
REMARK    1  A    between atoms: C_2  and  N_3
REMARK    2  A    between atoms: C_2  and  C_12
REMARK    3  A    between atoms: N_3  and  O_4
REMARK    4  A    between atoms: O_4  and  C_5
REMARK    5  A    between atoms: C_5  and  C_6
REMARK    6  A    between atoms: N_18  and  C_19
REMARK    7  A    between atoms: C_19  and  C_20
REMARK    8  A    between atoms: C_20  and  C_21
REMARK    9  A    between atoms: C_21  and  N_22
REMARK                            x       y       z     vdW  Elec       q    Type
REMARK                         _______ _______ _______ _____ _____    ______ ____
ROOT
ATOM      1  C   UNL     1      35.599   1.003  16.454  0.00  0.00    +0.000 A 
ATOM      2  C   UNL     1      35.336   2.355  16.482  0.00  0.00    +0.000 A 
ATOM      3  C   UNL     1      35.712   3.168  15.448  0.00  0.00    +0.000 A 
ATOM      4  C   UNL     1      36.358   2.636  14.375  0.00  0.00    +0.000 A 
ATOM      5  C   UNL     1      36.655   1.304  14.275  0.00  0.00    +0.000 A 
ATOM      6  C   UNL     1      36.250   0.516  15.354  0.00  0.00    +0.000 A 
ATOM      7  N   UNL     1      37.319   0.679  13.164  0.00  0.00    +0.000 N 
ATOM      8  C   UNL     1      37.760   1.358  12.015  0.00  0.00    +0.000 A 
ATOM      9  C   UNL     1      38.360   0.671  10.975  0.00  0.00    +0.000 A 
ATOM     10  C   UNL     1      38.787   1.257   9.814  0.00  0.00    +0.000 A 
ATOM     11  C   UNL     1      38.631   2.613   9.624  0.00  0.00    +0.000 A 
ATOM     12  C   UNL     1      38.032   3.293  10.661  0.00  0.00    +0.000 A 
ATOM     13  C   UNL     1      37.610   2.705  11.812  0.00  0.00    +0.000 A 
ATOM     14  S   UNL     1      36.855   3.740  13.032  0.00  0.00    +0.000 S 
ENDROOT
BRANCH   1  16
ATOM     15  C   UNL     1      34.144  -0.658  17.385  0.00  0.00    +0.000 C 
ATOM     16  C   UNL     1      35.190   0.127  17.566  0.00  0.00    +0.000 C 
BRANCH  16  17
ATOM     17  N   UNL     1      35.903   0.136  18.781  0.00  0.00    +0.000 NA
BRANCH  17  18
ATOM     18  O   UNL     1      37.170  -0.349  18.894  0.00  0.00    +0.000 OA
BRANCH  18  19
ATOM     19  C   UNL     1      37.166  -1.676  19.321  0.00  0.00    +0.000 C 
BRANCH  19  20
ATOM     20  C   UNL     1      37.506  -2.531  18.128  0.00  0.00    +0.000 A 
ATOM     21  C   UNL     1      36.514  -3.151  17.421  0.00  0.00    +0.000 A 
ATOM     22  C   UNL     1      36.780  -3.939  16.330  0.00  0.00    +0.000 A 
ATOM     23  C   UNL     1      38.084  -4.114  15.928  0.00  0.00    +0.000 A 
ATOM     24  C   UNL     1      39.101  -3.487  16.639  0.00  0.00    +0.000 A 
ATOM     25  C   UNL     1      38.814  -2.701  17.731  0.00  0.00    +0.000 A 
ENDBRANCH  19  20
ENDBRANCH  18  19
ENDBRANCH  17  18
ENDBRANCH  16  17
ENDBRANCH   1  16
BRANCH   7  26
ATOM     26  C   UNL     1      37.496  -0.748  13.275  0.00  0.00    +0.000 C 
BRANCH  26  27
ATOM     27  C   UNL     1      38.818  -1.112  13.810  0.00  0.00    +0.000 C 
BRANCH  27  28
ATOM     28  C   UNL     1      39.550  -2.182  13.025  0.00  0.00    +0.000 C 
BRANCH  28  29
ATOM     29  N   UNL     1      40.794  -2.578  13.588  0.00  0.00    +0.000 NA
ATOM     30  C   UNL     1      41.656  -3.316  12.714  0.00  0.00    +0.000 C 
ATOM     31  C   UNL     1      41.447  -1.606  14.405  0.00  0.00    +0.000 C 
ENDBRANCH  28  29
ENDBRANCH  27  28
ENDBRANCH  26  27
ENDBRANCH   7  26
TORSDOF 9
ENDMDL
MODEL 8
REMARK VINA RESULT:      -6.3     26.372     29.592
REMARK  Name = 
REMARK  9 active torsions:
REMARK  status: ('A' for Active; 'I' for Inactive)
REMARK    1  A    between atoms: C_2  and  N_3
REMARK    2  A    between atoms: C_2  and  C_12
REMARK    3  A    between atoms: N_3  and  O_4
REMARK    4  A    between atoms: O_4  and  C_5
REMARK    5  A    between atoms: C_5  and  C_6
REMARK    6  A    between atoms: N_18  and  C_19
REMARK    7  A    between atoms: C_19  and  C_20
REMARK    8  A    between atoms: C_20  and  C_21
REMARK    9  A    between atoms: C_21  and  N_22
REMARK                            x       y       z     vdW  Elec       q    Type
REMARK                         _______ _______ _______ _____ _____    ______ ____
ROOT
ATOM      1  C   UNL     1      25.525  16.126  35.071  0.00  0.00    +0.000 A 
ATOM      2  C   UNL     1      25.336  17.456  34.766  0.00  0.00    +0.000 A 
ATOM      3  C   UNL     1      24.842  18.329  35.697  0.00  0.00    +0.000 A 
ATOM      4  C   UNL     1      24.530  17.878  36.943  0.00  0.00    +0.000 A 
ATOM      5  C   UNL     1      24.689  16.572  37.319  0.00  0.00    +0.000 A 
ATOM      6  C   UNL     1      25.197  15.721  36.336  0.00  0.00    +0.000 A 
ATOM      7  N   UNL     1      24.393  16.037  38.620  0.00  0.00    +0.000 N 
ATOM      8  C   UNL     1      23.895  16.792  39.697  0.00  0.00    +0.000 A 
ATOM      9  C   UNL     1      23.672  16.202  40.928  0.00  0.00    +0.000 A 
ATOM     10  C   UNL     1      23.218  16.876  42.029  0.00  0.00    +0.000 A 
ATOM     11  C   UNL     1      22.952  18.226  41.955  0.00  0.00    +0.000 A 
ATOM     12  C   UNL     1      23.177  18.809  40.727  0.00  0.00    +0.000 A 
ATOM     13  C   UNL     1      23.628  18.135  39.637  0.00  0.00    +0.000 A 
ATOM     14  S   UNL     1      23.864  19.054  38.145  0.00  0.00    +0.000 S 
ENDROOT
BRANCH   1  16
ATOM     15  C   UNL     1      25.292  14.865  33.046  0.00  0.00    +0.000 C 
ATOM     16  C   UNL     1      26.061  15.187  34.069  0.00  0.00    +0.000 C 
BRANCH  16  17
ATOM     17  N   UNL     1      27.359  14.655  34.212  0.00  0.00    +0.000 NA
BRANCH  17  18
ATOM     18  O   UNL     1      28.482  15.379  33.952  0.00  0.00    +0.000 OA
BRANCH  18  19
ATOM     19  C   UNL     1      29.359  15.355  35.035  0.00  0.00    +0.000 C 
BRANCH  19  20
ATOM     20  C   UNL     1      28.948  16.465  35.968  0.00  0.00    +0.000 A 
ATOM     21  C   UNL     1      28.633  16.188  37.269  0.00  0.00    +0.000 A 
ATOM     22  C   UNL     1      28.252  17.167  38.151  0.00  0.00    +0.000 A 
ATOM     23  C   UNL     1      28.184  18.472  37.719  0.00  0.00    +0.000 A 
ATOM     24  C   UNL     1      28.502  18.765  36.398  0.00  0.00    +0.000 A 
ATOM     25  C   UNL     1      28.881  17.768  35.529  0.00  0.00    +0.000 A 
ENDBRANCH  19  20
ENDBRANCH  18  19
ENDBRANCH  17  18
ENDBRANCH  16  17
ENDBRANCH   1  16
BRANCH   7  26
ATOM     26  C   UNL     1      24.671  14.632  38.787  0.00  0.00    +0.000 C 
BRANCH  26  27
ATOM     27  C   UNL     1      26.031  14.382  39.291  0.00  0.00    +0.000 C 
BRANCH  27  28
ATOM     28  C   UNL     1      26.133  13.287  40.332  0.00  0.00    +0.000 C 
BRANCH  28  29
ATOM     29  N   UNL     1      27.457  13.018  40.776  0.00  0.00    +0.000 NA
ATOM     30  C   UNL     1      27.806  11.631  40.859  0.00  0.00    +0.000 C 
ATOM     31  C   UNL     1      28.476  13.870  40.255  0.00  0.00    +0.000 C 
ENDBRANCH  28  29
ENDBRANCH  27  28
ENDBRANCH  26  27
ENDBRANCH   7  26
TORSDOF 9
ENDMDL
MODEL 9
REMARK VINA RESULT:      -6.3      3.405      7.886
REMARK  Name = 
REMARK  9 active torsions:
REMARK  status: ('A' for Active; 'I' for Inactive)
REMARK    1  A    between atoms: C_2  and  N_3
REMARK    2  A    between atoms: C_2  and  C_12
REMARK    3  A    between atoms: N_3  and  O_4
REMARK    4  A    between atoms: O_4  and  C_5
REMARK    5  A    between atoms: C_5  and  C_6
REMARK    6  A    between atoms: N_18  and  C_19
REMARK    7  A    between atoms: C_19  and  C_20
REMARK    8  A    between atoms: C_20  and  C_21
REMARK    9  A    between atoms: C_21  and  N_22
REMARK                            x       y       z     vdW  Elec       q    Type
REMARK                         _______ _______ _______ _____ _____    ______ ____
ROOT
ATOM      1  C   UNL     1      40.810  -0.339  14.138  0.00  0.00    +0.000 A 
ATOM      2  C   UNL     1      41.571   0.676  13.601  0.00  0.00    +0.000 A 
ATOM      3  C   UNL     1      41.031   1.910  13.359  0.00  0.00    +0.000 A 
ATOM      4  C   UNL     1      39.722   2.139  13.652  0.00  0.00    +0.000 A 
ATOM      5  C   UNL     1      38.903   1.182  14.186  0.00  0.00    +0.000 A 
ATOM      6  C   UNL     1      39.500  -0.059  14.415  0.00  0.00    +0.000 A 
ATOM      7  N   UNL     1      37.520   1.365  14.531  0.00  0.00    +0.000 N 
ATOM      8  C   UNL     1      36.811   2.568  14.366  0.00  0.00    +0.000 A 
ATOM      9  C   UNL     1      35.489   2.667  14.759  0.00  0.00    +0.000 A 
ATOM     10  C   UNL     1      34.742   3.810  14.657  0.00  0.00    +0.000 A 
ATOM     11  C   UNL     1      35.300   4.958  14.137  0.00  0.00    +0.000 A 
ATOM     12  C   UNL     1      36.617   4.855  13.748  0.00  0.00    +0.000 A 
ATOM     13  C   UNL     1      37.353   3.717  13.852  0.00  0.00    +0.000 A 
ATOM     14  S   UNL     1      39.034   3.776  13.306  0.00  0.00    +0.000 S 
ENDROOT
BRANCH   1  16
ATOM     15  C   UNL     1      42.705  -1.756  14.525  0.00  0.00    +0.000 C 
ATOM     16  C   UNL     1      41.393  -1.666  14.402  0.00  0.00    +0.000 C 
BRANCH  16  17
ATOM     17  N   UNL     1      40.564  -2.800  14.518  0.00  0.00    +0.000 NA
BRANCH  17  18
ATOM     18  O   UNL     1      40.413  -3.483  15.686  0.00  0.00    +0.000 OA
BRANCH  18  19
ATOM     19  C   UNL     1      39.374  -2.952  16.450  0.00  0.00    +0.000 C 
BRANCH  19  20
ATOM     20  C   UNL     1      38.101  -3.617  15.995  0.00  0.00    +0.000 A 
ATOM     21  C   UNL     1      37.557  -4.635  16.729  0.00  0.00    +0.000 A 
ATOM     22  C   UNL     1      36.401  -5.268  16.350  0.00  0.00    +0.000 A 
ATOM     23  C   UNL     1      35.762  -4.872  15.198  0.00  0.00    +0.000 A 
ATOM     24  C   UNL     1      36.306  -3.838  14.445  0.00  0.00    +0.000 A 
ATOM     25  C   UNL     1      37.467  -3.215  14.841  0.00  0.00    +0.000 A 
ENDBRANCH  19  20
ENDBRANCH  18  19
ENDBRANCH  17  18
ENDBRANCH  16  17
ENDBRANCH   1  16
BRANCH   7  26
ATOM     26  C   UNL     1      36.871   0.215  15.109  0.00  0.00    +0.000 C 
BRANCH  26  27
ATOM     27  C   UNL     1      36.518   0.417  16.523  0.00  0.00    +0.000 C 
BRANCH  27  28
ATOM     28  C   UNL     1      36.372  -0.856  17.332  0.00  0.00    +0.000 C 
BRANCH  28  29
ATOM     29  N   UNL     1      36.623  -0.702  18.722  0.00  0.00    +0.000 NA
ATOM     30  C   UNL     1      35.540  -0.156  19.485  0.00  0.00    +0.000 C 
ATOM     31  C   UNL     1      37.329  -1.771  19.352  0.00  0.00    +0.000 C 
ENDBRANCH  28  29
ENDBRANCH  27  28
ENDBRANCH  26  27
ENDBRANCH   7  26
TORSDOF 9
ENDMDL
MODEL 10
REMARK VINA RESULT:      -6.3     26.731     29.853
REMARK  Name = 
REMARK  9 active torsions:
REMARK  status: ('A' for Active; 'I' for Inactive)
REMARK    1  A    between atoms: C_2  and  N_3
REMARK    2  A    between atoms: C_2  and  C_12
REMARK    3  A    between atoms: N_3  and  O_4
REMARK    4  A    between atoms: O_4  and  C_5
REMARK    5  A    between atoms: C_5  and  C_6
REMARK    6  A    between atoms: N_18  and  C_19
REMARK    7  A    between atoms: C_19  and  C_20
REMARK    8  A    between atoms: C_20  and  C_21
REMARK    9  A    between atoms: C_21  and  N_22
REMARK                            x       y       z     vdW  Elec       q    Type
REMARK                         _______ _______ _______ _____ _____    ______ ____
ROOT
ATOM      1  C   UNL     1      25.307  18.428  37.176  0.00  0.00    +0.000 A 
ATOM      2  C   UNL     1      26.631  18.757  36.987  0.00  0.00    +0.000 A 
ATOM      3  C   UNL     1      27.632  17.979  37.504  0.00  0.00    +0.000 A 
ATOM      4  C   UNL     1      27.315  16.863  38.216  0.00  0.00    +0.000 A 
ATOM      5  C   UNL     1      26.024  16.472  38.445  0.00  0.00    +0.000 A 
ATOM      6  C   UNL     1      25.040  17.297  37.898  0.00  0.00    +0.000 A 
ATOM      7  N   UNL     1      25.626  15.299  39.174  0.00  0.00    +0.000 N 
ATOM      8  C   UNL     1      26.518  14.382  39.757  0.00  0.00    +0.000 A 
ATOM      9  C   UNL     1      26.047  13.258  40.412  0.00  0.00    +0.000 A 
ATOM     10  C   UNL     1      26.852  12.307  40.978  0.00  0.00    +0.000 A 
ATOM     11  C   UNL     1      28.224  12.434  40.917  0.00  0.00    +0.000 A 
ATOM     12  C   UNL     1      28.688  13.554  40.263  0.00  0.00    +0.000 A 
ATOM     13  C   UNL     1      27.883  14.495  39.703  0.00  0.00    +0.000 A 
ATOM     14  S   UNL     1      28.661  15.864  38.898  0.00  0.00    +0.000 S 
ENDROOT
BRANCH   1  16
ATOM     15  C   UNL     1      23.288  19.693  37.435  0.00  0.00    +0.000 C 
ATOM     16  C   UNL     1      24.230  19.264  36.616  0.00  0.00    +0.000 C 
BRANCH  16  17
ATOM     17  N   UNL     1      24.218  19.588  35.245  0.00  0.00    +0.000 NA
BRANCH  17  18
ATOM     18  O   UNL     1      23.981  18.664  34.273  0.00  0.00    +0.000 OA
BRANCH  18  19
ATOM     19  C   UNL     1      25.111  18.463  33.483  0.00  0.00    +0.000 C 
BRANCH  19  20
ATOM     20  C   UNL     1      25.405  16.985  33.492  0.00  0.00    +0.000 A 
ATOM     21  C   UNL     1      24.738  16.146  32.644  0.00  0.00    +0.000 A 
ATOM     22  C   UNL     1      24.973  14.794  32.621  0.00  0.00    +0.000 A 
ATOM     23  C   UNL     1      25.910  14.260  33.476  0.00  0.00    +0.000 A 
ATOM     24  C   UNL     1      26.595  15.104  34.342  0.00  0.00    +0.000 A 
ATOM     25  C   UNL     1      26.344  16.457  34.350  0.00  0.00    +0.000 A 
ENDBRANCH  19  20
ENDBRANCH  18  19
ENDBRANCH  17  18
ENDBRANCH  16  17
ENDBRANCH   1  16
BRANCH   7  26
ATOM     26  C   UNL     1      24.203  15.080  39.259  0.00  0.00    +0.000 C 
BRANCH  26  27
ATOM     27  C   UNL     1      23.597  15.756  40.417  0.00  0.00    +0.000 C 
BRANCH  27  28
ATOM     28  C   UNL     1      22.168  15.350  40.716  0.00  0.00    +0.000 C 
BRANCH  28  29
ATOM     29  N   UNL     1      22.023  14.495  41.842  0.00  0.00    +0.000 NA
ATOM     30  C   UNL     1      22.978  14.693  42.891  0.00  0.00    +0.000 C 
ATOM     31  C   UNL     1      20.684  14.258  42.278  0.00  0.00    +0.000 C 
ENDBRANCH  28  29
ENDBRANCH  27  28
ENDBRANCH  26  27
ENDBRANCH   7  26
TORSDOF 9
ENDMDL
