MODEL 1
REMARK VINA RESULT:      -6.0      0.000      0.000
REMARK  Name = 
REMARK  5 active torsions:
REMARK  status: ('A' for Active; 'I' for Inactive)
REMARK    1  A    between atoms: C_7  and  C_8
REMARK    2  A    between atoms: C_15  and  C_16
REMARK    3  A    between atoms: C_16  and  O_18
REMARK    4  A    between atoms: O_18  and  C_19
REMARK    5  A    between atoms: C_19  and  C_20
REMARK                            x       y       z     vdW  Elec       q    Type
REMARK                         _______ _______ _______ _____ _____    ______ ____
ROOT
ATOM      1  C   UNL     1      25.181  25.240  25.133  0.00  0.00    +0.000 C 
ATOM      2  C   UNL     1      25.564  24.209  25.708  0.00  0.00    +0.000 C 
ATOM      3  N   UNL     1      25.512  23.865  27.011  0.00  0.00    +0.000 NA
ATOM      4  C   UNL     1      26.722  23.407  27.648  0.00  0.00    +0.000 C 
ATOM      5  O   UNL     1      26.851  23.063  28.829  0.00  0.00    +0.000 OA
ATOM      6  N   UNL     1      27.793  23.413  26.760  0.00  0.00    +0.000 NA
ATOM      7  C   UNL     1      27.709  23.204  25.272  0.00  0.00    +0.000 C 
ATOM      8  C   UNL     1      26.284  23.038  24.834  0.00  0.00    +0.000 C 
ENDROOT
BRANCH   7   9
ATOM      9  C   UNL     1      28.962  23.669  24.780  0.00  0.00    +0.000 A 
ATOM     10  C   UNL     1      29.840  22.534  24.672  0.00  0.00    +0.000 A 
ATOM     11  C   UNL     1      31.197  22.731  24.583  0.00  0.00    +0.000 A 
ATOM     12  C   UNL     1      31.763  23.955  24.588  0.00  0.00    +0.000 A 
ATOM     13  C   UNL     1      30.838  25.081  24.701  0.00  0.00    +0.000 A 
ATOM     14  C   UNL     1      29.561  24.838  24.779  0.00  0.00    +0.000 A 
ATOM     15  O   UNL     1      28.657  25.803  24.878  0.00  0.00    +0.000 OA
ENDBRANCH   7   9
BRANCH   8  16
ATOM     16  C   UNL     1      25.974  23.336  23.417  0.00  0.00    +0.000 C 
ATOM     17  O   UNL     1      25.163  22.696  22.708  0.00  0.00    +0.000 OA
BRANCH  16  18
ATOM     18  O   UNL     1      26.618  24.431  22.780  0.00  0.00    +0.000 OA
BRANCH  18  19
ATOM     19  C   UNL     1      27.195  24.394  21.547  0.00  0.00    +0.000 C 
BRANCH  19  20
ATOM     20  C   UNL     1      28.014  25.687  21.410  0.00  0.00    +0.000 C 
ATOM     21  C   UNL     1      29.469  25.318  21.113  0.00  0.00    +0.000 C 
ENDBRANCH  19  20
ENDBRANCH  18  19
ENDBRANCH  16  18
ENDBRANCH   8  16
TORSDOF 5
ENDMDL
MODEL 2
REMARK VINA RESULT:      -5.8      1.885      5.157
REMARK  Name = 
REMARK  5 active torsions:
REMARK  status: ('A' for Active; 'I' for Inactive)
REMARK    1  A    between atoms: C_7  and  C_8
REMARK    2  A    between atoms: C_15  and  C_16
REMARK    3  A    between atoms: C_16  and  O_18
REMARK    4  A    between atoms: O_18  and  C_19
REMARK    5  A    between atoms: C_19  and  C_20
REMARK                            x       y       z     vdW  Elec       q    Type
REMARK                         _______ _______ _______ _____ _____    ______ ____
ROOT
ATOM      1  C   UNL     1      28.566  25.154  24.034  0.00  0.00    +0.000 C 
ATOM      2  C   UNL     1      27.959  24.076  23.945  0.00  0.00    +0.000 C 
ATOM      3  N   UNL     1      27.196  23.582  22.948  0.00  0.00    +0.000 NA
ATOM      4  C   UNL     1      25.880  23.090  23.272  0.00  0.00    +0.000 C 
ATOM      5  O   UNL     1      25.053  22.616  22.483  0.00  0.00    +0.000 OA
ATOM      6  N   UNL     1      25.608  23.230  24.629  0.00  0.00    +0.000 NA
ATOM      7  C   UNL     1      26.621  23.190  25.741  0.00  0.00    +0.000 C 
ATOM      8  C   UNL     1      28.009  23.035  25.197  0.00  0.00    +0.000 C 
ENDROOT
BRANCH   7   9
ATOM      9  C   UNL     1      25.936  23.745  26.860  0.00  0.00    +0.000 A 
ATOM     10  C   UNL     1      25.189  24.885  26.398  0.00  0.00    +0.000 A 
ATOM     11  C   UNL     1      24.743  25.817  27.302  0.00  0.00    +0.000 A 
ATOM     12  C   UNL     1      24.968  25.721  28.628  0.00  0.00    +0.000 A 
ATOM     13  C   UNL     1      25.732  24.552  29.058  0.00  0.00    +0.000 A 
ATOM     14  C   UNL     1      26.127  23.696  28.159  0.00  0.00    +0.000 A 
ATOM     15  O   UNL     1      26.820  22.608  28.467  0.00  0.00    +0.000 OA
ENDBRANCH   7   9
BRANCH   8  16
ATOM     16  C   UNL     1      29.128  23.485  26.058  0.00  0.00    +0.000 C 
ATOM     17  O   UNL     1      29.085  24.465  26.837  0.00  0.00    +0.000 OA
BRANCH  16  18
ATOM     18  O   UNL     1      30.354  22.770  26.034  0.00  0.00    +0.000 OA
BRANCH  18  19
ATOM     19  C   UNL     1      31.590  23.325  26.177  0.00  0.00    +0.000 C 
BRANCH  19  20
ATOM     20  C   UNL     1      31.981  23.881  24.799  0.00  0.00    +0.000 C 
ATOM     21  C   UNL     1      32.445  25.329  24.967  0.00  0.00    +0.000 C 
ENDBRANCH  19  20
ENDBRANCH  18  19
ENDBRANCH  16  18
ENDBRANCH   8  16
TORSDOF 5
ENDMDL
MODEL 3
REMARK VINA RESULT:      -5.7      2.408      4.618
REMARK  Name = 
REMARK  5 active torsions:
REMARK  status: ('A' for Active; 'I' for Inactive)
REMARK    1  A    between atoms: C_7  and  C_8
REMARK    2  A    between atoms: C_15  and  C_16
REMARK    3  A    between atoms: C_16  and  O_18
REMARK    4  A    between atoms: O_18  and  C_19
REMARK    5  A    between atoms: C_19  and  C_20
REMARK                            x       y       z     vdW  Elec       q    Type
REMARK                         _______ _______ _______ _____ _____    ______ ____
ROOT
ATOM      1  C   UNL     1      26.232  23.337  23.453  0.00  0.00    +0.000 C 
ATOM      2  C   UNL     1      27.055  24.153  23.012  0.00  0.00    +0.000 C 
ATOM      3  N   UNL     1      27.621  24.252  21.791  0.00  0.00    +0.000 NA
ATOM      4  C   UNL     1      29.056  24.352  21.707  0.00  0.00    +0.000 C 
ATOM      5  O   UNL     1      29.731  24.440  20.674  0.00  0.00    +0.000 OA
ATOM      6  N   UNL     1      29.640  24.315  22.969  0.00  0.00    +0.000 NA
ATOM      7  C   UNL     1      29.017  24.811  24.245  0.00  0.00    +0.000 C 
ATOM      8  C   UNL     1      27.625  25.314  24.002  0.00  0.00    +0.000 C 
ENDROOT
BRANCH   7   9
ATOM      9  C   UNL     1      29.808  24.223  25.274  0.00  0.00    +0.000 A 
ATOM     10  C   UNL     1      29.739  22.794  25.120  0.00  0.00    +0.000 A 
ATOM     11  C   UNL     1      30.091  21.980  26.169  0.00  0.00    +0.000 A 
ATOM     12  C   UNL     1      30.507  22.456  27.360  0.00  0.00    +0.000 A 
ATOM     13  C   UNL     1      30.561  23.911  27.478  0.00  0.00    +0.000 A 
ATOM     14  C   UNL     1      30.221  24.636  26.451  0.00  0.00    +0.000 A 
ATOM     15  O   UNL     1      30.247  25.962  26.475  0.00  0.00    +0.000 OA
ENDBRANCH   7   9
BRANCH   8  16
ATOM     16  C   UNL     1      26.706  25.348  25.164  0.00  0.00    +0.000 C 
ATOM     17  O   UNL     1      25.807  26.201  25.343  0.00  0.00    +0.000 OA
BRANCH  16  18
ATOM     18  O   UNL     1      26.816  24.348  26.166  0.00  0.00    +0.000 OA
BRANCH  18  19
ATOM     19  C   UNL     1      26.548  24.529  27.489  0.00  0.00    +0.000 C 
BRANCH  19  20
ATOM     20  C   UNL     1      26.922  23.215  28.193  0.00  0.00    +0.000 C 
ATOM     21  C   UNL     1      26.313  23.219  29.597  0.00  0.00    +0.000 C 
ENDBRANCH  19  20
ENDBRANCH  18  19
ENDBRANCH  16  18
ENDBRANCH   8  16
TORSDOF 5
ENDMDL
MODEL 4
REMARK VINA RESULT:      -5.7      3.095      4.899
REMARK  Name = 
REMARK  5 active torsions:
REMARK  status: ('A' for Active; 'I' for Inactive)
REMARK    1  A    between atoms: C_7  and  C_8
REMARK    2  A    between atoms: C_15  and  C_16
REMARK    3  A    between atoms: C_16  and  O_18
REMARK    4  A    between atoms: O_18  and  C_19
REMARK    5  A    between atoms: C_19  and  C_20
REMARK                            x       y       z     vdW  Elec       q    Type
REMARK                         _______ _______ _______ _____ _____    ______ ____
ROOT
ATOM      1  C   UNL     1      27.327  25.406  30.233  0.00  0.00    +0.000 C 
ATOM      2  C   UNL     1      26.579  24.445  29.992  0.00  0.00    +0.000 C 
ATOM      3  N   UNL     1      26.051  23.519  30.819  0.00  0.00    +0.000 NA
ATOM      4  C   UNL     1      26.208  22.128  30.478  0.00  0.00    +0.000 C 
ATOM      5  O   UNL     1      25.797  21.157  31.125  0.00  0.00    +0.000 OA
ATOM      6  N   UNL     1      26.926  21.975  29.296  0.00  0.00    +0.000 NA
ATOM      7  C   UNL     1      26.951  22.944  28.146  0.00  0.00    +0.000 C 
ATOM      8  C   UNL     1      26.129  24.161  28.453  0.00  0.00    +0.000 C 
ENDROOT
BRANCH   7   9
ATOM      9  C   UNL     1      28.083  22.549  27.376  0.00  0.00    +0.000 A 
ATOM     10  C   UNL     1      29.232  22.572  28.242  0.00  0.00    +0.000 A 
ATOM     11  C   UNL     1      30.493  22.599  27.697  0.00  0.00    +0.000 A 
ATOM     12  C   UNL     1      30.718  22.604  26.368  0.00  0.00    +0.000 A 
ATOM     13  C   UNL     1      29.526  22.583  25.523  0.00  0.00    +0.000 A 
ATOM     14  C   UNL     1      28.355  22.553  26.091  0.00  0.00    +0.000 A 
ATOM     15  O   UNL     1      27.226  22.528  25.396  0.00  0.00    +0.000 OA
ENDBRANCH   7   9
BRANCH   8  16
ATOM     16  C   UNL     1      26.445  25.397  27.699  0.00  0.00    +0.000 C 
ATOM     17  O   UNL     1      27.566  25.678  27.217  0.00  0.00    +0.000 OA
BRANCH  16  18
ATOM     18  O   UNL     1      25.421  26.357  27.479  0.00  0.00    +0.000 OA
BRANCH  18  19
ATOM     19  C   UNL     1      24.084  26.095  27.489  0.00  0.00    +0.000 C 
BRANCH  19  20
ATOM     20  C   UNL     1      23.445  27.125  28.433  0.00  0.00    +0.000 C 
ATOM     21  C   UNL     1      23.575  26.619  29.872  0.00  0.00    +0.000 C 
ENDBRANCH  19  20
ENDBRANCH  18  19
ENDBRANCH  16  18
ENDBRANCH   8  16
TORSDOF 5
ENDMDL
MODEL 5
REMARK VINA RESULT:      -5.7      2.298      5.144
REMARK  Name = 
REMARK  5 active torsions:
REMARK  status: ('A' for Active; 'I' for Inactive)
REMARK    1  A    between atoms: C_7  and  C_8
REMARK    2  A    between atoms: C_15  and  C_16
REMARK    3  A    between atoms: C_16  and  O_18
REMARK    4  A    between atoms: O_18  and  C_19
REMARK    5  A    between atoms: C_19  and  C_20
REMARK                            x       y       z     vdW  Elec       q    Type
REMARK                         _______ _______ _______ _____ _____    ______ ____
ROOT
ATOM      1  C   UNL     1      29.432  24.952  22.620  0.00  0.00    +0.000 C 
ATOM      2  C   UNL     1      28.702  23.961  22.783  0.00  0.00    +0.000 C 
ATOM      3  N   UNL     1      27.657  23.515  22.055  0.00  0.00    +0.000 NA
ATOM      4  C   UNL     1      26.421  23.225  22.738  0.00  0.00    +0.000 C 
ATOM      5  O   UNL     1      25.371  22.819  22.224  0.00  0.00    +0.000 OA
ATOM      6  N   UNL     1      26.525  23.481  24.101  0.00  0.00    +0.000 NA
ATOM      7  C   UNL     1      27.778  23.373  24.928  0.00  0.00    +0.000 C 
ATOM      8  C   UNL     1      28.952  23.000  24.074  0.00  0.00    +0.000 C 
ENDROOT
BRANCH   7   9
ATOM      9  C   UNL     1      27.471  24.081  26.125  0.00  0.00    +0.000 A 
ATOM     10  C   UNL     1      26.947  23.135  27.074  0.00  0.00    +0.000 A 
ATOM     11  C   UNL     1      26.234  23.585  28.159  0.00  0.00    +0.000 A 
ATOM     12  C   UNL     1      25.995  24.891  28.390  0.00  0.00    +0.000 A 
ATOM     13  C   UNL     1      26.542  25.820  27.403  0.00  0.00    +0.000 A 
ATOM     14  C   UNL     1      27.214  25.341  26.396  0.00  0.00    +0.000 A 
ATOM     15  O   UNL     1      27.747  26.116  25.461  0.00  0.00    +0.000 OA
ENDBRANCH   7   9
BRANCH   8  16
ATOM     16  C   UNL     1      30.298  23.347  24.587  0.00  0.00    +0.000 C 
ATOM     17  O   UNL     1      31.378  23.075  24.013  0.00  0.00    +0.000 OA
BRANCH  16  18
ATOM     18  O   UNL     1      30.413  24.050  25.815  0.00  0.00    +0.000 OA
BRANCH  18  19
ATOM     19  C   UNL     1      31.276  23.739  26.822  0.00  0.00    +0.000 C 
BRANCH  19  20
ATOM     20  C   UNL     1      30.766  22.430  27.444  0.00  0.00    +0.000 C 
ATOM     21  C   UNL     1      31.689  22.044  28.602  0.00  0.00    +0.000 C 
ENDBRANCH  19  20
ENDBRANCH  18  19
ENDBRANCH  16  18
ENDBRANCH   8  16
TORSDOF 5
ENDMDL
MODEL 6
REMARK VINA RESULT:      -5.6      2.618      3.940
REMARK  Name = 
REMARK  5 active torsions:
REMARK  status: ('A' for Active; 'I' for Inactive)
REMARK    1  A    between atoms: C_7  and  C_8
REMARK    2  A    between atoms: C_15  and  C_16
REMARK    3  A    between atoms: C_16  and  O_18
REMARK    4  A    between atoms: O_18  and  C_19
REMARK    5  A    between atoms: C_19  and  C_20
REMARK                            x       y       z     vdW  Elec       q    Type
REMARK                         _______ _______ _______ _____ _____    ______ ____
ROOT
ATOM      1  C   UNL     1      27.122  25.477  30.135  0.00  0.00    +0.000 C 
ATOM      2  C   UNL     1      26.499  24.439  29.864  0.00  0.00    +0.000 C 
ATOM      3  N   UNL     1      25.919  23.530  30.676  0.00  0.00    +0.000 NA
ATOM      4  C   UNL     1      26.236  22.138  30.483  0.00  0.00    +0.000 C 
ATOM      5  O   UNL     1      25.803  21.183  31.140  0.00  0.00    +0.000 OA
ATOM      6  N   UNL     1      27.146  21.966  29.445  0.00  0.00    +0.000 NA
ATOM      7  C   UNL     1      27.280  22.848  28.233  0.00  0.00    +0.000 C 
ATOM      8  C   UNL     1      26.328  24.004  28.304  0.00  0.00    +0.000 C 
ENDROOT
BRANCH   7   9
ATOM      9  C   UNL     1      28.549  22.502  27.685  0.00  0.00    +0.000 A 
ATOM     10  C   UNL     1      29.534  22.661  28.723  0.00  0.00    +0.000 A 
ATOM     11  C   UNL     1      30.863  22.757  28.389  0.00  0.00    +0.000 A 
ATOM     12  C   UNL     1      31.305  22.709  27.116  0.00  0.00    +0.000 A 
ATOM     13  C   UNL     1      30.276  22.550  26.092  0.00  0.00    +0.000 A 
ATOM     14  C   UNL     1      29.031  22.459  26.464  0.00  0.00    +0.000 A 
ATOM     15  O   UNL     1      28.038  22.308  25.598  0.00  0.00    +0.000 OA
ENDBRANCH   7   9
BRANCH   8  16
ATOM     16  C   UNL     1      26.664  25.206  27.506  0.00  0.00    +0.000 C 
ATOM     17  O   UNL     1      27.823  25.642  27.316  0.00  0.00    +0.000 OA
BRANCH  16  18
ATOM     18  O   UNL     1      25.620  25.941  26.884  0.00  0.00    +0.000 OA
BRANCH  18  19
ATOM     19  C   UNL     1      25.544  26.229  25.555  0.00  0.00    +0.000 C 
BRANCH  19  20
ATOM     20  C   UNL     1      25.510  24.881  24.819  0.00  0.00    +0.000 C 
ATOM     21  C   UNL     1      26.603  24.879  23.746  0.00  0.00    +0.000 C 
ENDBRANCH  19  20
ENDBRANCH  18  19
ENDBRANCH  16  18
ENDBRANCH   8  16
TORSDOF 5
ENDMDL
MODEL 7
REMARK VINA RESULT:      -5.5      3.068      4.305
REMARK  Name = 
REMARK  5 active torsions:
REMARK  status: ('A' for Active; 'I' for Inactive)
REMARK    1  A    between atoms: C_7  and  C_8
REMARK    2  A    between atoms: C_15  and  C_16
REMARK    3  A    between atoms: C_16  and  O_18
REMARK    4  A    between atoms: O_18  and  C_19
REMARK    5  A    between atoms: C_19  and  C_20
REMARK                            x       y       z     vdW  Elec       q    Type
REMARK                         _______ _______ _______ _____ _____    ______ ____
ROOT
ATOM      1  C   UNL     1      27.394  25.402  30.258  0.00  0.00    +0.000 C 
ATOM      2  C   UNL     1      26.623  24.463  30.005  0.00  0.00    +0.000 C 
ATOM      3  N   UNL     1      26.074  23.539  30.820  0.00  0.00    +0.000 NA
ATOM      4  C   UNL     1      26.198  22.149  30.461  0.00  0.00    +0.000 C 
ATOM      5  O   UNL     1      25.764  21.179  31.096  0.00  0.00    +0.000 OA
ATOM      6  N   UNL     1      26.912  21.994  29.277  0.00  0.00    +0.000 NA
ATOM      7  C   UNL     1      26.960  22.978  28.139  0.00  0.00    +0.000 C 
ATOM      8  C   UNL     1      26.167  24.209  28.462  0.00  0.00    +0.000 C 
ENDROOT
BRANCH   7   9
ATOM      9  C   UNL     1      28.082  22.566  27.364  0.00  0.00    +0.000 A 
ATOM     10  C   UNL     1      29.236  22.573  28.224  0.00  0.00    +0.000 A 
ATOM     11  C   UNL     1      30.494  22.582  27.672  0.00  0.00    +0.000 A 
ATOM     12  C   UNL     1      30.712  22.582  26.342  0.00  0.00    +0.000 A 
ATOM     13  C   UNL     1      29.516  22.577  25.503  0.00  0.00    +0.000 A 
ATOM     14  C   UNL     1      28.347  22.565  26.078  0.00  0.00    +0.000 A 
ATOM     15  O   UNL     1      27.214  22.555  25.389  0.00  0.00    +0.000 OA
ENDBRANCH   7   9
BRANCH   8  16
ATOM     16  C   UNL     1      26.512  25.448  27.725  0.00  0.00    +0.000 C 
ATOM     17  O   UNL     1      25.817  26.490  27.707  0.00  0.00    +0.000 OA
BRANCH  16  18
ATOM     18  O   UNL     1      27.719  25.498  26.979  0.00  0.00    +0.000 OA
BRANCH  18  19
ATOM     19  C   UNL     1      28.463  26.618  26.763  0.00  0.00    +0.000 C 
BRANCH  19  20
ATOM     20  C   UNL     1      29.936  26.185  26.840  0.00  0.00    +0.000 C 
ATOM     21  C   UNL     1      30.396  26.267  28.297  0.00  0.00    +0.000 C 
ENDBRANCH  19  20
ENDBRANCH  18  19
ENDBRANCH  16  18
ENDBRANCH   8  16
TORSDOF 5
ENDMDL
MODEL 8
REMARK VINA RESULT:      -5.3      2.332      5.789
REMARK  Name = 
REMARK  5 active torsions:
REMARK  status: ('A' for Active; 'I' for Inactive)
REMARK    1  A    between atoms: C_7  and  C_8
REMARK    2  A    between atoms: C_15  and  C_16
REMARK    3  A    between atoms: C_16  and  O_18
REMARK    4  A    between atoms: O_18  and  C_19
REMARK    5  A    between atoms: C_19  and  C_20
REMARK                            x       y       z     vdW  Elec       q    Type
REMARK                         _______ _______ _______ _____ _____    ______ ____
ROOT
ATOM      1  C   UNL     1      31.091  24.397  25.635  0.00  0.00    +0.000 C 
ATOM      2  C   UNL     1      30.511  23.836  24.692  0.00  0.00    +0.000 C 
ATOM      3  N   UNL     1      30.698  23.947  23.360  0.00  0.00    +0.000 NA
ATOM      4  C   UNL     1      29.552  24.213  22.528  0.00  0.00    +0.000 C 
ATOM      5  O   UNL     1      29.548  24.352  21.298  0.00  0.00    +0.000 OA
ATOM      6  N   UNL     1      28.392  24.327  23.286  0.00  0.00    +0.000 NA
ATOM      7  C   UNL     1      28.114  23.624  24.587  0.00  0.00    +0.000 C 
ATOM      8  C   UNL     1      29.294  22.803  25.015  0.00  0.00    +0.000 C 
ENDROOT
BRANCH   7   9
ATOM      9  C   UNL     1      27.012  24.334  25.143  0.00  0.00    +0.000 A 
ATOM     10  C   UNL     1      27.487  25.625  25.563  0.00  0.00    +0.000 A 
ATOM     11  C   UNL     1      26.747  26.365  26.454  0.00  0.00    +0.000 A 
ATOM     12  C   UNL     1      25.575  25.939  26.966  0.00  0.00    +0.000 A 
ATOM     13  C   UNL     1      25.127  24.623  26.517  0.00  0.00    +0.000 A 
ATOM     14  C   UNL     1      25.865  23.966  25.668  0.00  0.00    +0.000 A 
ATOM     15  O   UNL     1      25.527  22.769  25.208  0.00  0.00    +0.000 OA
ENDBRANCH   7   9
BRANCH   8  16
ATOM     16  C   UNL     1      29.405  22.478  26.456  0.00  0.00    +0.000 C 
ATOM     17  O   UNL     1      30.151  21.595  26.938  0.00  0.00    +0.000 OA
BRANCH  16  18
ATOM     18  O   UNL     1      28.630  23.210  27.394  0.00  0.00    +0.000 OA
BRANCH  18  19
ATOM     19  C   UNL     1      28.319  22.792  28.653  0.00  0.00    +0.000 C 
BRANCH  19  20
ATOM     20  C   UNL     1      27.560  23.949  29.321  0.00  0.00    +0.000 C 
ATOM     21  C   UNL     1      26.221  23.422  29.842  0.00  0.00    +0.000 C 
ENDBRANCH  19  20
ENDBRANCH  18  19
ENDBRANCH  16  18
ENDBRANCH   8  16
TORSDOF 5
ENDMDL
MODEL 9
REMARK VINA RESULT:      -5.3     32.929     34.443
REMARK  Name = 
REMARK  5 active torsions:
REMARK  status: ('A' for Active; 'I' for Inactive)
REMARK    1  A    between atoms: C_7  and  C_8
REMARK    2  A    between atoms: C_15  and  C_16
REMARK    3  A    between atoms: C_16  and  O_18
REMARK    4  A    between atoms: O_18  and  C_19
REMARK    5  A    between atoms: C_19  and  C_20
REMARK                            x       y       z     vdW  Elec       q    Type
REMARK                         _______ _______ _______ _____ _____    ______ ____
ROOT
ATOM      1  C   UNL     1      17.273 -11.248  26.879  0.00  0.00    +0.000 C 
ATOM      2  C   UNL     1      16.482 -10.293  26.922  0.00  0.00    +0.000 C 
ATOM      3  N   UNL     1      15.403 -10.017  26.160  0.00  0.00    +0.000 NA
ATOM      4  C   UNL     1      15.304  -8.710  25.561  0.00  0.00    +0.000 C 
ATOM      5  O   UNL     1      14.393  -8.297  24.834  0.00  0.00    +0.000 OA
ATOM      6  N   UNL     1      16.405  -7.922  25.882  0.00  0.00    +0.000 NA
ATOM      7  C   UNL     1      17.217  -8.011  27.146  0.00  0.00    +0.000 C 
ATOM      8  C   UNL     1      16.720  -9.119  28.025  0.00  0.00    +0.000 C 
ENDROOT
BRANCH   7   9
ATOM      9  C   UNL     1      18.415  -7.300  26.846  0.00  0.00    +0.000 A 
ATOM     10  C   UNL     1      18.183  -5.909  27.128  0.00  0.00    +0.000 A 
ATOM     11  C   UNL     1      19.018  -4.959  26.592  0.00  0.00    +0.000 A 
ATOM     12  C   UNL     1      20.066  -5.265  25.801  0.00  0.00    +0.000 A 
ATOM     13  C   UNL     1      20.267  -6.687  25.536  0.00  0.00    +0.000 A 
ATOM     14  C   UNL     1      19.448  -7.547  26.073  0.00  0.00    +0.000 A 
ATOM     15  O   UNL     1      19.565  -8.854  25.887  0.00  0.00    +0.000 OA
ENDBRANCH   7   9
BRANCH   8  16
ATOM     16  C   UNL     1      17.672  -9.675  29.015  0.00  0.00    +0.000 C 
ATOM     17  O   UNL     1      17.373 -10.485  29.922  0.00  0.00    +0.000 OA
BRANCH  16  18
ATOM     18  O   UNL     1      19.038  -9.291  28.956  0.00  0.00    +0.000 OA
BRANCH  18  19
ATOM     19  C   UNL     1      20.046  -9.862  29.673  0.00  0.00    +0.000 C 
BRANCH  19  20
ATOM     20  C   UNL     1      21.057 -10.400  28.648  0.00  0.00    +0.000 C 
ATOM     21  C   UNL     1      20.650 -11.823  28.258  0.00  0.00    +0.000 C 
ENDBRANCH  19  20
ENDBRANCH  18  19
ENDBRANCH  16  18
ENDBRANCH   8  16
TORSDOF 5
ENDMDL
MODEL 10
REMARK VINA RESULT:      -5.2     32.688     34.174
REMARK  Name = 
REMARK  5 active torsions:
REMARK  status: ('A' for Active; 'I' for Inactive)
REMARK    1  A    between atoms: C_7  and  C_8
REMARK    2  A    between atoms: C_15  and  C_16
REMARK    3  A    between atoms: C_16  and  O_18
REMARK    4  A    between atoms: O_18  and  C_19
REMARK    5  A    between atoms: C_19  and  C_20
REMARK                            x       y       z     vdW  Elec       q    Type
REMARK                         _______ _______ _______ _____ _____    ______ ____
ROOT
ATOM      1  C   UNL     1      16.271  -8.363  26.704  0.00  0.00    +0.000 C 
ATOM      2  C   UNL     1      17.178  -7.613  27.095  0.00  0.00    +0.000 C 
ATOM      3  N   UNL     1      17.267  -6.267  27.079  0.00  0.00    +0.000 NA
ATOM      4  C   UNL     1      18.449  -5.666  26.513  0.00  0.00    +0.000 C 
ATOM      5  O   UNL     1      18.686  -4.456  26.411  0.00  0.00    +0.000 OA
ATOM      6  N   UNL     1      19.334  -6.632  26.046  0.00  0.00    +0.000 NA
ATOM      7  C   UNL     1      19.500  -8.020  26.603  0.00  0.00    +0.000 C 
ATOM      8  C   UNL     1      18.532  -8.269  27.721  0.00  0.00    +0.000 C 
ENDROOT
BRANCH   7   9
ATOM      9  C   UNL     1      20.210  -8.724  25.589  0.00  0.00    +0.000 A 
ATOM     10  C   UNL     1      21.616  -8.521  25.814  0.00  0.00    +0.000 A 
ATOM     11  C   UNL     1      22.509  -8.765  24.799  0.00  0.00    +0.000 A 
ATOM     12  C   UNL     1      22.133  -9.196  23.578  0.00  0.00    +0.000 A 
ATOM     13  C   UNL     1      20.697  -9.389  23.388  0.00  0.00    +0.000 A 
ATOM     14  C   UNL     1      19.895  -9.147  24.385  0.00  0.00    +0.000 A 
ATOM     15  O   UNL     1      18.581  -9.301  24.296  0.00  0.00    +0.000 OA
ENDBRANCH   7   9
BRANCH   8  16
ATOM     16  C   UNL     1      18.199  -9.680  28.025  0.00  0.00    +0.000 C 
ATOM     17  O   UNL     1      18.508 -10.661  27.311  0.00  0.00    +0.000 OA
BRANCH  16  18
ATOM     18  O   UNL     1      17.484  -9.984  29.214  0.00  0.00    +0.000 OA
BRANCH  18  19
ATOM     19  C   UNL     1      17.926  -9.742  30.480  0.00  0.00    +0.000 C 
BRANCH  19  20
ATOM     20  C   UNL     1      16.818 -10.227  31.428  0.00  0.00    +0.000 C 
ATOM     21  C   UNL     1      16.645 -11.737  31.250  0.00  0.00    +0.000 C 
ENDBRANCH  19  20
ENDBRANCH  18  19
ENDBRANCH  16  18
ENDBRANCH   8  16
TORSDOF 5
ENDMDL
