MODEL 1
REMARK VINA RESULT:      -7.3      0.000      0.000
REMARK  Name = 
REMARK  7 active torsions:
REMARK  status: ('A' for Active; 'I' for Inactive)
REMARK    1  A    between atoms: C_2  and  C_3
REMARK    2  A    between atoms: C_3  and  C_25
REMARK    3  A    between atoms: C_4  and  C_5
REMARK    4  A    between atoms: C_4  and  C_12
REMARK    5  A    between atoms: C_15  and  O_16
REMARK    6  A    between atoms: O_16  and  C_17
REMARK    7  A    between atoms: C_17  and  C_19
REMARK                            x       y       z     vdW  Elec       q    Type
REMARK                         _______ _______ _______ _____ _____    ______ ____
ROOT
ATOM      1  C   UNL     1      36.832  -0.822  16.641  0.00  0.00    +0.000 C 
ATOM      2  C   UNL     1      37.279  -0.114  15.635  0.00  0.00    +0.000 C 
ENDROOT
BRANCH   2   3
ATOM      3  C   UNL     1      38.358  -0.583  14.799  0.00  0.00    +0.000 A 
ATOM      4  C   UNL     1      37.950  -1.153  13.575  0.00  0.00    +0.000 A 
ATOM      5  C   UNL     1      38.856  -1.626  12.648  0.00  0.00    +0.000 A 
ATOM      6  C   UNL     1      40.196  -1.557  12.889  0.00  0.00    +0.000 A 
ATOM      7  O   UNL     1      41.128  -2.019  11.993  0.00  0.00    +0.000 OA
ATOM      8  C   UNL     1      40.604  -0.998  14.090  0.00  0.00    +0.000 A 
ATOM      9  C   UNL     1      39.691  -0.537  14.993  0.00  0.00    +0.000 A 
ENDBRANCH   2   3
BRANCH   2  10
ATOM     10  C   UNL     1      36.652   1.206  15.354  0.00  0.00    +0.000 A 
ATOM     11  C   UNL     1      35.505   1.280  14.636  0.00  0.00    +0.000 A 
ATOM     12  C   UNL     1      34.939   2.512  14.393  0.00  0.00    +0.000 A 
ATOM     13  C   UNL     1      35.510   3.671  14.863  0.00  0.00    +0.000 A 
ATOM     14  C   UNL     1      36.675   3.577  15.590  0.00  0.00    +0.000 A 
ATOM     15  C   UNL     1      37.258   2.321  15.840  0.00  0.00    +0.000 A 
BRANCH  13  16
ATOM     16  O   UNL     1      34.885   4.884  14.581  0.00  0.00    +0.000 OA
BRANCH  16  17
ATOM     17  C   UNL     1      35.216   5.632  13.460  0.00  0.00    +0.000 C 
ATOM     18  O   UNL     1      36.022   5.063  12.653  0.00  0.00    +0.000 OA
BRANCH  17  19
ATOM     19  C   UNL     1      34.711   6.980  13.165  0.00  0.00    +0.000 C 
ATOM     20  C   UNL     1      34.062   7.042  11.794  0.00  0.00    +0.000 C 
ATOM     21  C   UNL     1      33.648   7.306  14.236  0.00  0.00    +0.000 C 
ATOM     22  C   UNL     1      35.839   7.993  13.184  0.00  0.00    +0.000 C 
ENDBRANCH  17  19
ENDBRANCH  16  17
ENDBRANCH  13  16
ENDBRANCH   2  10
BRANCH   1  23
ATOM     23  C   UNL     1      37.348  -2.104  17.032  0.00  0.00    +0.000 A 
ATOM     24  C   UNL     1      38.134  -2.123  18.207  0.00  0.00    +0.000 A 
ATOM     25  C   UNL     1      38.718  -3.276  18.676  0.00  0.00    +0.000 A 
ATOM     26  C   UNL     1      38.565  -4.477  18.019  0.00  0.00    +0.000 A 
ATOM     27  C   UNL     1      37.804  -4.485  16.873  0.00  0.00    +0.000 A 
ATOM     28  C   UNL     1      37.231  -3.306  16.429  0.00  0.00    +0.000 A 
ENDBRANCH   1  23
BRANCH   1  30
ATOM     29  C   UNL     1      34.501  -1.149  17.233  0.00  0.00    +0.000 C 
ATOM     30  C   UNL     1      35.681  -0.209  17.453  0.00  0.00    +0.000 C 
ENDBRANCH   1  30
TORSDOF 7
ENDMDL
MODEL 2
REMARK VINA RESULT:      -6.9      4.469      7.912
REMARK  Name = 
REMARK  7 active torsions:
REMARK  status: ('A' for Active; 'I' for Inactive)
REMARK    1  A    between atoms: C_2  and  C_3
REMARK    2  A    between atoms: C_3  and  C_25
REMARK    3  A    between atoms: C_4  and  C_5
REMARK    4  A    between atoms: C_4  and  C_12
REMARK    5  A    between atoms: C_15  and  O_16
REMARK    6  A    between atoms: O_16  and  C_17
REMARK    7  A    between atoms: C_17  and  C_19
REMARK                            x       y       z     vdW  Elec       q    Type
REMARK                         _______ _______ _______ _____ _____    ______ ____
ROOT
ATOM      1  C   UNL     1      38.136  -1.219  15.490  0.00  0.00    +0.000 C 
ATOM      2  C   UNL     1      38.242  -2.368  14.872  0.00  0.00    +0.000 C 
ENDROOT
BRANCH   2   3
ATOM      3  C   UNL     1      37.323  -3.451  15.125  0.00  0.00    +0.000 A 
ATOM      4  C   UNL     1      37.689  -4.298  16.191  0.00  0.00    +0.000 A 
ATOM      5  C   UNL     1      36.907  -5.366  16.583  0.00  0.00    +0.000 A 
ATOM      6  C   UNL     1      35.736  -5.640  15.940  0.00  0.00    +0.000 A 
ATOM      7  O   UNL     1      34.932  -6.694  16.299  0.00  0.00    +0.000 OA
ATOM      8  C   UNL     1      35.370  -4.812  14.892  0.00  0.00    +0.000 A 
ATOM      9  C   UNL     1      36.159  -3.762  14.521  0.00  0.00    +0.000 A 
ENDBRANCH   2   3
BRANCH   2  10
ATOM     10  C   UNL     1      39.341  -2.550  13.884  0.00  0.00    +0.000 A 
ATOM     11  C   UNL     1      39.102  -2.393  12.560  0.00  0.00    +0.000 A 
ATOM     12  C   UNL     1      40.136  -2.561  11.663  0.00  0.00    +0.000 A 
ATOM     13  C   UNL     1      41.404  -2.884  12.082  0.00  0.00    +0.000 A 
ATOM     14  C   UNL     1      41.628  -3.039  13.432  0.00  0.00    +0.000 A 
ATOM     15  C   UNL     1      40.576  -2.870  14.351  0.00  0.00    +0.000 A 
BRANCH  13  16
ATOM     16  O   UNL     1      42.404  -3.039  11.123  0.00  0.00    +0.000 OA
BRANCH  16  17
ATOM     17  C   UNL     1      42.179  -3.732   9.942  0.00  0.00    +0.000 C 
ATOM     18  O   UNL     1      41.919  -4.971  10.086  0.00  0.00    +0.000 OA
BRANCH  17  19
ATOM     19  C   UNL     1      42.222  -3.143   8.596  0.00  0.00    +0.000 C 
ATOM     20  C   UNL     1      40.910  -3.345   7.860  0.00  0.00    +0.000 C 
ATOM     21  C   UNL     1      42.467  -1.630   8.775  0.00  0.00    +0.000 C 
ATOM     22  C   UNL     1      43.317  -3.783   7.764  0.00  0.00    +0.000 C 
ENDBRANCH  17  19
ENDBRANCH  16  17
ENDBRANCH  13  16
ENDBRANCH   2  10
BRANCH   1  23
ATOM     23  C   UNL     1      37.134  -0.908  16.471  0.00  0.00    +0.000 A 
ATOM     24  C   UNL     1      37.481  -1.173  17.815  0.00  0.00    +0.000 A 
ATOM     25  C   UNL     1      36.604  -0.955  18.853  0.00  0.00    +0.000 A 
ATOM     26  C   UNL     1      35.337  -0.465  18.630  0.00  0.00    +0.000 A 
ATOM     27  C   UNL     1      34.975  -0.198  17.329  0.00  0.00    +0.000 A 
ATOM     28  C   UNL     1      35.882  -0.430  16.310  0.00  0.00    +0.000 A 
ENDBRANCH   1  23
BRANCH   1  30
ATOM     29  C   UNL     1      38.401   0.911  14.357  0.00  0.00    +0.000 C 
ATOM     30  C   UNL     1      39.178  -0.148  15.131  0.00  0.00    +0.000 C 
ENDBRANCH   1  30
TORSDOF 7
ENDMDL
MODEL 3
REMARK VINA RESULT:      -6.8      8.237     11.560
REMARK  Name = 
REMARK  7 active torsions:
REMARK  status: ('A' for Active; 'I' for Inactive)
REMARK    1  A    between atoms: C_2  and  C_3
REMARK    2  A    between atoms: C_3  and  C_25
REMARK    3  A    between atoms: C_4  and  C_5
REMARK    4  A    between atoms: C_4  and  C_12
REMARK    5  A    between atoms: C_15  and  O_16
REMARK    6  A    between atoms: O_16  and  C_17
REMARK    7  A    between atoms: C_17  and  C_19
REMARK                            x       y       z     vdW  Elec       q    Type
REMARK                         _______ _______ _______ _____ _____    ______ ____
ROOT
ATOM      1  C   UNL     1      40.206   8.257  19.293  0.00  0.00    +0.000 C 
ATOM      2  C   UNL     1      40.779   7.134  18.941  0.00  0.00    +0.000 C 
ENDROOT
BRANCH   2   3
ATOM      3  C   UNL     1      40.157   6.227  18.007  0.00  0.00    +0.000 A 
ATOM      4  C   UNL     1      39.180   5.379  18.569  0.00  0.00    +0.000 A 
ATOM      5  C   UNL     1      38.471   4.471  17.810  0.00  0.00    +0.000 A 
ATOM      6  C   UNL     1      38.694   4.364  16.469  0.00  0.00    +0.000 A 
ATOM      7  O   UNL     1      38.010   3.472  15.680  0.00  0.00    +0.000 OA
ATOM      8  C   UNL     1      39.652   5.194  15.910  0.00  0.00    +0.000 A 
ATOM      9  C   UNL     1      40.343   6.084  16.680  0.00  0.00    +0.000 A 
ENDBRANCH   2   3
BRANCH   2  10
ATOM     10  C   UNL     1      42.106   6.794  19.525  0.00  0.00    +0.000 A 
ATOM     11  C   UNL     1      43.243   7.055  18.836  0.00  0.00    +0.000 A 
ATOM     12  C   UNL     1      44.460   6.737  19.398  0.00  0.00    +0.000 A 
ATOM     13  C   UNL     1      44.548   6.161  20.643  0.00  0.00    +0.000 A 
ATOM     14  C   UNL     1      43.382   5.903  21.328  0.00  0.00    +0.000 A 
ATOM     15  C   UNL     1      42.136   6.225  20.758  0.00  0.00    +0.000 A 
BRANCH  13  16
ATOM     16  O   UNL     1      45.811   5.866  21.153  0.00  0.00    +0.000 OA
BRANCH  16  17
ATOM     17  C   UNL     1      45.987   4.951  22.181  0.00  0.00    +0.000 C 
ATOM     18  O   UNL     1      45.930   3.727  21.829  0.00  0.00    +0.000 OA
BRANCH  17  19
ATOM     19  C   UNL     1      46.225   5.299  23.589  0.00  0.00    +0.000 C 
ATOM     20  C   UNL     1      47.256   4.381  24.221  0.00  0.00    +0.000 C 
ATOM     21  C   UNL     1      46.765   6.744  23.609  0.00  0.00    +0.000 C 
ATOM     22  C   UNL     1      44.947   5.177  24.396  0.00  0.00    +0.000 C 
ENDBRANCH  17  19
ENDBRANCH  16  17
ENDBRANCH  13  16
ENDBRANCH   2  10
BRANCH   1  23
ATOM     23  C   UNL     1      38.927   8.707  18.817  0.00  0.00    +0.000 A 
ATOM     24  C   UNL     1      37.843   8.539  19.708  0.00  0.00    +0.000 A 
ATOM     25  C   UNL     1      36.557   8.894  19.369  0.00  0.00    +0.000 A 
ATOM     26  C   UNL     1      36.263   9.432  18.136  0.00  0.00    +0.000 A 
ATOM     27  C   UNL     1      37.302   9.606  17.251  0.00  0.00    +0.000 A 
ATOM     28  C   UNL     1      38.583   9.237  17.625  0.00  0.00    +0.000 A 
ENDBRANCH   1  23
BRANCH   1  30
ATOM     29  C   UNL     1      41.395  10.363  19.498  0.00  0.00    +0.000 C 
ATOM     30  C   UNL     1      40.972   9.134  20.295  0.00  0.00    +0.000 C 
ENDBRANCH   1  30
TORSDOF 7
ENDMDL
MODEL 4
REMARK VINA RESULT:      -6.8      6.002      9.460
REMARK  Name = 
REMARK  7 active torsions:
REMARK  status: ('A' for Active; 'I' for Inactive)
REMARK    1  A    between atoms: C_2  and  C_3
REMARK    2  A    between atoms: C_3  and  C_25
REMARK    3  A    between atoms: C_4  and  C_5
REMARK    4  A    between atoms: C_4  and  C_12
REMARK    5  A    between atoms: C_15  and  O_16
REMARK    6  A    between atoms: O_16  and  C_17
REMARK    7  A    between atoms: C_17  and  C_19
REMARK                            x       y       z     vdW  Elec       q    Type
REMARK                         _______ _______ _______ _____ _____    ______ ____
ROOT
ATOM      1  C   UNL     1      39.114   7.901  18.286  0.00  0.00    +0.000 C 
ATOM      2  C   UNL     1      39.866   6.836  18.168  0.00  0.00    +0.000 C 
ENDROOT
BRANCH   2   3
ATOM      3  C   UNL     1      41.051   6.654  18.970  0.00  0.00    +0.000 A 
ATOM      4  C   UNL     1      42.260   6.974  18.319  0.00  0.00    +0.000 A 
ATOM      5  C   UNL     1      43.483   6.881  18.952  0.00  0.00    +0.000 A 
ATOM      6  C   UNL     1      43.562   6.472  20.250  0.00  0.00    +0.000 A 
ATOM      7  O   UNL     1      44.759   6.365  20.914  0.00  0.00    +0.000 OA
ATOM      8  C   UNL     1      42.378   6.156  20.897  0.00  0.00    +0.000 A 
ATOM      9  C   UNL     1      41.180   6.254  20.251  0.00  0.00    +0.000 A 
ENDBRANCH   2   3
BRANCH   2  10
ATOM     10  C   UNL     1      39.480   5.793  17.178  0.00  0.00    +0.000 A 
ATOM     11  C   UNL     1      40.015   5.799  15.934  0.00  0.00    +0.000 A 
ATOM     12  C   UNL     1      39.647   4.820  15.037  0.00  0.00    +0.000 A 
ATOM     13  C   UNL     1      38.748   3.837  15.375  0.00  0.00    +0.000 A 
ATOM     14  C   UNL     1      38.215   3.847  16.644  0.00  0.00    +0.000 A 
ATOM     15  C   UNL     1      38.586   4.845  17.564  0.00  0.00    +0.000 A 
BRANCH  13  16
ATOM     16  O   UNL     1      38.419   2.877  14.419  0.00  0.00    +0.000 OA
BRANCH  16  17
ATOM     17  C   UNL     1      37.213   2.193  14.457  0.00  0.00    +0.000 C 
ATOM     18  O   UNL     1      36.174   2.929  14.405  0.00  0.00    +0.000 OA
BRANCH  17  19
ATOM     19  C   UNL     1      37.074   0.733  14.550  0.00  0.00    +0.000 C 
ATOM     20  C   UNL     1      35.965   0.341  15.511  0.00  0.00    +0.000 C 
ATOM     21  C   UNL     1      36.712   0.225  13.139  0.00  0.00    +0.000 C 
ATOM     22  C   UNL     1      38.358   0.100  15.050  0.00  0.00    +0.000 C 
ENDBRANCH  17  19
ENDBRANCH  16  17
ENDBRANCH  13  16
ENDBRANCH   2  10
BRANCH   1  23
ATOM     23  C   UNL     1      39.371   8.987  19.191  0.00  0.00    +0.000 A 
ATOM     24  C   UNL     1      38.481   9.105  20.284  0.00  0.00    +0.000 A 
ATOM     25  C   UNL     1      38.590  10.119  21.207  0.00  0.00    +0.000 A 
ATOM     26  C   UNL     1      39.577  11.075  21.111  0.00  0.00    +0.000 A 
ATOM     27  C   UNL     1      40.456  10.981  20.056  0.00  0.00    +0.000 A 
ATOM     28  C   UNL     1      40.317   9.948  19.145  0.00  0.00    +0.000 A 
ENDBRANCH   1  23
BRANCH   1  30
ATOM     29  C   UNL     1      38.163   9.134  16.425  0.00  0.00    +0.000 C 
ATOM     30  C   UNL     1      37.880   7.974  17.374  0.00  0.00    +0.000 C 
ENDBRANCH   1  30
TORSDOF 7
ENDMDL
MODEL 5
REMARK VINA RESULT:      -6.8      8.030     11.518
REMARK  Name = 
REMARK  7 active torsions:
REMARK  status: ('A' for Active; 'I' for Inactive)
REMARK    1  A    between atoms: C_2  and  C_3
REMARK    2  A    between atoms: C_3  and  C_25
REMARK    3  A    between atoms: C_4  and  C_5
REMARK    4  A    between atoms: C_4  and  C_12
REMARK    5  A    between atoms: C_15  and  O_16
REMARK    6  A    between atoms: O_16  and  C_17
REMARK    7  A    between atoms: C_17  and  C_19
REMARK                            x       y       z     vdW  Elec       q    Type
REMARK                         _______ _______ _______ _____ _____    ______ ____
ROOT
ATOM      1  C   UNL     1      40.385   8.305  19.464  0.00  0.00    +0.000 C 
ATOM      2  C   UNL     1      40.926   7.167  19.111  0.00  0.00    +0.000 C 
ENDROOT
BRANCH   2   3
ATOM      3  C   UNL     1      40.256   6.257  18.213  0.00  0.00    +0.000 A 
ATOM      4  C   UNL     1      39.305   5.416  18.825  0.00  0.00    +0.000 A 
ATOM      5  C   UNL     1      38.557   4.507  18.106  0.00  0.00    +0.000 A 
ATOM      6  C   UNL     1      38.716   4.392  16.756  0.00  0.00    +0.000 A 
ATOM      7  O   UNL     1      37.992   3.499  16.006  0.00  0.00    +0.000 OA
ATOM      8  C   UNL     1      39.648   5.216  16.147  0.00  0.00    +0.000 A 
ATOM      9  C   UNL     1      40.378   6.108  16.878  0.00  0.00    +0.000 A 
ENDBRANCH   2   3
BRANCH   2  10
ATOM     10  C   UNL     1      42.265   6.812  19.654  0.00  0.00    +0.000 A 
ATOM     11  C   UNL     1      42.379   6.255  20.884  0.00  0.00    +0.000 A 
ATOM     12  C   UNL     1      43.629   5.929  21.364  0.00  0.00    +0.000 A 
ATOM     13  C   UNL     1      44.765   6.156  20.623  0.00  0.00    +0.000 A 
ATOM     14  C   UNL     1      44.629   6.723  19.376  0.00  0.00    +0.000 A 
ATOM     15  C   UNL     1      43.356   7.059  18.882  0.00  0.00    +0.000 A 
BRANCH  13  16
ATOM     16  O   UNL     1      45.998   5.803  21.169  0.00  0.00    +0.000 OA
BRANCH  16  17
ATOM     17  C   UNL     1      46.552   4.547  20.967  0.00  0.00    +0.000 C 
ATOM     18  O   UNL     1      45.925   3.587  21.521  0.00  0.00    +0.000 OA
BRANCH  17  19
ATOM     19  C   UNL     1      47.766   4.277  20.184  0.00  0.00    +0.000 C 
ATOM     20  C   UNL     1      47.769   5.053  18.879  0.00  0.00    +0.000 C 
ATOM     21  C   UNL     1      48.965   4.737  21.040  0.00  0.00    +0.000 C 
ATOM     22  C   UNL     1      47.868   2.804  19.841  0.00  0.00    +0.000 C 
ENDBRANCH  17  19
ENDBRANCH  16  17
ENDBRANCH  13  16
ENDBRANCH   2  10
BRANCH   1  23
ATOM     23  C   UNL     1      39.098   8.770  19.025  0.00  0.00    +0.000 A 
ATOM     24  C   UNL     1      38.016   8.505  19.895  0.00  0.00    +0.000 A 
ATOM     25  C   UNL     1      36.724   8.863  19.584  0.00  0.00    +0.000 A 
ATOM     26  C   UNL     1      36.422   9.503  18.401  0.00  0.00    +0.000 A 
ATOM     27  C   UNL     1      37.459   9.773  17.539  0.00  0.00    +0.000 A 
ATOM     28  C   UNL     1      38.746   9.397  17.883  0.00  0.00    +0.000 A 
ENDBRANCH   1  23
BRANCH   1  30
ATOM     29  C   UNL     1      41.674  10.359  19.579  0.00  0.00    +0.000 C 
ATOM     30  C   UNL     1      41.200   9.183  20.426  0.00  0.00    +0.000 C 
ENDBRANCH   1  30
TORSDOF 7
ENDMDL
MODEL 6
REMARK VINA RESULT:      -6.8      4.358      9.246
REMARK  Name = 
REMARK  7 active torsions:
REMARK  status: ('A' for Active; 'I' for Inactive)
REMARK    1  A    between atoms: C_2  and  C_3
REMARK    2  A    between atoms: C_3  and  C_25
REMARK    3  A    between atoms: C_4  and  C_5
REMARK    4  A    between atoms: C_4  and  C_12
REMARK    5  A    between atoms: C_15  and  O_16
REMARK    6  A    between atoms: O_16  and  C_17
REMARK    7  A    between atoms: C_17  and  C_19
REMARK                            x       y       z     vdW  Elec       q    Type
REMARK                         _______ _______ _______ _____ _____    ______ ____
ROOT
ATOM      1  C   UNL     1      38.085   6.910  16.072  0.00  0.00    +0.000 C 
ATOM      2  C   UNL     1      38.719   5.899  16.609  0.00  0.00    +0.000 C 
ENDROOT
BRANCH   2   3
ATOM      3  C   UNL     1      39.639   6.077  17.705  0.00  0.00    +0.000 A 
ATOM      4  C   UNL     1      40.983   6.265  17.323  0.00  0.00    +0.000 A 
ATOM      5  C   UNL     1      41.987   6.477  18.245  0.00  0.00    +0.000 A 
ATOM      6  C   UNL     1      41.706   6.514  19.579  0.00  0.00    +0.000 A 
ATOM      7  O   UNL     1      42.677   6.722  20.528  0.00  0.00    +0.000 OA
ATOM      8  C   UNL     1      40.388   6.332  19.963  0.00  0.00    +0.000 A 
ATOM      9  C   UNL     1      39.411   6.122  19.033  0.00  0.00    +0.000 A 
ENDBRANCH   2   3
BRANCH   2  10
ATOM     10  C   UNL     1      38.475   4.533  16.068  0.00  0.00    +0.000 A 
ATOM     11  C   UNL     1      39.312   4.005  15.143  0.00  0.00    +0.000 A 
ATOM     12  C   UNL     1      39.071   2.737  14.661  0.00  0.00    +0.000 A 
ATOM     13  C   UNL     1      37.998   1.995  15.096  0.00  0.00    +0.000 A 
ATOM     14  C   UNL     1      37.158   2.549  16.036  0.00  0.00    +0.000 A 
ATOM     15  C   UNL     1      37.400   3.843  16.531  0.00  0.00    +0.000 A 
BRANCH  13  16
ATOM     16  O   UNL     1      37.812   0.719  14.566  0.00  0.00    +0.000 OA
BRANCH  16  17
ATOM     17  C   UNL     1      38.406  -0.400  15.133  0.00  0.00    +0.000 C 
ATOM     18  O   UNL     1      38.013  -0.678  16.313  0.00  0.00    +0.000 OA
BRANCH  17  19
ATOM     19  C   UNL     1      39.415  -1.243  14.477  0.00  0.00    +0.000 C 
ATOM     20  C   UNL     1      40.697  -0.474  14.217  0.00  0.00    +0.000 C 
ATOM     21  C   UNL     1      39.720  -2.410  15.440  0.00  0.00    +0.000 C 
ATOM     22  C   UNL     1      38.906  -1.750  13.142  0.00  0.00    +0.000 C 
ENDBRANCH  17  19
ENDBRANCH  16  17
ENDBRANCH  13  16
ENDBRANCH   2  10
BRANCH   1  23
ATOM     23  C   UNL     1      38.229   8.278  16.487  0.00  0.00    +0.000 A 
ATOM     24  C   UNL     1      37.220   8.775  17.343  0.00  0.00    +0.000 A 
ATOM     25  C   UNL     1      37.215  10.077  17.788  0.00  0.00    +0.000 A 
ATOM     26  C   UNL     1      38.201  10.965  17.418  0.00  0.00    +0.000 A 
ATOM     27  C   UNL     1      39.196  10.505  16.586  0.00  0.00    +0.000 A 
ATOM     28  C   UNL     1      39.169   9.190  16.156  0.00  0.00    +0.000 A 
ENDBRANCH   1  23
BRANCH   1  30
ATOM     29  C   UNL     1      37.830   7.130  13.668  0.00  0.00    +0.000 C 
ATOM     30  C   UNL     1      37.133   6.586  14.911  0.00  0.00    +0.000 C 
ENDBRANCH   1  30
TORSDOF 7
ENDMDL
MODEL 7
REMARK VINA RESULT:      -6.8      2.623      7.855
REMARK  Name = 
REMARK  7 active torsions:
REMARK  status: ('A' for Active; 'I' for Inactive)
REMARK    1  A    between atoms: C_2  and  C_3
REMARK    2  A    between atoms: C_3  and  C_25
REMARK    3  A    between atoms: C_4  and  C_5
REMARK    4  A    between atoms: C_4  and  C_12
REMARK    5  A    between atoms: C_15  and  O_16
REMARK    6  A    between atoms: O_16  and  C_17
REMARK    7  A    between atoms: C_17  and  C_19
REMARK                            x       y       z     vdW  Elec       q    Type
REMARK                         _______ _______ _______ _____ _____    ______ ____
ROOT
ATOM      1  C   UNL     1      38.256  -1.943  16.097  0.00  0.00    +0.000 C 
ATOM      2  C   UNL     1      38.660  -1.332  15.011  0.00  0.00    +0.000 C 
ENDROOT
BRANCH   2   3
ATOM      3  C   UNL     1      38.018  -0.130  14.536  0.00  0.00    +0.000 A 
ATOM      4  C   UNL     1      38.621   1.070  14.964  0.00  0.00    +0.000 A 
ATOM      5  C   UNL     1      38.150   2.308  14.579  0.00  0.00    +0.000 A 
ATOM      6  C   UNL     1      37.068   2.412  13.756  0.00  0.00    +0.000 A 
ATOM      7  O   UNL     1      36.567   3.625  13.351  0.00  0.00    +0.000 OA
ATOM      8  C   UNL     1      36.470   1.237  13.330  0.00  0.00    +0.000 A 
ATOM      9  C   UNL     1      36.952   0.023  13.725  0.00  0.00    +0.000 A 
ENDBRANCH   2   3
BRANCH   2  10
ATOM     10  C   UNL     1      39.811  -1.899  14.257  0.00  0.00    +0.000 A 
ATOM     11  C   UNL     1      41.079  -1.679  14.679  0.00  0.00    +0.000 A 
ATOM     12  C   UNL     1      42.130  -2.219  13.968  0.00  0.00    +0.000 A 
ATOM     13  C   UNL     1      41.920  -2.977  12.841  0.00  0.00    +0.000 A 
ATOM     14  C   UNL     1      40.624  -3.190  12.428  0.00  0.00    +0.000 A 
ATOM     15  C   UNL     1      39.549  -2.640  13.149  0.00  0.00    +0.000 A 
BRANCH  13  16
ATOM     16  O   UNL     1      43.028  -3.493  12.170  0.00  0.00    +0.000 OA
BRANCH  16  17
ATOM     17  C   UNL     1      43.401  -3.031  10.916  0.00  0.00    +0.000 C 
ATOM     18  O   UNL     1      44.051  -1.935  10.918  0.00  0.00    +0.000 OA
BRANCH  17  19
ATOM     19  C   UNL     1      43.102  -3.705   9.644  0.00  0.00    +0.000 C 
ATOM     20  C   UNL     1      42.640  -5.134   9.869  0.00  0.00    +0.000 C 
ATOM     21  C   UNL     1      41.963  -2.912   8.972  0.00  0.00    +0.000 C 
ATOM     22  C   UNL     1      44.334  -3.756   8.761  0.00  0.00    +0.000 C 
ENDBRANCH  17  19
ENDBRANCH  16  17
ENDBRANCH  13  16
ENDBRANCH   2  10
BRANCH   1  23
ATOM     23  C   UNL     1      37.156  -1.514  16.915  0.00  0.00    +0.000 A 
ATOM     24  C   UNL     1      37.488  -1.080  18.219  0.00  0.00    +0.000 A 
ATOM     25  C   UNL     1      36.531  -0.675  19.120  0.00  0.00    +0.000 A 
ATOM     26  C   UNL     1      35.193  -0.673  18.793  0.00  0.00    +0.000 A 
ATOM     27  C   UNL     1      34.844  -1.090  17.529  0.00  0.00    +0.000 A 
ATOM     28  C   UNL     1      35.833  -1.492  16.648  0.00  0.00    +0.000 A 
ENDBRANCH   1  23
BRANCH   1  30
ATOM     29  C   UNL     1      37.980  -4.325  16.472  0.00  0.00    +0.000 C 
ATOM     30  C   UNL     1      39.023  -3.212  16.495  0.00  0.00    +0.000 C 
ENDBRANCH   1  30
TORSDOF 7
ENDMDL
MODEL 8
REMARK VINA RESULT:      -6.8      1.500      2.105
REMARK  Name = 
REMARK  7 active torsions:
REMARK  status: ('A' for Active; 'I' for Inactive)
REMARK    1  A    between atoms: C_2  and  C_3
REMARK    2  A    between atoms: C_3  and  C_25
REMARK    3  A    between atoms: C_4  and  C_5
REMARK    4  A    between atoms: C_4  and  C_12
REMARK    5  A    between atoms: C_15  and  O_16
REMARK    6  A    between atoms: O_16  and  C_17
REMARK    7  A    between atoms: C_17  and  C_19
REMARK                            x       y       z     vdW  Elec       q    Type
REMARK                         _______ _______ _______ _____ _____    ______ ____
ROOT
ATOM      1  C   UNL     1      37.720  -0.930  15.808  0.00  0.00    +0.000 C 
ATOM      2  C   UNL     1      38.440  -0.471  14.817  0.00  0.00    +0.000 C 
ENDROOT
BRANCH   2   3
ATOM      3  C   UNL     1      39.379  -1.309  14.111  0.00  0.00    +0.000 A 
ATOM      4  C   UNL     1      38.923  -1.787  12.866  0.00  0.00    +0.000 A 
ATOM      5  C   UNL     1      39.706  -2.578  12.051  0.00  0.00    +0.000 A 
ATOM      6  C   UNL     1      40.968  -2.929  12.430  0.00  0.00    +0.000 A 
ATOM      7  O   UNL     1      41.777  -3.716  11.649  0.00  0.00    +0.000 OA
ATOM      8  C   UNL     1      41.423  -2.462  13.653  0.00  0.00    +0.000 A 
ATOM      9  C   UNL     1      40.631  -1.681  14.443  0.00  0.00    +0.000 A 
ENDBRANCH   2   3
BRANCH   2  10
ATOM     10  C   UNL     1      38.278   0.953  14.414  0.00  0.00    +0.000 A 
ATOM     11  C   UNL     1      39.237   1.862  14.713  0.00  0.00    +0.000 A 
ATOM     12  C   UNL     1      39.068   3.174  14.325  0.00  0.00    +0.000 A 
ATOM     13  C   UNL     1      37.948   3.582  13.642  0.00  0.00    +0.000 A 
ATOM     14  C   UNL     1      36.984   2.644  13.347  0.00  0.00    +0.000 A 
ATOM     15  C   UNL     1      37.151   1.304  13.741  0.00  0.00    +0.000 A 
BRANCH  13  16
ATOM     16  O   UNL     1      37.841   4.924  13.280  0.00  0.00    +0.000 OA
BRANCH  16  17
ATOM     17  C   UNL     1      36.991   5.794  13.948  0.00  0.00    +0.000 C 
ATOM     18  O   UNL     1      37.360   6.105  15.128  0.00  0.00    +0.000 OA
BRANCH  17  19
ATOM     19  C   UNL     1      35.749   6.352  13.396  0.00  0.00    +0.000 C 
ATOM     20  C   UNL     1      35.671   7.853  13.610  0.00  0.00    +0.000 C 
ATOM     21  C   UNL     1      35.762   6.064  11.880  0.00  0.00    +0.000 C 
ATOM     22  C   UNL     1      34.537   5.731  14.064  0.00  0.00    +0.000 C 
ENDBRANCH  17  19
ENDBRANCH  16  17
ENDBRANCH  13  16
ENDBRANCH   2  10
BRANCH   1  23
ATOM     23  C   UNL     1      37.779  -2.276  16.307  0.00  0.00    +0.000 A 
ATOM     24  C   UNL     1      38.536  -2.466  17.486  0.00  0.00    +0.000 A 
ATOM     25  C   UNL     1      38.706  -3.707  18.054  0.00  0.00    +0.000 A 
ATOM     26  C   UNL     1      38.142  -4.834  17.496  0.00  0.00    +0.000 A 
ATOM     27  C   UNL     1      37.400  -4.676  16.348  0.00  0.00    +0.000 A 
ATOM     28  C   UNL     1      37.251  -3.412  15.804  0.00  0.00    +0.000 A 
ENDBRANCH   1  23
BRANCH   1  30
ATOM     29  C   UNL     1      35.388  -0.600  16.397  0.00  0.00    +0.000 C 
ATOM     30  C   UNL     1      36.758   0.064  16.477  0.00  0.00    +0.000 C 
ENDBRANCH   1  30
TORSDOF 7
ENDMDL
MODEL 9
REMARK VINA RESULT:      -6.6     21.840     24.050
REMARK  Name = 
REMARK  7 active torsions:
REMARK  status: ('A' for Active; 'I' for Inactive)
REMARK    1  A    between atoms: C_2  and  C_3
REMARK    2  A    between atoms: C_3  and  C_25
REMARK    3  A    between atoms: C_4  and  C_5
REMARK    4  A    between atoms: C_4  and  C_12
REMARK    5  A    between atoms: C_15  and  O_16
REMARK    6  A    between atoms: O_16  and  C_17
REMARK    7  A    between atoms: C_17  and  C_19
REMARK                            x       y       z     vdW  Elec       q    Type
REMARK                         _______ _______ _______ _____ _____    ______ ____
ROOT
ATOM      1  C   UNL     1      14.030  -2.123   7.382  0.00  0.00    +0.000 C 
ATOM      2  C   UNL     1      14.867  -2.681   6.544  0.00  0.00    +0.000 C 
ENDROOT
BRANCH   2   3
ATOM      3  C   UNL     1      15.166  -4.091   6.599  0.00  0.00    +0.000 A 
ATOM      4  C   UNL     1      14.524  -4.870   5.614  0.00  0.00    +0.000 A 
ATOM      5  C   UNL     1      14.722  -6.231   5.509  0.00  0.00    +0.000 A 
ATOM      6  C   UNL     1      15.560  -6.878   6.368  0.00  0.00    +0.000 A 
ATOM      7  O   UNL     1      15.783  -8.231   6.297  0.00  0.00    +0.000 OA
ATOM      8  C   UNL     1      16.196  -6.120   7.338  0.00  0.00    +0.000 A 
ATOM      9  C   UNL     1      15.985  -4.774   7.424  0.00  0.00    +0.000 A 
ENDBRANCH   2   3
BRANCH   2  10
ATOM     10  C   UNL     1      15.518  -1.830   5.511  0.00  0.00    +0.000 A 
ATOM     11  C   UNL     1      16.807  -1.440   5.659  0.00  0.00    +0.000 A 
ATOM     12  C   UNL     1      17.391  -0.658   4.687  0.00  0.00    +0.000 A 
ATOM     13  C   UNL     1      16.696  -0.263   3.569  0.00  0.00    +0.000 A 
ATOM     14  C   UNL     1      15.387  -0.668   3.435  0.00  0.00    +0.000 A 
ATOM     15  C   UNL     1      14.786  -1.467   4.425  0.00  0.00    +0.000 A 
BRANCH  13  16
ATOM     16  O   UNL     1      17.347   0.529   2.624  0.00  0.00    +0.000 OA
BRANCH  16  17
ATOM     17  C   UNL     1      18.219  -0.016   1.692  0.00  0.00    +0.000 C 
ATOM     18  O   UNL     1      17.659  -0.591   0.703  0.00  0.00    +0.000 OA
BRANCH  17  19
ATOM     19  C   UNL     1      19.685   0.033   1.779  0.00  0.00    +0.000 C 
ATOM     20  C   UNL     1      20.145   0.962   2.888  0.00  0.00    +0.000 C 
ATOM     21  C   UNL     1      20.164  -1.399   2.098  0.00  0.00    +0.000 C 
ATOM     22  C   UNL     1      20.284   0.537   0.481  0.00  0.00    +0.000 C 
ENDBRANCH  17  19
ENDBRANCH  16  17
ENDBRANCH  13  16
ENDBRANCH   2  10
BRANCH   1  23
ATOM     23  C   UNL     1      13.339  -2.819   8.432  0.00  0.00    +0.000 A 
ATOM     24  C   UNL     1      13.847  -2.632   9.738  0.00  0.00    +0.000 A 
ATOM     25  C   UNL     1      13.304  -3.266  10.831  0.00  0.00    +0.000 A 
ATOM     26  C   UNL     1      12.230  -4.119  10.705  0.00  0.00    +0.000 A 
ATOM     27  C   UNL     1      11.716  -4.317   9.445  0.00  0.00    +0.000 A 
ATOM     28  C   UNL     1      12.288  -3.664   8.366  0.00  0.00    +0.000 A 
ENDBRANCH   1  23
BRANCH   1  30
ATOM     29  C   UNL     1      12.294  -0.468   7.013  0.00  0.00    +0.000 C 
ATOM     30  C   UNL     1      13.798  -0.614   7.218  0.00  0.00    +0.000 C 
ENDBRANCH   1  30
TORSDOF 7
ENDMDL
MODEL 10
REMARK VINA RESULT:      -6.5     22.237     24.555
REMARK  Name = 
REMARK  7 active torsions:
REMARK  status: ('A' for Active; 'I' for Inactive)
REMARK    1  A    between atoms: C_2  and  C_3
REMARK    2  A    between atoms: C_3  and  C_25
REMARK    3  A    between atoms: C_4  and  C_5
REMARK    4  A    between atoms: C_4  and  C_12
REMARK    5  A    between atoms: C_15  and  O_16
REMARK    6  A    between atoms: O_16  and  C_17
REMARK    7  A    between atoms: C_17  and  C_19
REMARK                            x       y       z     vdW  Elec       q    Type
REMARK                         _______ _______ _______ _____ _____    ______ ____
ROOT
ATOM      1  C   UNL     1      13.842  -3.737   5.312  0.00  0.00    +0.000 C 
ATOM      2  C   UNL     1      14.631  -3.173   6.192  0.00  0.00    +0.000 C 
ENDROOT
BRANCH   2   3
ATOM      3  C   UNL     1      14.385  -3.283   7.609  0.00  0.00    +0.000 A 
ATOM      4  C   UNL     1      15.127  -4.290   8.260  0.00  0.00    +0.000 A 
ATOM      5  C   UNL     1      15.031  -4.512   9.619  0.00  0.00    +0.000 A 
ATOM      6  C   UNL     1      14.203  -3.750  10.388  0.00  0.00    +0.000 A 
ATOM      7  O   UNL     1      14.078  -3.940  11.743  0.00  0.00    +0.000 OA
ATOM      8  C   UNL     1      13.471  -2.758   9.756  0.00  0.00    +0.000 A 
ATOM      9  C   UNL     1      13.580  -2.557   8.411  0.00  0.00    +0.000 A 
ENDBRANCH   2   3
BRANCH   2  10
ATOM     10  C   UNL     1      15.808  -2.402   5.707  0.00  0.00    +0.000 A 
ATOM     11  C   UNL     1      16.905  -3.048   5.243  0.00  0.00    +0.000 A 
ATOM     12  C   UNL     1      17.981  -2.314   4.794  0.00  0.00    +0.000 A 
ATOM     13  C   UNL     1      17.968  -0.939   4.805  0.00  0.00    +0.000 A 
ATOM     14  C   UNL     1      16.845  -0.300   5.281  0.00  0.00    +0.000 A 
ATOM     15  C   UNL     1      15.744  -1.045   5.742  0.00  0.00    +0.000 A 
BRANCH  13  16
ATOM     16  O   UNL     1      19.090  -0.259   4.337  0.00  0.00    +0.000 OA
BRANCH  16  17
ATOM     17  C   UNL     1      19.092   0.386   3.108  0.00  0.00    +0.000 C 
ATOM     18  O   UNL     1      18.659   1.585   3.129  0.00  0.00    +0.000 OA
BRANCH  17  19
ATOM     19  C   UNL     1      19.545  -0.209   1.843  0.00  0.00    +0.000 C 
ATOM     20  C   UNL     1      18.404  -0.890   1.110  0.00  0.00    +0.000 C 
ATOM     21  C   UNL     1      20.080   0.945   0.970  0.00  0.00    +0.000 C 
ATOM     22  C   UNL     1      20.616  -1.252   2.093  0.00  0.00    +0.000 C 
ENDBRANCH  17  19
ENDBRANCH  16  17
ENDBRANCH  13  16
ENDBRANCH   2  10
BRANCH   1  23
ATOM     23  C   UNL     1      12.669  -4.500   5.636  0.00  0.00    +0.000 A 
ATOM     24  C   UNL     1      11.433  -3.832   5.477  0.00  0.00    +0.000 A 
ATOM     25  C   UNL     1      10.234  -4.432   5.784  0.00  0.00    +0.000 A 
ATOM     26  C   UNL     1      10.179  -5.722   6.264  0.00  0.00    +0.000 A 
ATOM     27  C   UNL     1      11.369  -6.394   6.427  0.00  0.00    +0.000 A 
ATOM     28  C   UNL     1      12.557  -5.759   6.109  0.00  0.00    +0.000 A 
ENDBRANCH   1  23
BRANCH   1  30
ATOM     29  C   UNL     1      14.318  -4.955   3.268  0.00  0.00    +0.000 C 
ATOM     30  C   UNL     1      14.214  -3.543   3.834  0.00  0.00    +0.000 C 
ENDBRANCH   1  30
TORSDOF 7
ENDMDL
