MODEL 1
REMARK VINA RESULT:      -6.6      0.000      0.000
REMARK  Name = 
REMARK  1 active torsions:
REMARK  status: ('A' for Active; 'I' for Inactive)
REMARK    1  A    between atoms: C_4  and  C_5
REMARK                            x       y       z     vdW  Elec       q    Type
REMARK                         _______ _______ _______ _____ _____    ______ ____
ROOT
ATOM      1  N   UNL     1      18.501  -4.581  26.466  0.00  0.00    +0.000 NA
ATOM      2  C   UNL     1      19.188  -5.839  26.313  0.00  0.00    +0.000 A 
ATOM      3  N   UNL     1      20.267  -5.943  25.515  0.00  0.00    +0.000 NA
ATOM      4  C   UNL     1      20.923  -7.112  25.360  0.00  0.00    +0.000 A 
ATOM      5  C   UNL     1      20.403  -8.186  26.080  0.00  0.00    +0.000 A 
ATOM      6  C   UNL     1      19.302  -8.089  26.897  0.00  0.00    +0.000 A 
ATOM      7  N   UNL     1      18.854  -9.239  27.585  0.00  0.00    +0.000 N 
ATOM      8  C   UNL     1      19.561 -10.482  27.411  0.00  0.00    +0.000 C 
ATOM      9  C   UNL     1      18.582 -11.463  26.776  0.00  0.00    +0.000 C 
ATOM     10  C   UNL     1      17.173 -10.917  26.776  0.00  0.00    +0.000 C 
ATOM     11  C   UNL     1      16.795 -10.328  28.125  0.00  0.00    +0.000 C 
ATOM     12  C   UNL     1      17.702  -9.158  28.445  0.00  0.00    +0.000 C 
ATOM     13  N   UNL     1      18.705  -6.889  26.998  0.00  0.00    +0.000 NA
ENDROOT
BRANCH   4  14
ATOM     14  C   UNL     1      22.079  -7.264  24.516  0.00  0.00    +0.000 A 
ATOM     15  C   UNL     1      23.158  -6.448  24.704  0.00  0.00    +0.000 A 
ATOM     16  C   UNL     1      24.304  -6.528  23.937  0.00  0.00    +0.000 A 
ATOM     17  C   UNL     1      24.332  -7.487  22.946  0.00  0.00    +0.000 A 
ATOM     18  C   UNL     1      23.257  -8.340  22.717  0.00  0.00    +0.000 A 
ATOM     19  C   UNL     1      22.119  -8.209  23.530  0.00  0.00    +0.000 A 
ENDBRANCH   4  14
TORSDOF 1
ENDMDL
MODEL 2
REMARK VINA RESULT:      -6.5     31.620     32.336
REMARK  Name = 
REMARK  1 active torsions:
REMARK  status: ('A' for Active; 'I' for Inactive)
REMARK    1  A    between atoms: C_4  and  C_5
REMARK                            x       y       z     vdW  Elec       q    Type
REMARK                         _______ _______ _______ _____ _____    ______ ____
ROOT
ATOM      1  N   UNL     1      26.099  22.256  30.532  0.00  0.00    +0.000 NA
ATOM      2  C   UNL     1      27.373  22.448  29.885  0.00  0.00    +0.000 A 
ATOM      3  N   UNL     1      27.461  22.526  28.545  0.00  0.00    +0.000 NA
ATOM      4  C   UNL     1      28.645  22.706  27.921  0.00  0.00    +0.000 A 
ATOM      5  C   UNL     1      29.751  22.803  28.763  0.00  0.00    +0.000 A 
ATOM      6  C   UNL     1      29.671  22.725  30.133  0.00  0.00    +0.000 A 
ATOM      7  N   UNL     1      30.854  22.836  30.897  0.00  0.00    +0.000 N 
ATOM      8  C   UNL     1      32.112  23.027  30.223  0.00  0.00    +0.000 C 
ATOM      9  C   UNL     1      32.975  21.811  30.542  0.00  0.00    +0.000 C 
ATOM     10  C   UNL     1      32.355  20.962  31.628  0.00  0.00    +0.000 C 
ATOM     11  C   UNL     1      31.875  21.804  32.798  0.00  0.00    +0.000 C 
ATOM     12  C   UNL     1      30.791  22.756  32.334  0.00  0.00    +0.000 C 
ATOM     13  N   UNL     1      28.455  22.545  30.676  0.00  0.00    +0.000 NA
ENDROOT
BRANCH   4  14
ATOM     14  C   UNL     1      28.780  22.794  26.491  0.00  0.00    +0.000 A 
ATOM     15  C   UNL     1      29.986  22.518  25.913  0.00  0.00    +0.000 A 
ATOM     16  C   UNL     1      30.198  22.580  24.550  0.00  0.00    +0.000 A 
ATOM     17  C   UNL     1      29.124  22.937  23.761  0.00  0.00    +0.000 A 
ATOM     18  C   UNL     1      27.876  23.227  24.305  0.00  0.00    +0.000 A 
ATOM     19  C   UNL     1      27.724  23.147  25.699  0.00  0.00    +0.000 A 
ENDBRANCH   4  14
TORSDOF 1
ENDMDL
MODEL 3
REMARK VINA RESULT:      -6.4     20.793     22.671
REMARK  Name = 
REMARK  1 active torsions:
REMARK  status: ('A' for Active; 'I' for Inactive)
REMARK    1  A    between atoms: C_4  and  C_5
REMARK                            x       y       z     vdW  Elec       q    Type
REMARK                         _______ _______ _______ _____ _____    ______ ____
ROOT
ATOM      1  N   UNL     1      18.529   7.228  40.559  0.00  0.00    +0.000 NA
ATOM      2  C   UNL     1      18.857   8.348  39.712  0.00  0.00    +0.000 A 
ATOM      3  N   UNL     1      17.887   9.106  39.167  0.00  0.00    +0.000 NA
ATOM      4  C   UNL     1      18.174  10.159  38.372  0.00  0.00    +0.000 A 
ATOM      5  C   UNL     1      19.532  10.395  38.165  0.00  0.00    +0.000 A 
ATOM      6  C   UNL     1      20.528   9.626  38.718  0.00  0.00    +0.000 A 
ATOM      7  N   UNL     1      21.876   9.950  38.445  0.00  0.00    +0.000 N 
ATOM      8  C   UNL     1      22.172  11.074  37.595  0.00  0.00    +0.000 C 
ATOM      9  C   UNL     1      22.894  10.525  36.369  0.00  0.00    +0.000 C 
ATOM     10  C   UNL     1      23.281   9.077  36.558  0.00  0.00    +0.000 C 
ATOM     11  C   UNL     1      23.925   8.836  37.913  0.00  0.00    +0.000 C 
ATOM     12  C   UNL     1      22.935   9.156  39.014  0.00  0.00    +0.000 C 
ATOM     13  N   UNL     1      20.159   8.596  39.498  0.00  0.00    +0.000 NA
ENDROOT
BRANCH   4  14
ATOM     14  C   UNL     1      17.167  10.992  37.770  0.00  0.00    +0.000 A 
ATOM     15  C   UNL     1      15.849  10.745  38.030  0.00  0.00    +0.000 A 
ATOM     16  C   UNL     1      14.823  11.497  37.492  0.00  0.00    +0.000 A 
ATOM     17  C   UNL     1      15.175  12.540  36.661  0.00  0.00    +0.000 A 
ATOM     18  C   UNL     1      16.504  12.829  36.367  0.00  0.00    +0.000 A 
ATOM     19  C   UNL     1      17.503  12.028  36.944  0.00  0.00    +0.000 A 
ENDBRANCH   4  14
TORSDOF 1
ENDMDL
MODEL 4
REMARK VINA RESULT:      -6.4     21.016     22.415
REMARK  Name = 
REMARK  1 active torsions:
REMARK  status: ('A' for Active; 'I' for Inactive)
REMARK    1  A    between atoms: C_4  and  C_5
REMARK                            x       y       z     vdW  Elec       q    Type
REMARK                         _______ _______ _______ _____ _____    ______ ____
ROOT
ATOM      1  N   UNL     1      19.824  10.147  41.614  0.00  0.00    +0.000 NA
ATOM      2  C   UNL     1      19.869  10.269  40.178  0.00  0.00    +0.000 A 
ATOM      3  N   UNL     1      21.046  10.305  39.525  0.00  0.00    +0.000 NA
ATOM      4  C   UNL     1      21.107  10.419  38.182  0.00  0.00    +0.000 A 
ATOM      5  C   UNL     1      19.876  10.495  37.534  0.00  0.00    +0.000 A 
ATOM      6  C   UNL     1      18.669  10.458  38.192  0.00  0.00    +0.000 A 
ATOM      7  N   UNL     1      17.476  10.543  37.442  0.00  0.00    +0.000 N 
ATOM      8  C   UNL     1      17.553  10.664  36.008  0.00  0.00    +0.000 C 
ATOM      9  C   UNL     1      16.930  12.008  35.644  0.00  0.00    +0.000 C 
ATOM     10  C   UNL     1      16.227  12.631  36.828  0.00  0.00    +0.000 C 
ATOM     11  C   UNL     1      15.347  11.628  37.556  0.00  0.00    +0.000 C 
ATOM     12  C   UNL     1      16.202  10.507  38.112  0.00  0.00    +0.000 C 
ATOM     13  N   UNL     1      18.694  10.344  39.531  0.00  0.00    +0.000 NA
ENDROOT
BRANCH   4  14
ATOM     14  C   UNL     1      22.345  10.461  37.448  0.00  0.00    +0.000 A 
ATOM     15  C   UNL     1      23.234  11.470  37.690  0.00  0.00    +0.000 A 
ATOM     16  C   UNL     1      24.442  11.582  37.030  0.00  0.00    +0.000 A 
ATOM     17  C   UNL     1      24.738  10.616  36.090  0.00  0.00    +0.000 A 
ATOM     18  C   UNL     1      23.864   9.570  35.810  0.00  0.00    +0.000 A 
ATOM     19  C   UNL     1      22.650   9.511  36.515  0.00  0.00    +0.000 A 
ENDBRANCH   4  14
TORSDOF 1
ENDMDL
MODEL 5
REMARK VINA RESULT:      -6.3      3.035      5.344
REMARK  Name = 
REMARK  1 active torsions:
REMARK  status: ('A' for Active; 'I' for Inactive)
REMARK    1  A    between atoms: C_4  and  C_5
REMARK                            x       y       z     vdW  Elec       q    Type
REMARK                         _______ _______ _______ _____ _____    ______ ____
ROOT
ATOM      1  N   UNL     1      17.537 -11.447  29.405  0.00  0.00    +0.000 NA
ATOM      2  C   UNL     1      17.107 -10.503  28.404  0.00  0.00    +0.000 A 
ATOM      3  N   UNL     1      17.894  -9.470  28.048  0.00  0.00    +0.000 NA
ATOM      4  C   UNL     1      17.508  -8.576  27.113  0.00  0.00    +0.000 A 
ATOM      5  C   UNL     1      16.252  -8.803  26.555  0.00  0.00    +0.000 A 
ATOM      6  C   UNL     1      15.443  -9.855  26.911  0.00  0.00    +0.000 A 
ATOM      7  N   UNL     1      14.185  -9.997  26.284  0.00  0.00    +0.000 N 
ATOM      8  C   UNL     1      13.783  -9.037  25.288  0.00  0.00    +0.000 C 
ATOM      9  C   UNL     1      12.539  -8.338  25.824  0.00  0.00    +0.000 C 
ATOM     10  C   UNL     1      12.001  -9.031  27.054  0.00  0.00    +0.000 C 
ATOM     11  C   UNL     1      11.930 -10.538  26.868  0.00  0.00    +0.000 C 
ATOM     12  C   UNL     1      13.322 -11.092  26.645  0.00  0.00    +0.000 C 
ATOM     13  N   UNL     1      15.899 -10.701  27.851  0.00  0.00    +0.000 NA
ENDROOT
BRANCH   4  14
ATOM     14  C   UNL     1      18.320  -7.459  26.707  0.00  0.00    +0.000 A 
ATOM     15  C   UNL     1      17.933  -6.192  27.040  0.00  0.00    +0.000 A 
ATOM     16  C   UNL     1      18.655  -5.068  26.687  0.00  0.00    +0.000 A 
ATOM     17  C   UNL     1      19.816  -5.266  25.969  0.00  0.00    +0.000 A 
ATOM     18  C   UNL     1      20.250  -6.537  25.607  0.00  0.00    +0.000 A 
ATOM     19  C   UNL     1      19.472  -7.641  25.994  0.00  0.00    +0.000 A 
ENDBRANCH   4  14
TORSDOF 1
ENDMDL
MODEL 6
REMARK VINA RESULT:      -6.2     20.972     21.748
REMARK  Name = 
REMARK  1 active torsions:
REMARK  status: ('A' for Active; 'I' for Inactive)
REMARK    1  A    between atoms: C_4  and  C_5
REMARK                            x       y       z     vdW  Elec       q    Type
REMARK                         _______ _______ _______ _____ _____    ______ ____
ROOT
ATOM      1  N   UNL     1      17.117  10.252  35.579  0.00  0.00    +0.000 NA
ATOM      2  C   UNL     1      17.976  10.033  36.717  0.00  0.00    +0.000 A 
ATOM      3  N   UNL     1      19.312   9.966  36.569  0.00  0.00    +0.000 NA
ATOM      4  C   UNL     1      20.132   9.762  37.622  0.00  0.00    +0.000 A 
ATOM      5  C   UNL     1      19.495   9.628  38.854  0.00  0.00    +0.000 A 
ATOM      6  C   UNL     1      18.131   9.695  39.015  0.00  0.00    +0.000 A 
ATOM      7  N   UNL     1      17.584   9.547  40.308  0.00  0.00    +0.000 N 
ATOM      8  C   UNL     1      18.468   9.328  41.425  0.00  0.00    +0.000 C 
ATOM      9  C   UNL     1      18.127   7.956  41.997  0.00  0.00    +0.000 C 
ATOM     10  C   UNL     1      16.853   7.407  41.397  0.00  0.00    +0.000 C 
ATOM     11  C   UNL     1      15.746   8.448  41.373  0.00  0.00    +0.000 C 
ATOM     12  C   UNL     1      16.158   9.613  40.497  0.00  0.00    +0.000 C 
ATOM     13  N   UNL     1      17.385   9.901  37.916  0.00  0.00    +0.000 NA
ENDROOT
BRANCH   4  14
ATOM     14  C   UNL     1      21.564   9.683  37.505  0.00  0.00    +0.000 A 
ATOM     15  C   UNL     1      22.151   9.914  36.293  0.00  0.00    +0.000 A 
ATOM     16  C   UNL     1      23.517   9.857  36.097  0.00  0.00    +0.000 A 
ATOM     17  C   UNL     1      24.299   9.555  37.193  0.00  0.00    +0.000 A 
ATOM     18  C   UNL     1      23.745   9.313  38.446  0.00  0.00    +0.000 A 
ATOM     19  C   UNL     1      22.349   9.384  38.582  0.00  0.00    +0.000 A 
ENDBRANCH   4  14
TORSDOF 1
ENDMDL
MODEL 7
REMARK VINA RESULT:      -6.1     14.215     16.265
REMARK  Name = 
REMARK  1 active torsions:
REMARK  status: ('A' for Active; 'I' for Inactive)
REMARK    1  A    between atoms: C_4  and  C_5
REMARK                            x       y       z     vdW  Elec       q    Type
REMARK                         _______ _______ _______ _____ _____    ______ ____
ROOT
ATOM      1  N   UNL     1      32.719  -4.505  37.069  0.00  0.00    +0.000 NA
ATOM      2  C   UNL     1      32.987  -4.063  35.723  0.00  0.00    +0.000 A 
ATOM      3  N   UNL     1      33.100  -2.753  35.437  0.00  0.00    +0.000 NA
ATOM      4  C   UNL     1      33.350  -2.320  34.183  0.00  0.00    +0.000 A 
ATOM      5  C   UNL     1      33.481  -3.322  33.224  0.00  0.00    +0.000 A 
ATOM      6  C   UNL     1      33.368  -4.662  33.506  0.00  0.00    +0.000 A 
ATOM      7  N   UNL     1      33.518  -5.599  32.460  0.00  0.00    +0.000 N 
ATOM      8  C   UNL     1      33.785  -5.127  31.125  0.00  0.00    +0.000 C 
ATOM      9  C   UNL     1      32.604  -5.556  30.260  0.00  0.00    +0.000 C 
ATOM     10  C   UNL     1      31.702  -6.522  30.994  0.00  0.00    +0.000 C 
ATOM     11  C   UNL     1      32.494  -7.618  31.688  0.00  0.00    +0.000 C 
ATOM     12  C   UNL     1      33.402  -7.008  32.736  0.00  0.00    +0.000 C 
ATOM     13  N   UNL     1      33.118  -5.011  34.780  0.00  0.00    +0.000 NA
ENDROOT
BRANCH   4  14
ATOM     14  C   UNL     1      33.477  -0.928  33.838  0.00  0.00    +0.000 A 
ATOM     15  C   UNL     1      32.871   0.014  34.619  0.00  0.00    +0.000 A 
ATOM     16  C   UNL     1      32.944   1.368  34.356  0.00  0.00    +0.000 A 
ATOM     17  C   UNL     1      33.670   1.756  33.249  0.00  0.00    +0.000 A 
ATOM     18  C   UNL     1      34.304   0.832  32.425  0.00  0.00    +0.000 A 
ATOM     19  C   UNL     1      34.193  -0.531  32.744  0.00  0.00    +0.000 A 
ENDBRANCH   4  14
TORSDOF 1
ENDMDL
MODEL 8
REMARK VINA RESULT:      -6.1     14.798     16.932
REMARK  Name = 
REMARK  1 active torsions:
REMARK  status: ('A' for Active; 'I' for Inactive)
REMARK    1  A    between atoms: C_4  and  C_5
REMARK                            x       y       z     vdW  Elec       q    Type
REMARK                         _______ _______ _______ _____ _____    ______ ____
ROOT
ATOM      1  N   UNL     1      37.631  -7.108  34.510  0.00  0.00    +0.000 NA
ATOM      2  C   UNL     1      36.525  -6.440  33.870  0.00  0.00    +0.000 A 
ATOM      3  N   UNL     1      36.172  -6.745  32.607  0.00  0.00    +0.000 NA
ATOM      4  C   UNL     1      35.140  -6.130  31.992  0.00  0.00    +0.000 A 
ATOM      5  C   UNL     1      34.479  -5.171  32.756  0.00  0.00    +0.000 A 
ATOM      6  C   UNL     1      34.831  -4.853  34.046  0.00  0.00    +0.000 A 
ATOM      7  N   UNL     1      34.095  -3.864  34.735  0.00  0.00    +0.000 N 
ATOM      8  C   UNL     1      32.995  -3.214  34.069  0.00  0.00    +0.000 C 
ATOM      9  C   UNL     1      33.352  -1.735  33.967  0.00  0.00    +0.000 C 
ATOM     10  C   UNL     1      34.572  -1.401  34.795  0.00  0.00    +0.000 C 
ATOM     11  C   UNL     1      34.493  -2.006  36.187  0.00  0.00    +0.000 C 
ATOM     12  C   UNL     1      34.449  -3.517  36.087  0.00  0.00    +0.000 C 
ATOM     13  N   UNL     1      35.871  -5.511  34.586  0.00  0.00    +0.000 NA
ENDROOT
BRANCH   4  14
ATOM     14  C   UNL     1      34.733  -6.428  30.644  0.00  0.00    +0.000 A 
ATOM     15  C   UNL     1      35.061  -7.636  30.095  0.00  0.00    +0.000 A 
ATOM     16  C   UNL     1      34.710  -7.997  28.810  0.00  0.00    +0.000 A 
ATOM     17  C   UNL     1      33.993  -7.079  28.071  0.00  0.00    +0.000 A 
ATOM     18  C   UNL     1      33.636  -5.837  28.587  0.00  0.00    +0.000 A 
ATOM     19  C   UNL     1      34.024  -5.527  29.901  0.00  0.00    +0.000 A 
ENDBRANCH   4  14
TORSDOF 1
ENDMDL
MODEL 9
REMARK VINA RESULT:      -5.9     31.817     33.450
REMARK  Name = 
REMARK  1 active torsions:
REMARK  status: ('A' for Active; 'I' for Inactive)
REMARK    1  A    between atoms: C_4  and  C_5
REMARK                            x       y       z     vdW  Elec       q    Type
REMARK                         _______ _______ _______ _____ _____    ______ ____
ROOT
ATOM      1  N   UNL     1      23.750  26.521  25.008  0.00  0.00    +0.000 NA
ATOM      2  C   UNL     1      24.849  25.627  25.274  0.00  0.00    +0.000 A 
ATOM      3  N   UNL     1      25.070  25.156  26.515  0.00  0.00    +0.000 NA
ATOM      4  C   UNL     1      26.095  24.319  26.783  0.00  0.00    +0.000 A 
ATOM      5  C   UNL     1      26.892  23.986  25.689  0.00  0.00    +0.000 A 
ATOM      6  C   UNL     1      26.673  24.461  24.418  0.00  0.00    +0.000 A 
ATOM      7  N   UNL     1      27.541  24.063  23.377  0.00  0.00    +0.000 N 
ATOM      8  C   UNL     1      28.631  23.169  23.673  0.00  0.00    +0.000 C 
ATOM      9  C   UNL     1      29.919  23.927  23.371  0.00  0.00    +0.000 C 
ATOM     10  C   UNL     1      29.642  25.222  22.641  0.00  0.00    +0.000 C 
ATOM     11  C   UNL     1      28.661  25.026  21.496  0.00  0.00    +0.000 C 
ATOM     12  C   UNL     1      27.329  24.551  22.039  0.00  0.00    +0.000 C 
ATOM     13  N   UNL     1      25.632  25.291  24.235  0.00  0.00    +0.000 NA
ENDROOT
BRANCH   4  14
ATOM     14  C   UNL     1      26.365  23.794  28.096  0.00  0.00    +0.000 A 
ATOM     15  C   UNL     1      25.852  24.431  29.190  0.00  0.00    +0.000 A 
ATOM     16  C   UNL     1      26.065  23.993  30.483  0.00  0.00    +0.000 A 
ATOM     17  C   UNL     1      26.831  22.857  30.644  0.00  0.00    +0.000 A 
ATOM     18  C   UNL     1      27.373  22.175  29.559  0.00  0.00    +0.000 A 
ATOM     19  C   UNL     1      27.122  22.670  28.269  0.00  0.00    +0.000 A 
ENDBRANCH   4  14
TORSDOF 1
ENDMDL
MODEL 10
REMARK VINA RESULT:      -5.9     13.878     15.872
REMARK  Name = 
REMARK  1 active torsions:
REMARK  status: ('A' for Active; 'I' for Inactive)
REMARK    1  A    between atoms: C_4  and  C_5
REMARK                            x       y       z     vdW  Elec       q    Type
REMARK                         _______ _______ _______ _____ _____    ______ ____
ROOT
ATOM      1  N   UNL     1      31.929  -7.476  35.363  0.00  0.00    +0.000 NA
ATOM      2  C   UNL     1      32.491  -6.530  34.431  0.00  0.00    +0.000 A 
ATOM      3  N   UNL     1      32.465  -5.209  34.690  0.00  0.00    +0.000 NA
ATOM      4  C   UNL     1      32.986  -4.309  33.830  0.00  0.00    +0.000 A 
ATOM      5  C   UNL     1      33.543  -4.846  32.671  0.00  0.00    +0.000 A 
ATOM      6  C   UNL     1      33.575  -6.193  32.399  0.00  0.00    +0.000 A 
ATOM      7  N   UNL     1      34.164  -6.636  31.195  0.00  0.00    +0.000 N 
ATOM      8  C   UNL     1      34.717  -5.667  30.283  0.00  0.00    +0.000 C 
ATOM      9  C   UNL     1      33.915  -5.769  28.990  0.00  0.00    +0.000 C 
ATOM     10  C   UNL     1      33.012  -6.981  28.992  0.00  0.00    +0.000 C 
ATOM     11  C   UNL     1      33.743  -8.229  29.460  0.00  0.00    +0.000 C 
ATOM     12  C   UNL     1      34.206  -8.044  30.891  0.00  0.00    +0.000 C 
ATOM     13  N   UNL     1      33.035  -7.024  33.307  0.00  0.00    +0.000 NA
ENDROOT
BRANCH   4  14
ATOM     14  C   UNL     1      32.977  -2.889  34.070  0.00  0.00    +0.000 A 
ATOM     15  C   UNL     1      32.146  -2.376  35.025  0.00  0.00    +0.000 A 
ATOM     16  C   UNL     1      32.078  -1.028  35.315  0.00  0.00    +0.000 A 
ATOM     17  C   UNL     1      32.898  -0.186  34.594  0.00  0.00    +0.000 A 
ATOM     18  C   UNL     1      33.761  -0.663  33.612  0.00  0.00    +0.000 A 
ATOM     19  C   UNL     1      33.785  -2.045  33.362  0.00  0.00    +0.000 A 
ENDBRANCH   4  14
TORSDOF 1
ENDMDL
