MODEL 1
REMARK VINA RESULT:      -6.2      0.000      0.000
REMARK  Name = 
REMARK  4 active torsions:
REMARK  status: ('A' for Active; 'I' for Inactive)
REMARK    1  A    between atoms: O_2  and  C_3
REMARK    2  A    between atoms: C_6  and  C_7
REMARK    3  A    between atoms: N_9  and  C_10
REMARK    4  A    between atoms: C_19  and  N_20
REMARK                            x       y       z     vdW  Elec       q    Type
REMARK                         _______ _______ _______ _____ _____    ______ ____
ROOT
ATOM      1  C   UNL     1      29.052  22.522  30.429  0.00  0.00    +0.000 A 
ATOM      2  C   UNL     1      30.233  22.567  29.705  0.00  0.00    +0.000 A 
ATOM      3  C   UNL     1      30.203  22.763  28.321  0.00  0.00    +0.000 A 
ATOM      4  C   UNL     1      29.001  22.914  27.673  0.00  0.00    +0.000 A 
ATOM      5  C   UNL     1      27.848  22.865  28.419  0.00  0.00    +0.000 A 
ATOM      6  C   UNL     1      27.838  22.673  29.785  0.00  0.00    +0.000 A 
ENDROOT
BRANCH   4   7
ATOM      7  C   UNL     1      28.902  23.123  26.240  0.00  0.00    +0.000 C 
ATOM      8  O   UNL     1      29.415  22.301  25.441  0.00  0.00    +0.000 OA
ATOM      9  N   UNL     1      28.238  24.240  25.661  0.00  0.00    +0.000 NA
BRANCH   9  10
ATOM     10  C   UNL     1      28.153  24.426  24.254  0.00  0.00    +0.000 A 
ATOM     11  C   UNL     1      29.128  25.127  23.565  0.00  0.00    +0.000 A 
ATOM     12  C   UNL     1      30.261  25.679  24.334  0.00  0.00    +0.000 C 
ATOM     13  C   UNL     1      29.056  25.314  22.191  0.00  0.00    +0.000 A 
ATOM     14  C   UNL     1      27.996  24.796  21.480  0.00  0.00    +0.000 A 
ATOM     15  C   UNL     1      27.020  24.099  22.138  0.00  0.00    +0.000 A 
ATOM     16  C   UNL     1      27.105  23.921  23.513  0.00  0.00    +0.000 A 
ATOM     17  C   UNL     1      26.058  23.166  24.262  0.00  0.00    +0.000 C 
ENDBRANCH   9  10
ENDBRANCH   4   7
BRANCH   6  18
ATOM     18  N   UNL     1      26.602  22.636  30.476  0.00  0.00    +0.000 N 
ATOM     19  O   UNL     1      26.007  21.574  30.728  0.00  0.00    +0.000 OA
ATOM     20  O   UNL     1      26.030  23.817  30.890  0.00  0.00    +0.000 OA
ENDBRANCH   6  18
BRANCH   1  22
ATOM     21  C   UNL     1      30.194  21.861  32.430  0.00  0.00    +0.000 C 
ATOM     22  O   UNL     1      29.015  22.330  31.800  0.00  0.00    +0.000 OA
ENDBRANCH   1  22
TORSDOF 4
ENDMDL
MODEL 2
REMARK VINA RESULT:      -6.1      2.322      3.033
REMARK  Name = 
REMARK  4 active torsions:
REMARK  status: ('A' for Active; 'I' for Inactive)
REMARK    1  A    between atoms: O_2  and  C_3
REMARK    2  A    between atoms: C_6  and  C_7
REMARK    3  A    between atoms: N_9  and  C_10
REMARK    4  A    between atoms: C_19  and  N_20
REMARK                            x       y       z     vdW  Elec       q    Type
REMARK                         _______ _______ _______ _____ _____    ______ ____
ROOT
ATOM      1  C   UNL     1      25.872  24.614  30.298  0.00  0.00    +0.000 A 
ATOM      2  C   UNL     1      25.564  25.723  29.527  0.00  0.00    +0.000 A 
ATOM      3  C   UNL     1      25.773  25.700  28.145  0.00  0.00    +0.000 A 
ATOM      4  C   UNL     1      26.285  24.574  27.545  0.00  0.00    +0.000 A 
ATOM      5  C   UNL     1      26.580  23.491  28.337  0.00  0.00    +0.000 A 
ATOM      6  C   UNL     1      26.388  23.477  29.703  0.00  0.00    +0.000 A 
ENDROOT
BRANCH   4   7
ATOM      7  C   UNL     1      26.524  24.486  26.116  0.00  0.00    +0.000 C 
ATOM      8  O   UNL     1      25.726  23.857  25.376  0.00  0.00    +0.000 OA
ATOM      9  N   UNL     1      27.643  25.086  25.476  0.00  0.00    +0.000 NA
BRANCH   9  10
ATOM     10  C   UNL     1      27.858  24.988  24.074  0.00  0.00    +0.000 A 
ATOM     11  C   UNL     1      28.590  23.944  23.534  0.00  0.00    +0.000 A 
ATOM     12  C   UNL     1      29.144  22.933  24.458  0.00  0.00    +0.000 C 
ATOM     13  C   UNL     1      28.805  23.836  22.167  0.00  0.00    +0.000 A 
ATOM     14  C   UNL     1      28.285  24.782  21.311  0.00  0.00    +0.000 A 
ATOM     15  C   UNL     1      27.558  25.823  21.820  0.00  0.00    +0.000 A 
ATOM     16  C   UNL     1      27.352  25.918  23.190  0.00  0.00    +0.000 A 
ATOM     17  C   UNL     1      26.563  27.040  23.779  0.00  0.00    +0.000 C 
ENDBRANCH   9  10
ENDBRANCH   4   7
BRANCH   6  18
ATOM     18  N   UNL     1      26.719  22.316  30.443  0.00  0.00    +0.000 N 
ATOM     19  O   UNL     1      27.891  22.011  30.724  0.00  0.00    +0.000 OA
ATOM     20  O   UNL     1      25.710  21.485  30.875  0.00  0.00    +0.000 OA
ENDBRANCH   6  18
BRANCH   1  22
ATOM     21  C   UNL     1      26.492  25.427  32.466  0.00  0.00    +0.000 C 
ATOM     22  O   UNL     1      25.688  24.574  31.671  0.00  0.00    +0.000 OA
ENDBRANCH   1  22
TORSDOF 4
ENDMDL
MODEL 3
REMARK VINA RESULT:      -5.9     20.931     22.536
REMARK  Name = 
REMARK  4 active torsions:
REMARK  status: ('A' for Active; 'I' for Inactive)
REMARK    1  A    between atoms: O_2  and  C_3
REMARK    2  A    between atoms: C_6  and  C_7
REMARK    3  A    between atoms: N_9  and  C_10
REMARK    4  A    between atoms: C_19  and  N_20
REMARK                            x       y       z     vdW  Elec       q    Type
REMARK                         _______ _______ _______ _____ _____    ______ ____
ROOT
ATOM      1  C   UNL     1      21.887   2.461  17.283  0.00  0.00    +0.000 A 
ATOM      2  C   UNL     1      22.554   3.088  18.323  0.00  0.00    +0.000 A 
ATOM      3  C   UNL     1      23.752   3.768  18.082  0.00  0.00    +0.000 A 
ATOM      4  C   UNL     1      24.273   3.817  16.811  0.00  0.00    +0.000 A 
ATOM      5  C   UNL     1      23.588   3.186  15.801  0.00  0.00    +0.000 A 
ATOM      6  C   UNL     1      22.404   2.506  16.000  0.00  0.00    +0.000 A 
ENDROOT
BRANCH   4   7
ATOM      7  C   UNL     1      25.510   4.508  16.496  0.00  0.00    +0.000 C 
ATOM      8  O   UNL     1      26.493   3.873  16.039  0.00  0.00    +0.000 OA
ATOM      9  N   UNL     1      25.687   5.908  16.677  0.00  0.00    +0.000 NA
BRANCH   9  10
ATOM     10  C   UNL     1      26.908   6.564  16.361  0.00  0.00    +0.000 A 
ATOM     11  C   UNL     1      27.920   6.683  17.298  0.00  0.00    +0.000 A 
ATOM     12  C   UNL     1      27.695   6.107  18.640  0.00  0.00    +0.000 C 
ATOM     13  C   UNL     1      29.117   7.321  17.001  0.00  0.00    +0.000 A 
ATOM     14  C   UNL     1      29.320   7.855  15.749  0.00  0.00    +0.000 A 
ATOM     15  C   UNL     1      28.335   7.751  14.804  0.00  0.00    +0.000 A 
ATOM     16  C   UNL     1      27.143   7.110  15.117  0.00  0.00    +0.000 A 
ATOM     17  C   UNL     1      26.048   6.979  14.111  0.00  0.00    +0.000 C 
ENDBRANCH   9  10
ENDBRANCH   4   7
BRANCH   6  18
ATOM     18  N   UNL     1      21.763   1.883  14.902  0.00  0.00    +0.000 N 
ATOM     19  O   UNL     1      22.025   0.721  14.544  0.00  0.00    +0.000 OA
ATOM     20  O   UNL     1      20.812   2.583  14.196  0.00  0.00    +0.000 OA
ENDBRANCH   6  18
BRANCH   1  22
ATOM     21  C   UNL     1      19.563   2.514  17.866  0.00  0.00    +0.000 C 
ATOM     22  O   UNL     1      20.698   1.772  17.455  0.00  0.00    +0.000 OA
ENDBRANCH   1  22
TORSDOF 4
ENDMDL
MODEL 4
REMARK VINA RESULT:      -5.7     31.921     32.881
REMARK  Name = 
REMARK  4 active torsions:
REMARK  status: ('A' for Active; 'I' for Inactive)
REMARK    1  A    between atoms: O_2  and  C_3
REMARK    2  A    between atoms: C_6  and  C_7
REMARK    3  A    between atoms: N_9  and  C_10
REMARK    4  A    between atoms: C_19  and  N_20
REMARK                            x       y       z     vdW  Elec       q    Type
REMARK                         _______ _______ _______ _____ _____    ______ ____
ROOT
ATOM      1  C   UNL     1      18.729  -8.680  27.665  0.00  0.00    +0.000 A 
ATOM      2  C   UNL     1      19.795  -9.549  27.830  0.00  0.00    +0.000 A 
ATOM      3  C   UNL     1      20.844  -9.560  26.905  0.00  0.00    +0.000 A 
ATOM      4  C   UNL     1      20.820  -8.707  25.827  0.00  0.00    +0.000 A 
ATOM      5  C   UNL     1      19.749  -7.857  25.692  0.00  0.00    +0.000 A 
ATOM      6  C   UNL     1      18.697  -7.818  26.583  0.00  0.00    +0.000 A 
ENDROOT
BRANCH   4   7
ATOM      7  C   UNL     1      21.878  -8.668  24.834  0.00  0.00    +0.000 C 
ATOM      8  O   UNL     1      21.600  -8.561  23.613  0.00  0.00    +0.000 OA
ATOM      9  N   UNL     1      23.259  -8.745  25.165  0.00  0.00    +0.000 NA
BRANCH   9  10
ATOM     10  C   UNL     1      24.279  -8.704  24.175  0.00  0.00    +0.000 A 
ATOM     11  C   UNL     1      24.787  -9.868  23.623  0.00  0.00    +0.000 A 
ATOM     12  C   UNL     1      24.238 -11.157  24.093  0.00  0.00    +0.000 C 
ATOM     13  C   UNL     1      25.782  -9.841  22.656  0.00  0.00    +0.000 A 
ATOM     14  C   UNL     1      26.289  -8.637  22.222  0.00  0.00    +0.000 A 
ATOM     15  C   UNL     1      25.804  -7.472  22.752  0.00  0.00    +0.000 A 
ATOM     16  C   UNL     1      24.809  -7.515  23.720  0.00  0.00    +0.000 A 
ATOM     17  C   UNL     1      24.256  -6.265  24.319  0.00  0.00    +0.000 C 
ENDBRANCH   9  10
ENDBRANCH   4   7
BRANCH   6  18
ATOM     18  N   UNL     1      17.632  -6.910  26.368  0.00  0.00    +0.000 N 
ATOM     19  O   UNL     1      16.554  -7.251  25.850  0.00  0.00    +0.000 OA
ATOM     20  O   UNL     1      17.786  -5.595  26.742  0.00  0.00    +0.000 OA
ENDBRANCH   6  18
BRANCH   1  22
ATOM     21  C   UNL     1      17.352  -9.790  29.282  0.00  0.00    +0.000 C 
ATOM     22  O   UNL     1      17.661  -8.621  28.545  0.00  0.00    +0.000 OA
ENDBRANCH   1  22
TORSDOF 4
ENDMDL
MODEL 5
REMARK VINA RESULT:      -5.7      2.307      7.116
REMARK  Name = 
REMARK  4 active torsions:
REMARK  status: ('A' for Active; 'I' for Inactive)
REMARK    1  A    between atoms: O_2  and  C_3
REMARK    2  A    between atoms: C_6  and  C_7
REMARK    3  A    between atoms: N_9  and  C_10
REMARK    4  A    between atoms: C_19  and  N_20
REMARK                            x       y       z     vdW  Elec       q    Type
REMARK                         _______ _______ _______ _____ _____    ______ ____
ROOT
ATOM      1  C   UNL     1      28.519  23.433  23.267  0.00  0.00    +0.000 A 
ATOM      2  C   UNL     1      29.817  23.250  23.717  0.00  0.00    +0.000 A 
ATOM      3  C   UNL     1      30.062  22.960  25.063  0.00  0.00    +0.000 A 
ATOM      4  C   UNL     1      29.014  22.855  25.946  0.00  0.00    +0.000 A 
ATOM      5  C   UNL     1      27.739  23.042  25.469  0.00  0.00    +0.000 A 
ATOM      6  C   UNL     1      27.459  23.329  24.149  0.00  0.00    +0.000 A 
ENDROOT
BRANCH   4   7
ATOM      7  C   UNL     1      29.201  22.555  27.353  0.00  0.00    +0.000 C 
ATOM      8  O   UNL     1      28.489  21.687  27.918  0.00  0.00    +0.000 OA
ATOM      9  N   UNL     1      30.173  23.203  28.165  0.00  0.00    +0.000 NA
BRANCH   9  10
ATOM     10  C   UNL     1      30.340  22.893  29.542  0.00  0.00    +0.000 A 
ATOM     11  C   UNL     1      31.338  22.033  29.965  0.00  0.00    +0.000 A 
ATOM     12  C   UNL     1      32.228  21.445  28.944  0.00  0.00    +0.000 C 
ATOM     13  C   UNL     1      31.512  21.723  31.308  0.00  0.00    +0.000 A 
ATOM     14  C   UNL     1      30.679  22.276  32.256  0.00  0.00    +0.000 A 
ATOM     15  C   UNL     1      29.684  23.129  31.862  0.00  0.00    +0.000 A 
ATOM     16  C   UNL     1      29.523  23.429  30.515  0.00  0.00    +0.000 A 
ATOM     17  C   UNL     1      28.448  24.355  30.051  0.00  0.00    +0.000 C 
ENDBRANCH   9  10
ENDBRANCH   4   7
BRANCH   6  18
ATOM     18  N   UNL     1      26.114  23.506  23.743  0.00  0.00    +0.000 N 
ATOM     19  O   UNL     1      25.587  22.819  22.850  0.00  0.00    +0.000 OA
ATOM     20  O   UNL     1      25.351  24.475  24.354  0.00  0.00    +0.000 OA
ENDBRANCH   6  18
BRANCH   1  22
ATOM     21  C   UNL     1      28.730  24.921  21.400  0.00  0.00    +0.000 C 
ATOM     22  O   UNL     1      28.212  23.722  21.948  0.00  0.00    +0.000 OA
ENDBRANCH   1  22
TORSDOF 4
ENDMDL
MODEL 6
REMARK VINA RESULT:      -5.7     26.634     28.810
REMARK  Name = 
REMARK  4 active torsions:
REMARK  status: ('A' for Active; 'I' for Inactive)
REMARK    1  A    between atoms: O_2  and  C_3
REMARK    2  A    between atoms: C_6  and  C_7
REMARK    3  A    between atoms: N_9  and  C_10
REMARK    4  A    between atoms: C_19  and  N_20
REMARK                            x       y       z     vdW  Elec       q    Type
REMARK                         _______ _______ _______ _____ _____    ______ ____
ROOT
ATOM      1  C   UNL     1      34.345  -1.660  35.325  0.00  0.00    +0.000 A 
ATOM      2  C   UNL     1      34.598  -2.922  35.839  0.00  0.00    +0.000 A 
ATOM      3  C   UNL     1      34.339  -4.060  35.069  0.00  0.00    +0.000 A 
ATOM      4  C   UNL     1      33.833  -3.931  33.798  0.00  0.00    +0.000 A 
ATOM      5  C   UNL     1      33.594  -2.666  33.317  0.00  0.00    +0.000 A 
ATOM      6  C   UNL     1      33.836  -1.521  34.047  0.00  0.00    +0.000 A 
ENDROOT
BRANCH   4   7
ATOM      7  C   UNL     1      33.545  -5.071  32.948  0.00  0.00    +0.000 C 
ATOM      8  O   UNL     1      34.041  -6.196  33.204  0.00  0.00    +0.000 OA
ATOM      9  N   UNL     1      32.706  -4.995  31.801  0.00  0.00    +0.000 NA
BRANCH   9  10
ATOM     10  C   UNL     1      32.436  -6.125  30.982  0.00  0.00    +0.000 A 
ATOM     11  C   UNL     1      33.200  -6.392  29.859  0.00  0.00    +0.000 A 
ATOM     12  C   UNL     1      34.305  -5.468  29.533  0.00  0.00    +0.000 C 
ATOM     13  C   UNL     1      32.947  -7.494  29.052  0.00  0.00    +0.000 A 
ATOM     14  C   UNL     1      31.915  -8.352  29.361  0.00  0.00    +0.000 A 
ATOM     15  C   UNL     1      31.146  -8.109  30.466  0.00  0.00    +0.000 A 
ATOM     16  C   UNL     1      31.411  -7.003  31.264  0.00  0.00    +0.000 A 
ATOM     17  C   UNL     1      30.592  -6.709  32.477  0.00  0.00    +0.000 C 
ENDBRANCH   9  10
ENDBRANCH   4   7
BRANCH   6  18
ATOM     18  N   UNL     1      33.561  -0.255  33.474  0.00  0.00    +0.000 N 
ATOM     19  O   UNL     1      34.304   0.274  32.630  0.00  0.00    +0.000 OA
ATOM     20  O   UNL     1      32.428   0.424  33.860  0.00  0.00    +0.000 OA
ENDBRANCH   6  18
BRANCH   1  22
ATOM     21  C   UNL     1      35.679  -0.482  36.931  0.00  0.00    +0.000 C 
ATOM     22  O   UNL     1      34.580  -0.495  36.037  0.00  0.00    +0.000 OA
ENDBRANCH   1  22
TORSDOF 4
ENDMDL
MODEL 7
REMARK VINA RESULT:      -5.6      2.464      3.643
REMARK  Name = 
REMARK  4 active torsions:
REMARK  status: ('A' for Active; 'I' for Inactive)
REMARK    1  A    between atoms: O_2  and  C_3
REMARK    2  A    between atoms: C_6  and  C_7
REMARK    3  A    between atoms: N_9  and  C_10
REMARK    4  A    between atoms: C_19  and  N_20
REMARK                            x       y       z     vdW  Elec       q    Type
REMARK                         _______ _______ _______ _____ _____    ______ ____
ROOT
ATOM      1  C   UNL     1      30.698  22.280  30.944  0.00  0.00    +0.000 A 
ATOM      2  C   UNL     1      29.337  22.438  30.736  0.00  0.00    +0.000 A 
ATOM      3  C   UNL     1      28.860  22.864  29.493  0.00  0.00    +0.000 A 
ATOM      4  C   UNL     1      29.740  23.128  28.471  0.00  0.00    +0.000 A 
ATOM      5  C   UNL     1      31.083  22.963  28.709  0.00  0.00    +0.000 A 
ATOM      6  C   UNL     1      31.591  22.544  29.921  0.00  0.00    +0.000 A 
ENDROOT
BRANCH   4   7
ATOM      7  C   UNL     1      29.309  23.572  27.158  0.00  0.00    +0.000 C 
ATOM      8  O   UNL     1      29.139  24.794  26.924  0.00  0.00    +0.000 OA
ATOM      9  N   UNL     1      29.057  22.679  26.080  0.00  0.00    +0.000 NA
BRANCH   9  10
ATOM     10  C   UNL     1      28.635  23.135  24.801  0.00  0.00    +0.000 A 
ATOM     11  C   UNL     1      27.291  23.230  24.483  0.00  0.00    +0.000 A 
ATOM     12  C   UNL     1      26.304  22.843  25.512  0.00  0.00    +0.000 C 
ATOM     13  C   UNL     1      26.867  23.675  23.238  0.00  0.00    +0.000 A 
ATOM     14  C   UNL     1      27.791  24.034  22.283  0.00  0.00    +0.000 A 
ATOM     15  C   UNL     1      29.126  23.948  22.573  0.00  0.00    +0.000 A 
ATOM     16  C   UNL     1      29.535  23.501  23.823  0.00  0.00    +0.000 A 
ATOM     17  C   UNL     1      30.982  23.396  24.172  0.00  0.00    +0.000 C 
ENDBRANCH   9  10
ENDBRANCH   4   7
BRANCH   6  18
ATOM     18  N   UNL     1      32.991  22.399  30.080  0.00  0.00    +0.000 N 
ATOM     19  O   UNL     1      33.583  21.328  29.864  0.00  0.00    +0.000 OA
ATOM     20  O   UNL     1      33.735  23.482  30.490  0.00  0.00    +0.000 OA
ENDBRANCH   6  18
BRANCH   1  22
ATOM     21  C   UNL     1      30.330  21.474  33.171  0.00  0.00    +0.000 C 
ATOM     22  O   UNL     1      31.233  21.862  32.151  0.00  0.00    +0.000 OA
ENDBRANCH   1  22
TORSDOF 4
ENDMDL
MODEL 8
REMARK VINA RESULT:      -5.6     24.774     27.502
REMARK  Name = 
REMARK  4 active torsions:
REMARK  status: ('A' for Active; 'I' for Inactive)
REMARK    1  A    between atoms: O_2  and  C_3
REMARK    2  A    between atoms: C_6  and  C_7
REMARK    3  A    between atoms: N_9  and  C_10
REMARK    4  A    between atoms: C_19  and  N_20
REMARK                            x       y       z     vdW  Elec       q    Type
REMARK                         _______ _______ _______ _____ _____    ______ ____
ROOT
ATOM      1  C   UNL     1      32.974  -5.647  33.798  0.00  0.00    +0.000 A 
ATOM      2  C   UNL     1      32.429  -5.217  34.998  0.00  0.00    +0.000 A 
ATOM      3  C   UNL     1      32.383  -3.853  35.301  0.00  0.00    +0.000 A 
ATOM      4  C   UNL     1      32.877  -2.932  34.408  0.00  0.00    +0.000 A 
ATOM      5  C   UNL     1      33.410  -3.390  33.228  0.00  0.00    +0.000 A 
ATOM      6  C   UNL     1      33.474  -4.727  32.894  0.00  0.00    +0.000 A 
ENDROOT
BRANCH   4   7
ATOM      7  C   UNL     1      32.857  -1.504  34.662  0.00  0.00    +0.000 C 
ATOM      8  O   UNL     1      31.771  -0.914  34.892  0.00  0.00    +0.000 OA
ATOM      9  N   UNL     1      34.029  -0.698  34.669  0.00  0.00    +0.000 NA
BRANCH   9  10
ATOM     10  C   UNL     1      33.986   0.701  34.920  0.00  0.00    +0.000 A 
ATOM     11  C   UNL     1      34.046   1.197  36.212  0.00  0.00    +0.000 A 
ATOM     12  C   UNL     1      34.155   0.231  37.323  0.00  0.00    +0.000 C 
ATOM     13  C   UNL     1      34.006   2.561  36.470  0.00  0.00    +0.000 A 
ATOM     14  C   UNL     1      33.904   3.457  35.429  0.00  0.00    +0.000 A 
ATOM     15  C   UNL     1      33.843   2.991  34.144  0.00  0.00    +0.000 A 
ATOM     16  C   UNL     1      33.884   1.624  33.901  0.00  0.00    +0.000 A 
ATOM     17  C   UNL     1      33.820   1.082  32.512  0.00  0.00    +0.000 C 
ENDBRANCH   9  10
ENDBRANCH   4   7
BRANCH   6  18
ATOM     18  N   UNL     1      34.040  -5.112  31.655  0.00  0.00    +0.000 N 
ATOM     19  O   UNL     1      33.427  -5.013  30.578  0.00  0.00    +0.000 OA
ATOM     20  O   UNL     1      35.320  -5.618  31.630  0.00  0.00    +0.000 OA
ENDBRANCH   6  18
BRANCH   1  22
ATOM     21  C   UNL     1      31.851  -7.623  33.036  0.00  0.00    +0.000 C 
ATOM     22  O   UNL     1      33.049  -6.983  33.439  0.00  0.00    +0.000 OA
ENDBRANCH   1  22
TORSDOF 4
ENDMDL
MODEL 9
REMARK VINA RESULT:      -5.5      4.832      9.602
REMARK  Name = 
REMARK  4 active torsions:
REMARK  status: ('A' for Active; 'I' for Inactive)
REMARK    1  A    between atoms: O_2  and  C_3
REMARK    2  A    between atoms: C_6  and  C_7
REMARK    3  A    between atoms: N_9  and  C_10
REMARK    4  A    between atoms: C_19  and  N_20
REMARK                            x       y       z     vdW  Elec       q    Type
REMARK                         _______ _______ _______ _____ _____    ______ ____
ROOT
ATOM      1  C   UNL     1      28.833  28.281  19.123  0.00  0.00    +0.000 A 
ATOM      2  C   UNL     1      28.034  28.294  20.255  0.00  0.00    +0.000 A 
ATOM      3  C   UNL     1      28.164  27.289  21.219  0.00  0.00    +0.000 A 
ATOM      4  C   UNL     1      29.086  26.284  21.047  0.00  0.00    +0.000 A 
ATOM      5  C   UNL     1      29.863  26.300  19.914  0.00  0.00    +0.000 A 
ATOM      6  C   UNL     1      29.764  27.273  18.942  0.00  0.00    +0.000 A 
ENDROOT
BRANCH   4   7
ATOM      7  C   UNL     1      29.271  25.215  22.011  0.00  0.00    +0.000 C 
ATOM      8  O   UNL     1      29.509  24.044  21.623  0.00  0.00    +0.000 OA
ATOM      9  N   UNL     1      29.197  25.415  23.418  0.00  0.00    +0.000 NA
BRANCH   9  10
ATOM     10  C   UNL     1      29.382  24.352  24.345  0.00  0.00    +0.000 A 
ATOM     11  C   UNL     1      28.316  23.574  24.762  0.00  0.00    +0.000 A 
ATOM     12  C   UNL     1      26.977  23.879  24.216  0.00  0.00    +0.000 C 
ATOM     13  C   UNL     1      28.484  22.533  25.666  0.00  0.00    +0.000 A 
ATOM     14  C   UNL     1      29.734  22.254  26.171  0.00  0.00    +0.000 A 
ATOM     15  C   UNL     1      30.804  23.010  25.773  0.00  0.00    +0.000 A 
ATOM     16  C   UNL     1      30.620  24.047  24.869  0.00  0.00    +0.000 A 
ATOM     17  C   UNL     1      31.765  24.891  24.415  0.00  0.00    +0.000 C 
ENDBRANCH   9  10
ENDBRANCH   4   7
BRANCH   6  18
ATOM     18  N   UNL     1      30.604  27.213  17.804  0.00  0.00    +0.000 N 
ATOM     19  O   UNL     1      30.176  26.953  16.667  0.00  0.00    +0.000 OA
ATOM     20  O   UNL     1      31.952  27.451  17.953  0.00  0.00    +0.000 OA
ENDBRANCH   6  18
BRANCH   1  22
ATOM     21  C   UNL     1      27.591  29.260  17.322  0.00  0.00    +0.000 C 
ATOM     22  O   UNL     1      28.753  29.246  18.133  0.00  0.00    +0.000 OA
ENDBRANCH   1  22
TORSDOF 4
ENDMDL
MODEL 10
REMARK VINA RESULT:      -5.5     26.996     29.249
REMARK  Name = 
REMARK  4 active torsions:
REMARK  status: ('A' for Active; 'I' for Inactive)
REMARK    1  A    between atoms: O_2  and  C_3
REMARK    2  A    between atoms: C_6  and  C_7
REMARK    3  A    between atoms: N_9  and  C_10
REMARK    4  A    between atoms: C_19  and  N_20
REMARK                            x       y       z     vdW  Elec       q    Type
REMARK                         _______ _______ _______ _____ _____    ______ ____
ROOT
ATOM      1  C   UNL     1      34.036  -1.755  35.308  0.00  0.00    +0.000 A 
ATOM      2  C   UNL     1      34.270  -3.016  35.834  0.00  0.00    +0.000 A 
ATOM      3  C   UNL     1      34.216  -4.144  35.009  0.00  0.00    +0.000 A 
ATOM      4  C   UNL     1      33.933  -4.005  33.672  0.00  0.00    +0.000 A 
ATOM      5  C   UNL     1      33.706  -2.742  33.181  0.00  0.00    +0.000 A 
ATOM      6  C   UNL     1      33.750  -1.607  33.963  0.00  0.00    +0.000 A 
ENDROOT
BRANCH   4   7
ATOM      7  C   UNL     1      33.865  -5.135  32.763  0.00  0.00    +0.000 C 
ATOM      8  O   UNL     1      32.810  -5.810  32.665  0.00  0.00    +0.000 OA
ATOM      9  N   UNL     1      34.956  -5.542  31.945  0.00  0.00    +0.000 NA
BRANCH   9  10
ATOM     10  C   UNL     1      34.868  -6.652  31.061  0.00  0.00    +0.000 A 
ATOM     11  C   UNL     1      35.224  -7.924  31.473  0.00  0.00    +0.000 A 
ATOM     12  C   UNL     1      35.700  -8.098  32.860  0.00  0.00    +0.000 C 
ATOM     13  C   UNL     1      35.141  -9.016  30.619  0.00  0.00    +0.000 A 
ATOM     14  C   UNL     1      34.697  -8.848  29.327  0.00  0.00    +0.000 A 
ATOM     15  C   UNL     1      34.338  -7.599  28.896  0.00  0.00    +0.000 A 
ATOM     16  C   UNL     1      34.427  -6.517  29.761  0.00  0.00    +0.000 A 
ATOM     17  C   UNL     1      34.044  -5.142  29.324  0.00  0.00    +0.000 C 
ENDBRANCH   9  10
ENDBRANCH   4   7
BRANCH   6  18
ATOM     18  N   UNL     1      33.504  -0.343  33.375  0.00  0.00    +0.000 N 
ATOM     19  O   UNL     1      34.256   0.156  32.520  0.00  0.00    +0.000 OA
ATOM     20  O   UNL     1      32.392   0.371  33.758  0.00  0.00    +0.000 OA
ENDBRANCH   6  18
BRANCH   1  22
ATOM     21  C   UNL     1      35.063  -0.513  37.083  0.00  0.00    +0.000 C 
ATOM     22  O   UNL     1      34.074  -0.600  36.072  0.00  0.00    +0.000 OA
ENDBRANCH   1  22
TORSDOF 4
ENDMDL
