MODEL 1
REMARK VINA RESULT:      -7.1      0.000      0.000
REMARK  Name = 
REMARK  3 active torsions:
REMARK  status: ('A' for Active; 'I' for Inactive)
REMARK    1  A    between atoms: C_2  and  C_4
REMARK    2  A    between atoms: C_8  and  C_9
REMARK    3  A    between atoms: N_11  and  C_12
REMARK                            x       y       z     vdW  Elec       q    Type
REMARK                         _______ _______ _______ _____ _____    ______ ____
ROOT
ATOM      1  C   UNL     1      34.503  20.071  10.235  0.00  0.00    +0.000 A 
ATOM      2  C   UNL     1      34.983  20.005  11.535  0.00  0.00    +0.000 A 
ATOM      3  C   UNL     1      36.372  19.641  11.877  0.00  0.00    +0.000 C 
ATOM      4  N   UNL     1      33.958  20.331  12.375  0.00  0.00    +0.000 NA
ATOM      5  C   UNL     1      32.859  20.598  11.689  0.00  0.00    +0.000 A 
ATOM      6  C   UNL     1      33.191  20.437  10.358  0.00  0.00    +0.000 A 
ATOM      7  C   UNL     1      32.252  20.636   9.215  0.00  0.00    +0.000 C 
ENDROOT
BRANCH   1   9
ATOM      8  C   UNL     1      35.961  20.951   8.367  0.00  0.00    +0.000 C 
ATOM      9  C   UNL     1      35.176  19.821   8.976  0.00  0.00    +0.000 C 
ATOM     10  O   UNL     1      35.134  18.720   8.378  0.00  0.00    +0.000 OA
ENDBRANCH   1   9
BRANCH   5  11
ATOM     11  C   UNL     1      31.526  20.988  12.153  0.00  0.00    +0.000 C 
ATOM     12  O   UNL     1      30.833  20.233  12.881  0.00  0.00    +0.000 OA
ATOM     13  N   UNL     1      30.935  22.233  11.815  0.00  0.00    +0.000 NA
BRANCH  13  14
ATOM     14  C   UNL     1      29.643  22.635  12.252  0.00  0.00    +0.000 A 
ATOM     15  C   UNL     1      29.393  23.301  13.425  0.00  0.00    +0.000 A 
ATOM     16  C   UNL     1      28.110  23.666  13.796  0.00  0.00    +0.000 A 
ATOM     17  C   UNL     1      27.027  23.375  13.001  0.00  0.00    +0.000 A 
ATOM     18  C   UNL     1      27.260  22.705  11.818  0.00  0.00    +0.000 A 
ATOM     19  F   UNL     1      26.251  22.375  10.967  0.00  0.00    +0.000 F 
ATOM     20  C   UNL     1      28.560  22.340  11.452  0.00  0.00    +0.000 A 
ENDBRANCH  13  14
ENDBRANCH   5  11
TORSDOF 3
ENDMDL
MODEL 2
REMARK VINA RESULT:      -6.2      1.716      2.078
REMARK  Name = 
REMARK  3 active torsions:
REMARK  status: ('A' for Active; 'I' for Inactive)
REMARK    1  A    between atoms: C_2  and  C_4
REMARK    2  A    between atoms: C_8  and  C_9
REMARK    3  A    between atoms: N_11  and  C_12
REMARK                            x       y       z     vdW  Elec       q    Type
REMARK                         _______ _______ _______ _____ _____    ______ ____
ROOT
ATOM      1  C   UNL     1      33.641  20.820   9.221  0.00  0.00    +0.000 A 
ATOM      2  C   UNL     1      34.355  21.108  10.375  0.00  0.00    +0.000 A 
ATOM      3  C   UNL     1      35.828  21.066  10.457  0.00  0.00    +0.000 C 
ATOM      4  N   UNL     1      33.458  21.419  11.355  0.00  0.00    +0.000 NA
ATOM      5  C   UNL     1      32.219  21.346  10.893  0.00  0.00    +0.000 A 
ATOM      6  C   UNL     1      32.326  20.973   9.568  0.00  0.00    +0.000 A 
ATOM      7  C   UNL     1      31.173  20.768   8.644  0.00  0.00    +0.000 C 
ENDROOT
BRANCH   1   9
ATOM      8  C   UNL     1      34.276  18.965   7.626  0.00  0.00    +0.000 C 
ATOM      9  C   UNL     1      34.107  20.435   7.904  0.00  0.00    +0.000 C 
ATOM     10  O   UNL     1      34.373  21.258   6.997  0.00  0.00    +0.000 OA
ENDBRANCH   1   9
BRANCH   5  11
ATOM     11  C   UNL     1      30.943  21.589  11.569  0.00  0.00    +0.000 C 
ATOM     12  O   UNL     1      30.529  20.839  12.490  0.00  0.00    +0.000 OA
ATOM     13  N   UNL     1      30.097  22.678  11.233  0.00  0.00    +0.000 NA
BRANCH  13  14
ATOM     14  C   UNL     1      28.854  22.935  11.873  0.00  0.00    +0.000 A 
ATOM     15  C   UNL     1      27.655  22.393  11.486  0.00  0.00    +0.000 A 
ATOM     16  C   UNL     1      26.476  22.683  12.152  0.00  0.00    +0.000 A 
ATOM     17  C   UNL     1      26.457  23.531  13.235  0.00  0.00    +0.000 A 
ATOM     18  C   UNL     1      27.655  24.084  13.637  0.00  0.00    +0.000 A 
ATOM     19  F   UNL     1      27.734  24.933  14.698  0.00  0.00    +0.000 F 
ATOM     20  C   UNL     1      28.841  23.786  12.958  0.00  0.00    +0.000 A 
ENDBRANCH  13  14
ENDBRANCH   5  11
TORSDOF 3
ENDMDL
MODEL 3
REMARK VINA RESULT:      -6.2     33.001     34.227
REMARK  Name = 
REMARK  3 active torsions:
REMARK  status: ('A' for Active; 'I' for Inactive)
REMARK    1  A    between atoms: C_2  and  C_4
REMARK    2  A    between atoms: C_8  and  C_9
REMARK    3  A    between atoms: N_11  and  C_12
REMARK                            x       y       z     vdW  Elec       q    Type
REMARK                         _______ _______ _______ _____ _____    ______ ____
ROOT
ATOM      1  C   UNL     1      19.014  -7.220  26.331  0.00  0.00    +0.000 A 
ATOM      2  C   UNL     1      19.394  -5.908  26.090  0.00  0.00    +0.000 A 
ATOM      3  C   UNL     1      18.650  -4.735  26.588  0.00  0.00    +0.000 C 
ATOM      4  N   UNL     1      20.534  -5.935  25.339  0.00  0.00    +0.000 NA
ATOM      5  C   UNL     1      20.898  -7.183  25.090  0.00  0.00    +0.000 A 
ATOM      6  C   UNL     1      19.957  -7.986  25.703  0.00  0.00    +0.000 A 
ATOM      7  C   UNL     1      19.967  -9.478  25.685  0.00  0.00    +0.000 C 
ENDROOT
BRANCH   1   9
ATOM      8  C   UNL     1      16.540  -7.733  26.394  0.00  0.00    +0.000 C 
ATOM      9  C   UNL     1      17.884  -7.744  27.071  0.00  0.00    +0.000 C 
ATOM     10  O   UNL     1      17.973  -8.202  28.235  0.00  0.00    +0.000 OA
ENDBRANCH   1   9
BRANCH   5  11
ATOM     11  C   UNL     1      22.041  -7.701  24.333  0.00  0.00    +0.000 C 
ATOM     12  O   UNL     1      21.905  -8.186  23.181  0.00  0.00    +0.000 OA
ATOM     13  N   UNL     1      23.363  -7.689  24.846  0.00  0.00    +0.000 NA
BRANCH  13  14
ATOM     14  C   UNL     1      24.488  -8.185  24.133  0.00  0.00    +0.000 A 
ATOM     15  C   UNL     1      24.778  -9.516  23.968  0.00  0.00    +0.000 A 
ATOM     16  C   UNL     1      25.890  -9.938  23.261  0.00  0.00    +0.000 A 
ATOM     17  C   UNL     1      26.757  -9.036  22.689  0.00  0.00    +0.000 A 
ATOM     18  C   UNL     1      26.481  -7.693  22.844  0.00  0.00    +0.000 A 
ATOM     19  F   UNL     1      27.281  -6.728  22.315  0.00  0.00    +0.000 F 
ATOM     20  C   UNL     1      25.354  -7.277  23.562  0.00  0.00    +0.000 A 
ENDBRANCH  13  14
ENDBRANCH   5  11
TORSDOF 3
ENDMDL
MODEL 4
REMARK VINA RESULT:      -6.1     30.524     32.141
REMARK  Name = 
REMARK  3 active torsions:
REMARK  status: ('A' for Active; 'I' for Inactive)
REMARK    1  A    between atoms: C_2  and  C_4
REMARK    2  A    between atoms: C_8  and  C_9
REMARK    3  A    between atoms: N_11  and  C_12
REMARK                            x       y       z     vdW  Elec       q    Type
REMARK                         _______ _______ _______ _____ _____    ______ ____
ROOT
ATOM      1  C   UNL     1      34.006   3.712  35.514  0.00  0.00    +0.000 A 
ATOM      2  C   UNL     1      34.176   3.461  36.867  0.00  0.00    +0.000 A 
ATOM      3  C   UNL     1      34.484   4.508  37.861  0.00  0.00    +0.000 C 
ATOM      4  N   UNL     1      34.007   2.122  37.068  0.00  0.00    +0.000 NA
ATOM      5  C   UNL     1      33.742   1.508  35.926  0.00  0.00    +0.000 A 
ATOM      6  C   UNL     1      33.740   2.491  34.956  0.00  0.00    +0.000 A 
ATOM      7  C   UNL     1      33.484   2.256  33.504  0.00  0.00    +0.000 C 
ENDROOT
BRANCH   1   9
ATOM      8  C   UNL     1      32.788   5.560  34.294  0.00  0.00    +0.000 C 
ATOM      9  C   UNL     1      34.079   4.957  34.777  0.00  0.00    +0.000 C 
ATOM     10  O   UNL     1      35.156   5.549  34.526  0.00  0.00    +0.000 OA
ENDBRANCH   1   9
BRANCH   5  11
ATOM     11  C   UNL     1      33.489   0.092  35.650  0.00  0.00    +0.000 C 
ATOM     12  O   UNL     1      32.372  -0.437  35.882  0.00  0.00    +0.000 OA
ATOM     13  N   UNL     1      34.479  -0.767  35.106  0.00  0.00    +0.000 NA
BRANCH  13  14
ATOM     14  C   UNL     1      34.259  -2.144  34.830  0.00  0.00    +0.000 A 
ATOM     15  C   UNL     1      34.423  -3.155  35.742  0.00  0.00    +0.000 A 
ATOM     16  C   UNL     1      34.192  -4.480  35.412  0.00  0.00    +0.000 A 
ATOM     17  C   UNL     1      33.786  -4.840  34.148  0.00  0.00    +0.000 A 
ATOM     18  C   UNL     1      33.616  -3.835  33.218  0.00  0.00    +0.000 A 
ATOM     19  F   UNL     1      33.217  -4.095  31.943  0.00  0.00    +0.000 F 
ATOM     20  C   UNL     1      33.852  -2.500  33.561  0.00  0.00    +0.000 A 
ENDBRANCH  13  14
ENDBRANCH   5  11
TORSDOF 3
ENDMDL
MODEL 5
REMARK VINA RESULT:      -5.9     13.645     16.085
REMARK  Name = 
REMARK  3 active torsions:
REMARK  status: ('A' for Active; 'I' for Inactive)
REMARK    1  A    between atoms: C_2  and  C_4
REMARK    2  A    between atoms: C_8  and  C_9
REMARK    3  A    between atoms: N_11  and  C_12
REMARK                            x       y       z     vdW  Elec       q    Type
REMARK                         _______ _______ _______ _____ _____    ______ ____
ROOT
ATOM      1  C   UNL     1      29.026  24.026  23.279  0.00  0.00    +0.000 A 
ATOM      2  C   UNL     1      27.792  23.571  23.718  0.00  0.00    +0.000 A 
ATOM      3  C   UNL     1      26.539  23.741  22.957  0.00  0.00    +0.000 C 
ATOM      4  N   UNL     1      27.975  22.970  24.930  0.00  0.00    +0.000 NA
ATOM      5  C   UNL     1      29.249  23.016  25.285  0.00  0.00    +0.000 A 
ATOM      6  C   UNL     1      29.908  23.672  24.264  0.00  0.00    +0.000 A 
ATOM      7  C   UNL     1      31.373  23.954  24.237  0.00  0.00    +0.000 C 
ENDROOT
BRANCH   1   9
ATOM      8  C   UNL     1      29.351  26.233  22.091  0.00  0.00    +0.000 C 
ATOM      9  C   UNL     1      29.386  24.729  22.064  0.00  0.00    +0.000 C 
ATOM     10  O   UNL     1      29.722  24.149  21.004  0.00  0.00    +0.000 OA
ENDBRANCH   1   9
BRANCH   5  11
ATOM     11  C   UNL     1      29.914  22.508  26.487  0.00  0.00    +0.000 C 
ATOM     12  O   UNL     1      30.252  21.302  26.596  0.00  0.00    +0.000 OA
ATOM     13  N   UNL     1      30.218  23.336  27.599  0.00  0.00    +0.000 NA
BRANCH  13  14
ATOM     14  C   UNL     1      30.862  22.867  28.776  0.00  0.00    +0.000 A 
ATOM     15  C   UNL     1      30.238  22.695  29.986  0.00  0.00    +0.000 A 
ATOM     16  C   UNL     1      30.921  22.234  31.098  0.00  0.00    +0.000 A 
ATOM     17  C   UNL     1      32.261  21.927  31.038  0.00  0.00    +0.000 A 
ATOM     18  C   UNL     1      32.903  22.094  29.829  0.00  0.00    +0.000 A 
ATOM     19  F   UNL     1      34.226  21.817  29.672  0.00  0.00    +0.000 F 
ATOM     20  C   UNL     1      32.204  22.561  28.710  0.00  0.00    +0.000 A 
ENDBRANCH  13  14
ENDBRANCH   5  11
TORSDOF 3
ENDMDL
MODEL 6
REMARK VINA RESULT:      -5.8     10.901     13.038
REMARK  Name = 
REMARK  3 active torsions:
REMARK  status: ('A' for Active; 'I' for Inactive)
REMARK    1  A    between atoms: C_2  and  C_4
REMARK    2  A    between atoms: C_8  and  C_9
REMARK    3  A    between atoms: N_11  and  C_12
REMARK                            x       y       z     vdW  Elec       q    Type
REMARK                         _______ _______ _______ _____ _____    ______ ____
ROOT
ATOM      1  C   UNL     1      28.513  28.302  19.532  0.00  0.00    +0.000 A 
ATOM      2  C   UNL     1      29.694  27.976  18.880  0.00  0.00    +0.000 A 
ATOM      3  C   UNL     1      30.235  28.738  17.738  0.00  0.00    +0.000 C 
ATOM      4  N   UNL     1      30.213  26.869  19.486  0.00  0.00    +0.000 NA
ATOM      5  C   UNL     1      29.435  26.473  20.481  0.00  0.00    +0.000 A 
ATOM      6  C   UNL     1      28.376  27.359  20.514  0.00  0.00    +0.000 A 
ATOM      7  C   UNL     1      27.243  27.298  21.484  0.00  0.00    +0.000 C 
ENDROOT
BRANCH   1   9
ATOM      8  C   UNL     1      27.864  30.712  19.927  0.00  0.00    +0.000 C 
ATOM      9  C   UNL     1      27.577  29.380  19.288  0.00  0.00    +0.000 C 
ATOM     10  O   UNL     1      26.552  29.257  18.577  0.00  0.00    +0.000 OA
ENDBRANCH   1   9
BRANCH   5  11
ATOM     11  C   UNL     1      29.582  25.346  21.405  0.00  0.00    +0.000 C 
ATOM     12  O   UNL     1      29.617  24.157  20.997  0.00  0.00    +0.000 OA
ATOM     13  N   UNL     1      29.693  25.521  22.809  0.00  0.00    +0.000 NA
BRANCH  13  14
ATOM     14  C   UNL     1      29.836  24.444  23.726  0.00  0.00    +0.000 A 
ATOM     15  C   UNL     1      31.038  23.902  24.106  0.00  0.00    +0.000 A 
ATOM     16  C   UNL     1      31.112  22.853  25.006  0.00  0.00    +0.000 A 
ATOM     17  C   UNL     1      29.978  22.306  25.560  0.00  0.00    +0.000 A 
ATOM     18  C   UNL     1      28.761  22.840  25.189  0.00  0.00    +0.000 A 
ATOM     19  F   UNL     1      27.586  22.364  25.685  0.00  0.00    +0.000 F 
ATOM     20  C   UNL     1      28.696  23.900  24.279  0.00  0.00    +0.000 A 
ENDBRANCH  13  14
ENDBRANCH   5  11
TORSDOF 3
ENDMDL
MODEL 7
REMARK VINA RESULT:      -5.7     13.190     15.869
REMARK  Name = 
REMARK  3 active torsions:
REMARK  status: ('A' for Active; 'I' for Inactive)
REMARK    1  A    between atoms: C_2  and  C_4
REMARK    2  A    between atoms: C_8  and  C_9
REMARK    3  A    between atoms: N_11  and  C_12
REMARK                            x       y       z     vdW  Elec       q    Type
REMARK                         _______ _______ _______ _____ _____    ______ ____
ROOT
ATOM      1  C   UNL     1      28.334  24.709  22.602  0.00  0.00    +0.000 A 
ATOM      2  C   UNL     1      27.104  24.069  22.665  0.00  0.00    +0.000 A 
ATOM      3  C   UNL     1      26.256  23.808  21.487  0.00  0.00    +0.000 C 
ATOM      4  N   UNL     1      26.865  23.753  23.971  0.00  0.00    +0.000 NA
ATOM      5  C   UNL     1      27.867  24.153  24.739  0.00  0.00    +0.000 A 
ATOM      6  C   UNL     1      28.782  24.749  23.894  0.00  0.00    +0.000 A 
ATOM      7  C   UNL     1      30.077  25.350  24.327  0.00  0.00    +0.000 C 
ENDROOT
BRANCH   1   9
ATOM      8  C   UNL     1      28.870  26.707  21.150  0.00  0.00    +0.000 C 
ATOM      9  C   UNL     1      29.050  25.246  21.463  0.00  0.00    +0.000 C 
ATOM     10  O   UNL     1      29.805  24.558  20.735  0.00  0.00    +0.000 OA
ENDBRANCH   1   9
BRANCH   5  11
ATOM     11  C   UNL     1      28.053  24.035  26.187  0.00  0.00    +0.000 C 
ATOM     12  O   UNL     1      27.858  25.007  26.960  0.00  0.00    +0.000 OA
ATOM     13  N   UNL     1      28.463  22.826  26.807  0.00  0.00    +0.000 NA
BRANCH  13  14
ATOM     14  C   UNL     1      28.652  22.686  28.209  0.00  0.00    +0.000 A 
ATOM     15  C   UNL     1      27.645  22.434  29.106  0.00  0.00    +0.000 A 
ATOM     16  C   UNL     1      27.893  22.308  30.462  0.00  0.00    +0.000 A 
ATOM     17  C   UNL     1      29.165  22.430  30.970  0.00  0.00    +0.000 A 
ATOM     18  C   UNL     1      30.189  22.683  30.082  0.00  0.00    +0.000 A 
ATOM     19  F   UNL     1      31.480  22.820  30.491  0.00  0.00    +0.000 F 
ATOM     20  C   UNL     1      29.929  22.810  28.713  0.00  0.00    +0.000 A 
ENDBRANCH  13  14
ENDBRANCH   5  11
TORSDOF 3
ENDMDL
MODEL 8
REMARK VINA RESULT:      -5.7     28.508     30.934
REMARK  Name = 
REMARK  3 active torsions:
REMARK  status: ('A' for Active; 'I' for Inactive)
REMARK    1  A    between atoms: C_2  and  C_4
REMARK    2  A    between atoms: C_8  and  C_9
REMARK    3  A    between atoms: N_11  and  C_12
REMARK                            x       y       z     vdW  Elec       q    Type
REMARK                         _______ _______ _______ _____ _____    ______ ____
ROOT
ATOM      1  C   UNL     1      14.783  12.526  33.163  0.00  0.00    +0.000 A 
ATOM      2  C   UNL     1      15.143  11.539  32.257  0.00  0.00    +0.000 A 
ATOM      3  C   UNL     1      14.714  11.529  30.846  0.00  0.00    +0.000 C 
ATOM      4  N   UNL     1      15.930  10.638  32.914  0.00  0.00    +0.000 NA
ATOM      5  C   UNL     1      16.090  10.992  34.179  0.00  0.00    +0.000 A 
ATOM      6  C   UNL     1      15.379  12.165  34.340  0.00  0.00    +0.000 A 
ATOM      7  C   UNL     1      15.276  12.931  35.617  0.00  0.00    +0.000 C 
ENDROOT
BRANCH   1   9
ATOM      8  C   UNL     1      13.335  14.315  34.208  0.00  0.00    +0.000 C 
ATOM      9  C   UNL     1      13.961  13.706  32.983  0.00  0.00    +0.000 C 
ATOM     10  O   UNL     1      13.751  14.238  31.867  0.00  0.00    +0.000 OA
ENDBRANCH   1   9
BRANCH   5  11
ATOM     11  C   UNL     1      16.843  10.343  35.254  0.00  0.00    +0.000 C 
ATOM     12  O   UNL     1      17.008   9.097  35.286  0.00  0.00    +0.000 OA
ATOM     13  N   UNL     1      17.430  11.071  36.321  0.00  0.00    +0.000 NA
BRANCH  13  14
ATOM     14  C   UNL     1      18.165  10.464  37.377  0.00  0.00    +0.000 A 
ATOM     15  C   UNL     1      19.501  10.158  37.317  0.00  0.00    +0.000 A 
ATOM     16  C   UNL     1      20.161   9.567  38.380  0.00  0.00    +0.000 A 
ATOM     17  C   UNL     1      19.502   9.259  39.548  0.00  0.00    +0.000 A 
ATOM     18  C   UNL     1      18.158   9.560  39.625  0.00  0.00    +0.000 A 
ATOM     19  F   UNL     1      17.424   9.293  40.739  0.00  0.00    +0.000 F 
ATOM     20  C   UNL     1      17.500  10.157  38.545  0.00  0.00    +0.000 A 
ENDBRANCH  13  14
ENDBRANCH   5  11
TORSDOF 3
ENDMDL
MODEL 9
REMARK VINA RESULT:      -5.6     14.083     16.893
REMARK  Name = 
REMARK  3 active torsions:
REMARK  status: ('A' for Active; 'I' for Inactive)
REMARK    1  A    between atoms: C_2  and  C_4
REMARK    2  A    between atoms: C_8  and  C_9
REMARK    3  A    between atoms: N_11  and  C_12
REMARK                            x       y       z     vdW  Elec       q    Type
REMARK                         _______ _______ _______ _____ _____    ______ ____
ROOT
ATOM      1  C   UNL     1      27.006  24.148  24.075  0.00  0.00    +0.000 A 
ATOM      2  C   UNL     1      26.125  24.584  25.054  0.00  0.00    +0.000 A 
ATOM      3  C   UNL     1      24.925  25.394  24.772  0.00  0.00    +0.000 C 
ATOM      4  N   UNL     1      26.581  24.130  26.258  0.00  0.00    +0.000 NA
ATOM      5  C   UNL     1      27.696  23.434  26.103  0.00  0.00    +0.000 A 
ATOM      6  C   UNL     1      27.966  23.442  24.748  0.00  0.00    +0.000 A 
ATOM      7  C   UNL     1      29.138  22.775  24.108  0.00  0.00    +0.000 C 
ENDROOT
BRANCH   1   9
ATOM      8  C   UNL     1      27.601  25.620  22.109  0.00  0.00    +0.000 C 
ATOM      9  C   UNL     1      26.987  24.353  22.641  0.00  0.00    +0.000 C 
ATOM     10  O   UNL     1      26.489  23.534  21.833  0.00  0.00    +0.000 OA
ENDBRANCH   1   9
BRANCH   5  11
ATOM     11  C   UNL     1      28.536  22.761  27.096  0.00  0.00    +0.000 C 
ATOM     12  O   UNL     1      28.294  21.590  27.482  0.00  0.00    +0.000 OA
ATOM     13  N   UNL     1      29.670  23.382  27.681  0.00  0.00    +0.000 NA
BRANCH  13  14
ATOM     14  C   UNL     1      30.501  22.751  28.647  0.00  0.00    +0.000 A 
ATOM     15  C   UNL     1      31.658  22.076  28.352  0.00  0.00    +0.000 A 
ATOM     16  C   UNL     1      32.426  21.481  29.339  0.00  0.00    +0.000 A 
ATOM     17  C   UNL     1      32.059  21.542  30.663  0.00  0.00    +0.000 A 
ATOM     18  C   UNL     1      30.898  22.217  30.977  0.00  0.00    +0.000 A 
ATOM     19  F   UNL     1      30.456  22.330  32.259  0.00  0.00    +0.000 F 
ATOM     20  C   UNL     1      30.129  22.815  29.973  0.00  0.00    +0.000 A 
ENDBRANCH  13  14
ENDBRANCH   5  11
TORSDOF 3
ENDMDL
MODEL 10
REMARK VINA RESULT:      -5.6     15.701     18.642
REMARK  Name = 
REMARK  3 active torsions:
REMARK  status: ('A' for Active; 'I' for Inactive)
REMARK    1  A    between atoms: C_2  and  C_4
REMARK    2  A    between atoms: C_8  and  C_9
REMARK    3  A    between atoms: N_11  and  C_12
REMARK                            x       y       z     vdW  Elec       q    Type
REMARK                         _______ _______ _______ _____ _____    ______ ____
ROOT
ATOM      1  C   UNL     1      25.943  24.122  26.203  0.00  0.00    +0.000 A 
ATOM      2  C   UNL     1      25.210  24.651  27.255  0.00  0.00    +0.000 A 
ATOM      3  C   UNL     1      24.040  25.532  27.076  0.00  0.00    +0.000 C 
ATOM      4  N   UNL     1      25.771  24.208  28.418  0.00  0.00    +0.000 NA
ATOM      5  C   UNL     1      26.813  23.432  28.168  0.00  0.00    +0.000 A 
ATOM      6  C   UNL     1      26.926  23.375  26.793  0.00  0.00    +0.000 A 
ATOM      7  C   UNL     1      27.971  22.606  26.055  0.00  0.00    +0.000 C 
ENDROOT
BRANCH   1   9
ATOM      8  C   UNL     1      26.379  25.494  24.126  0.00  0.00    +0.000 C 
ATOM      9  C   UNL     1      25.772  24.278  24.773  0.00  0.00    +0.000 C 
ATOM     10  O   UNL     1      25.150  23.457  24.058  0.00  0.00    +0.000 OA
ENDBRANCH   1   9
BRANCH   5  11
ATOM     11  C   UNL     1      27.716  22.737  29.088  0.00  0.00    +0.000 C 
ATOM     12  O   UNL     1      27.404  21.641  29.619  0.00  0.00    +0.000 OA
ATOM     13  N   UNL     1      28.992  23.251  29.437  0.00  0.00    +0.000 NA
BRANCH  13  14
ATOM     14  C   UNL     1      29.887  22.596  30.327  0.00  0.00    +0.000 A 
ATOM     15  C   UNL     1      29.630  22.362  31.654  0.00  0.00    +0.000 A 
ATOM     16  C   UNL     1      30.543  21.718  32.471  0.00  0.00    +0.000 A 
ATOM     17  C   UNL     1      31.753  21.282  31.984  0.00  0.00    +0.000 A 
ATOM     18  C   UNL     1      32.028  21.509  30.652  0.00  0.00    +0.000 A 
ATOM     19  F   UNL     1      33.199  21.114  30.081  0.00  0.00    +0.000 F 
ATOM     20  C   UNL     1      31.099  22.161  29.834  0.00  0.00    +0.000 A 
ENDBRANCH  13  14
ENDBRANCH   5  11
TORSDOF 3
ENDMDL
