MODEL 1
REMARK VINA RESULT:      -8.9      0.000      0.000
REMARK  Name = 
REMARK  1 active torsions:
REMARK  status: ('A' for Active; 'I' for Inactive)
REMARK    1  A    between atoms: C_4  and  C_5
REMARK                            x       y       z     vdW  Elec       q    Type
REMARK                         _______ _______ _______ _____ _____    ______ ____
ROOT
ATOM      1  O   UNL     1      15.003  13.021  35.824  0.00  0.00    +0.000 OA
ATOM      2  C   UNL     1      15.778  12.119  35.428  0.00  0.00    +0.000 C 
ATOM      3  N   UNL     1      16.621  11.559  36.357  0.00  0.00    +0.000 NA
ATOM      4  C   UNL     1      17.003  10.022  36.207  0.00  0.00    +0.000 C 
ATOM      5  N   UNL     1      17.520  10.160  34.746  0.00  0.00    +0.000 NA
ATOM      6  C   UNL     1      16.692  10.676  33.741  0.00  0.00    +0.000 A 
ATOM      7  S   UNL     1      16.463  10.387  32.065  0.00  0.00    +0.000 S 
ATOM      8  C   UNL     1      15.233  11.526  31.752  0.00  0.00    +0.000 A 
ATOM      9  C   UNL     1      15.036  12.100  32.972  0.00  0.00    +0.000 A 
ATOM     10  C   UNL     1      15.807  11.648  34.010  0.00  0.00    +0.000 A 
ATOM     11  C   UNL     1      13.959  13.169  32.922  0.00  0.00    +0.000 C 
ATOM     12  C   UNL     1      14.219  14.128  31.781  0.00  0.00    +0.000 C 
ATOM     13  C   UNL     1      14.481  13.449  30.480  0.00  0.00    +0.000 C 
ATOM     14  C   UNL     1      14.434  11.953  30.538  0.00  0.00    +0.000 C 
ENDROOT
BRANCH   4  15
ATOM     15  C   UNL     1      18.433  10.240  36.886  0.00  0.00    +0.000 A 
ATOM     16  C   UNL     1      18.535  10.906  38.053  0.00  0.00    +0.000 A 
ATOM     17  C   UNL     1      19.784  11.052  38.617  0.00  0.00    +0.000 A 
ATOM     18  C   UNL     1      20.922  10.543  38.032  0.00  0.00    +0.000 A 
ATOM     19  C   UNL     1      20.773   9.870  36.840  0.00  0.00    +0.000 A 
ATOM     20  C   UNL     1      19.537   9.724  36.277  0.00  0.00    +0.000 A 
ATOM     21  O   UNL     1      22.049   9.460  36.458  0.00  0.00    +0.000 OA
ATOM     22  C   UNL     1      22.902   9.456  37.614  0.00  0.00    +0.000 C 
ATOM     23  O   UNL     1      22.289  10.526  38.349  0.00  0.00    +0.000 OA
ENDBRANCH   4  15
TORSDOF 1
ENDMDL
MODEL 2
REMARK VINA RESULT:      -8.5      3.525      4.379
REMARK  Name = 
REMARK  1 active torsions:
REMARK  status: ('A' for Active; 'I' for Inactive)
REMARK    1  A    between atoms: C_4  and  C_5
REMARK                            x       y       z     vdW  Elec       q    Type
REMARK                         _______ _______ _______ _____ _____    ______ ____
ROOT
ATOM      1  O   UNL     1      18.527   9.276  35.123  0.00  0.00    +0.000 OA
ATOM      2  C   UNL     1      17.758   9.815  35.953  0.00  0.00    +0.000 C 
ATOM      3  N   UNL     1      17.973   9.541  37.282  0.00  0.00    +0.000 NA
ATOM      4  C   UNL     1      17.658  10.675  38.352  0.00  0.00    +0.000 C 
ATOM      5  N   UNL     1      16.190  10.891  37.882  0.00  0.00    +0.000 NA
ATOM      6  C   UNL     1      15.908  11.224  36.551  0.00  0.00    +0.000 A 
ATOM      7  S   UNL     1      14.749  12.199  35.744  0.00  0.00    +0.000 S 
ATOM      8  C   UNL     1      15.242  11.940  34.132  0.00  0.00    +0.000 A 
ATOM      9  C   UNL     1      16.302  11.096  34.273  0.00  0.00    +0.000 A 
ATOM     10  C   UNL     1      16.644  10.725  35.547  0.00  0.00    +0.000 A 
ATOM     11  C   UNL     1      16.907  10.725  32.930  0.00  0.00    +0.000 C 
ATOM     12  C   UNL     1      15.828  10.267  31.974  0.00  0.00    +0.000 C 
ATOM     13  C   UNL     1      14.666  11.199  31.896  0.00  0.00    +0.000 C 
ATOM     14  C   UNL     1      14.781  12.410  32.769  0.00  0.00    +0.000 C 
ENDROOT
BRANCH   4  15
ATOM     15  C   UNL     1      17.291   9.606  39.480  0.00  0.00    +0.000 A 
ATOM     16  C   UNL     1      16.177   9.758  40.223  0.00  0.00    +0.000 A 
ATOM     17  C   UNL     1      15.884   8.800  41.169  0.00  0.00    +0.000 A 
ATOM     18  C   UNL     1      16.687   7.701  41.380  0.00  0.00    +0.000 A 
ATOM     19  C   UNL     1      17.816   7.585  40.601  0.00  0.00    +0.000 A 
ATOM     20  C   UNL     1      18.110   8.532  39.661  0.00  0.00    +0.000 A 
ATOM     21  O   UNL     1      18.450   6.409  40.999  0.00  0.00    +0.000 OA
ATOM     22  C   UNL     1      17.496   5.570  41.670  0.00  0.00    +0.000 C 
ATOM     23  O   UNL     1      16.660   6.590  42.238  0.00  0.00    +0.000 OA
ENDBRANCH   4  15
TORSDOF 1
ENDMDL
MODEL 3
REMARK VINA RESULT:      -7.6     20.437     22.209
REMARK  Name = 
REMARK  1 active torsions:
REMARK  status: ('A' for Active; 'I' for Inactive)
REMARK    1  A    between atoms: C_4  and  C_5
REMARK                            x       y       z     vdW  Elec       q    Type
REMARK                         _______ _______ _______ _____ _____    ______ ____
ROOT
ATOM      1  O   UNL     1      31.138  22.863  24.219  0.00  0.00    +0.000 OA
ATOM      2  C   UNL     1      29.994  23.344  24.044  0.00  0.00    +0.000 C 
ATOM      3  N   UNL     1      29.734  23.926  22.827  0.00  0.00    +0.000 NA
ATOM      4  C   UNL     1      28.260  23.828  22.238  0.00  0.00    +0.000 C 
ATOM      5  N   UNL     1      27.577  24.437  23.496  0.00  0.00    +0.000 NA
ATOM      6  C   UNL     1      27.761  23.859  24.759  0.00  0.00    +0.000 A 
ATOM      7  S   UNL     1      26.801  23.641  26.164  0.00  0.00    +0.000 S 
ATOM      8  C   UNL     1      27.935  22.835  27.152  0.00  0.00    +0.000 A 
ATOM      9  C   UNL     1      29.034  22.761  26.351  0.00  0.00    +0.000 A 
ATOM     10  C   UNL     1      28.933  23.302  25.096  0.00  0.00    +0.000 A 
ATOM     11  C   UNL     1      30.191  22.066  27.048  0.00  0.00    +0.000 C 
ATOM     12  C   UNL     1      30.418  22.666  28.417  0.00  0.00    +0.000 C 
ATOM     13  C   UNL     1      29.176  22.775  29.235  0.00  0.00    +0.000 C 
ATOM     14  C   UNL     1      27.939  22.270  28.557  0.00  0.00    +0.000 C 
ENDROOT
BRANCH   4  15
ATOM     15  C   UNL     1      28.402  25.218  21.464  0.00  0.00    +0.000 A 
ATOM     16  C   UNL     1      27.482  26.188  21.637  0.00  0.00    +0.000 A 
ATOM     17  C   UNL     1      27.655  27.381  20.970  0.00  0.00    +0.000 A 
ATOM     18  C   UNL     1      28.727  27.613  20.138  0.00  0.00    +0.000 A 
ATOM     19  C   UNL     1      29.643  26.596  19.988  0.00  0.00    +0.000 A 
ATOM     20  C   UNL     1      29.476  25.411  20.648  0.00  0.00    +0.000 A 
ATOM     21  O   UNL     1      30.617  27.069  19.111  0.00  0.00    +0.000 OA
ATOM     22  C   UNL     1      30.569  28.504  19.092  0.00  0.00    +0.000 C 
ATOM     23  O   UNL     1      29.167  28.685  19.345  0.00  0.00    +0.000 OA
ENDBRANCH   4  15
TORSDOF 1
ENDMDL
MODEL 4
REMARK VINA RESULT:      -7.3     28.533     30.757
REMARK  Name = 
REMARK  1 active torsions:
REMARK  status: ('A' for Active; 'I' for Inactive)
REMARK    1  A    between atoms: C_4  and  C_5
REMARK                            x       y       z     vdW  Elec       q    Type
REMARK                         _______ _______ _______ _____ _____    ______ ____
ROOT
ATOM      1  O   UNL     1      34.140  23.461   9.418  0.00  0.00    +0.000 OA
ATOM      2  C   UNL     1      33.651  22.605  10.191  0.00  0.00    +0.000 C 
ATOM      3  N   UNL     1      32.284  22.578  10.320  0.00  0.00    +0.000 NA
ATOM      4  C   UNL     1      31.572  21.178  10.571  0.00  0.00    +0.000 C 
ATOM      5  N   UNL     1      32.426  20.821  11.822  0.00  0.00    +0.000 NA
ATOM      6  C   UNL     1      33.825  20.780  11.743  0.00  0.00    +0.000 A 
ATOM      7  S   UNL     1      35.070  19.839  12.454  0.00  0.00    +0.000 S 
ATOM      8  C   UNL     1      36.425  20.571  11.720  0.00  0.00    +0.000 A 
ATOM      9  C   UNL     1      35.860  21.533  10.937  0.00  0.00    +0.000 A 
ATOM     10  C   UNL     1      34.494  21.636  10.956  0.00  0.00    +0.000 A 
ATOM     11  C   UNL     1      36.909  22.325  10.177  0.00  0.00    +0.000 C 
ATOM     12  C   UNL     1      37.995  22.800  11.117  0.00  0.00    +0.000 C 
ATOM     13  C   UNL     1      38.543  21.721  11.989  0.00  0.00    +0.000 C 
ATOM     14  C   UNL     1      37.925  20.374  11.773  0.00  0.00    +0.000 C 
ENDROOT
BRANCH   4  15
ATOM     15  C   UNL     1      30.383  21.853  11.398  0.00  0.00    +0.000 A 
ATOM     16  C   UNL     1      30.636  22.469  12.569  0.00  0.00    +0.000 A 
ATOM     17  C   UNL     1      29.586  23.059  13.239  0.00  0.00    +0.000 A 
ATOM     18  C   UNL     1      28.297  23.040  12.755  0.00  0.00    +0.000 A 
ATOM     19  C   UNL     1      28.082  22.400  11.556  0.00  0.00    +0.000 A 
ATOM     20  C   UNL     1      29.120  21.813  10.888  0.00  0.00    +0.000 A 
ATOM     21  O   UNL     1      26.720  22.517  11.285  0.00  0.00    +0.000 OA
ATOM     22  C   UNL     1      26.187  23.610  12.049  0.00  0.00    +0.000 C 
ATOM     23  O   UNL     1      27.057  23.534  13.188  0.00  0.00    +0.000 OA
ENDBRANCH   4  15
TORSDOF 1
ENDMDL
MODEL 5
REMARK VINA RESULT:      -7.1     17.611     19.099
REMARK  Name = 
REMARK  1 active torsions:
REMARK  status: ('A' for Active; 'I' for Inactive)
REMARK    1  A    between atoms: C_4  and  C_5
REMARK                            x       y       z     vdW  Elec       q    Type
REMARK                         _______ _______ _______ _____ _____    ______ ____
ROOT
ATOM      1  O   UNL     1      33.240   3.914  33.084  0.00  0.00    +0.000 OA
ATOM      2  C   UNL     1      33.595   4.021  34.281  0.00  0.00    +0.000 C 
ATOM      3  N   UNL     1      33.809   5.288  34.766  0.00  0.00    +0.000 NA
ATOM      4  C   UNL     1      33.477   5.584  36.293  0.00  0.00    +0.000 C 
ATOM      5  N   UNL     1      34.371   4.436  36.844  0.00  0.00    +0.000 NA
ATOM      6  C   UNL     1      34.171   3.112  36.428  0.00  0.00    +0.000 A 
ATOM      7  S   UNL     1      34.295   1.562  37.153  0.00  0.00    +0.000 S 
ATOM      8  C   UNL     1      33.850   0.596  35.820  0.00  0.00    +0.000 A 
ATOM      9  C   UNL     1      33.616   1.518  34.844  0.00  0.00    +0.000 A 
ATOM     10  C   UNL     1      33.788   2.837  35.173  0.00  0.00    +0.000 A 
ATOM     11  C   UNL     1      33.199   0.861  33.540  0.00  0.00    +0.000 C 
ATOM     12  C   UNL     1      34.162  -0.248  33.177  0.00  0.00    +0.000 C 
ATOM     13  C   UNL     1      34.425  -1.199  34.294  0.00  0.00    +0.000 C 
ATOM     14  C   UNL     1      33.691  -0.887  35.562  0.00  0.00    +0.000 C 
ENDROOT
BRANCH   4  15
ATOM     15  C   UNL     1      34.608   6.707  36.394  0.00  0.00    +0.000 A 
ATOM     16  C   UNL     1      35.853   6.382  36.795  0.00  0.00    +0.000 A 
ATOM     17  C   UNL     1      36.805   7.377  36.845  0.00  0.00    +0.000 A 
ATOM     18  C   UNL     1      36.530   8.682  36.501  0.00  0.00    +0.000 A 
ATOM     19  C   UNL     1      35.245   8.970  36.097  0.00  0.00    +0.000 A 
ATOM     20  C   UNL     1      34.298   7.988  36.047  0.00  0.00    +0.000 A 
ATOM     21  O   UNL     1      35.221  10.334  35.809  0.00  0.00    +0.000 OA
ATOM     22  C   UNL     1      36.565  10.785  35.577  0.00  0.00    +0.000 C 
ATOM     23  O   UNL     1      37.259   9.880  36.449  0.00  0.00    +0.000 OA
ENDBRANCH   4  15
TORSDOF 1
ENDMDL
MODEL 6
REMARK VINA RESULT:      -7.1     28.631     30.955
REMARK  Name = 
REMARK  1 active torsions:
REMARK  status: ('A' for Active; 'I' for Inactive)
REMARK    1  A    between atoms: C_4  and  C_5
REMARK                            x       y       z     vdW  Elec       q    Type
REMARK                         _______ _______ _______ _____ _____    ______ ____
ROOT
ATOM      1  O   UNL     1      33.460  19.485  10.133  0.00  0.00    +0.000 OA
ATOM      2  C   UNL     1      32.616  20.310   9.713  0.00  0.00    +0.000 C 
ATOM      3  N   UNL     1      32.051  21.158  10.633  0.00  0.00    +0.000 NA
ATOM      4  C   UNL     1      31.654  22.627  10.168  0.00  0.00    +0.000 C 
ATOM      5  N   UNL     1      30.771  22.153   8.979  0.00  0.00    +0.000 NA
ATOM      6  C   UNL     1      31.304  21.327   7.979  0.00  0.00    +0.000 A 
ATOM      7  S   UNL     1      31.087  21.149   6.286  0.00  0.00    +0.000 S 
ATOM      8  C   UNL     1      32.184  19.873   6.000  0.00  0.00    +0.000 A 
ATOM      9  C   UNL     1      32.688  19.625   7.241  0.00  0.00    +0.000 A 
ATOM     10  C   UNL     1      32.220  20.393   8.274  0.00  0.00    +0.000 A 
ATOM     11  C   UNL     1      33.706  18.498   7.218  0.00  0.00    +0.000 C 
ATOM     12  C   UNL     1      33.148  17.299   6.486  0.00  0.00    +0.000 C 
ATOM     13  C   UNL     1      32.560  17.631   5.156  0.00  0.00    +0.000 C 
ATOM     14  C   UNL     1      32.633  19.082   4.790  0.00  0.00    +0.000 C 
ENDROOT
BRANCH   4  15
ATOM     15  C   UNL     1      30.451  22.709  11.216  0.00  0.00    +0.000 A 
ATOM     16  C   UNL     1      30.689  23.053  12.497  0.00  0.00    +0.000 A 
ATOM     17  C   UNL     1      29.620  23.135  13.362  0.00  0.00    +0.000 A 
ATOM     18  C   UNL     1      28.327  22.878  12.966  0.00  0.00    +0.000 A 
ATOM     19  C   UNL     1      28.128  22.528  11.649  0.00  0.00    +0.000 A 
ATOM     20  C   UNL     1      29.185  22.446  10.787  0.00  0.00    +0.000 A 
ATOM     21  O   UNL     1      26.758  22.323  11.498  0.00  0.00    +0.000 OA
ATOM     22  C   UNL     1      26.067  22.991  12.566  0.00  0.00    +0.000 C 
ATOM     23  O   UNL     1      27.069  22.877  13.588  0.00  0.00    +0.000 OA
ENDBRANCH   4  15
TORSDOF 1
ENDMDL
MODEL 7
REMARK VINA RESULT:      -7.0     18.483     20.611
REMARK  Name = 
REMARK  1 active torsions:
REMARK  status: ('A' for Active; 'I' for Inactive)
REMARK    1  A    between atoms: C_4  and  C_5
REMARK                            x       y       z     vdW  Elec       q    Type
REMARK                         _______ _______ _______ _____ _____    ______ ____
ROOT
ATOM      1  O   UNL     1      34.165   1.160  37.898  0.00  0.00    +0.000 OA
ATOM      2  C   UNL     1      33.871   0.852  36.720  0.00  0.00    +0.000 C 
ATOM      3  N   UNL     1      33.577  -0.465  36.466  0.00  0.00    +0.000 NA
ATOM      4  C   UNL     1      32.500  -0.802  35.345  0.00  0.00    +0.000 C 
ATOM      5  N   UNL     1      33.218   0.010  34.229  0.00  0.00    +0.000 NA
ATOM      6  C   UNL     1      33.499   1.372  34.405  0.00  0.00    +0.000 A 
ATOM      7  S   UNL     1      33.552   2.758  33.395  0.00  0.00    +0.000 S 
ATOM      8  C   UNL     1      34.000   3.927  34.554  0.00  0.00    +0.000 A 
ATOM      9  C   UNL     1      34.095   3.196  35.700  0.00  0.00    +0.000 A 
ATOM     10  C   UNL     1      33.831   1.855  35.611  0.00  0.00    +0.000 A 
ATOM     11  C   UNL     1      34.494   4.058  36.884  0.00  0.00    +0.000 C 
ATOM     12  C   UNL     1      35.703   4.899  36.541  0.00  0.00    +0.000 C 
ATOM     13  C   UNL     1      35.571   5.637  35.253  0.00  0.00    +0.000 C 
ATOM     14  C   UNL     1      34.272   5.417  34.541  0.00  0.00    +0.000 C 
ENDROOT
BRANCH   4  15
ATOM     15  C   UNL     1      33.204  -2.191  34.988  0.00  0.00    +0.000 A 
ATOM     16  C   UNL     1      33.810  -2.911  35.951  0.00  0.00    +0.000 A 
ATOM     17  C   UNL     1      34.384  -4.115  35.604  0.00  0.00    +0.000 A 
ATOM     18  C   UNL     1      34.360  -4.602  34.316  0.00  0.00    +0.000 A 
ATOM     19  C   UNL     1      33.731  -3.833  33.363  0.00  0.00    +0.000 A 
ATOM     20  C   UNL     1      33.160  -2.639  33.702  0.00  0.00    +0.000 A 
ATOM     21  O   UNL     1      33.839  -4.530  32.161  0.00  0.00    +0.000 OA
ATOM     22  C   UNL     1      34.104  -5.913  32.447  0.00  0.00    +0.000 C 
ATOM     23  O   UNL     1      34.838  -5.753  33.670  0.00  0.00    +0.000 OA
ENDBRANCH   4  15
TORSDOF 1
ENDMDL
MODEL 8
REMARK VINA RESULT:      -7.0      3.501      8.055
REMARK  Name = 
REMARK  1 active torsions:
REMARK  status: ('A' for Active; 'I' for Inactive)
REMARK    1  A    between atoms: C_4  and  C_5
REMARK                            x       y       z     vdW  Elec       q    Type
REMARK                         _______ _______ _______ _____ _____    ______ ____
ROOT
ATOM      1  O   UNL     1      22.812  10.239  37.601  0.00  0.00    +0.000 OA
ATOM      2  C   UNL     1      21.765  10.918  37.712  0.00  0.00    +0.000 C 
ATOM      3  N   UNL     1      20.589  10.338  37.303  0.00  0.00    +0.000 NA
ATOM      4  C   UNL     1      19.249  10.711  38.075  0.00  0.00    +0.000 C 
ATOM      5  N   UNL     1      19.409  12.246  37.876  0.00  0.00    +0.000 NA
ATOM      6  C   UNL     1      20.563  12.907  38.318  0.00  0.00    +0.000 A 
ATOM      7  S   UNL     1      20.921  14.448  38.983  0.00  0.00    +0.000 S 
ATOM      8  C   UNL     1      22.608  14.282  39.174  0.00  0.00    +0.000 A 
ATOM      9  C   UNL     1      22.842  13.022  38.712  0.00  0.00    +0.000 A 
ATOM     10  C   UNL     1      21.762  12.308  38.263  0.00  0.00    +0.000 A 
ATOM     11  C   UNL     1      24.314  12.660  38.790  0.00  0.00    +0.000 C 
ATOM     12  C   UNL     1      25.160  13.751  38.174  0.00  0.00    +0.000 C 
ATOM     13  C   UNL     1      24.829  15.117  38.674  0.00  0.00    +0.000 C 
ATOM     14  C   UNL     1      23.730  15.157  39.691  0.00  0.00    +0.000 C 
ENDROOT
BRANCH   4  15
ATOM     15  C   UNL     1      18.354  10.491  36.770  0.00  0.00    +0.000 A 
ATOM     16  C   UNL     1      18.401   9.319  36.105  0.00  0.00    +0.000 A 
ATOM     17  C   UNL     1      17.595   9.161  34.998  0.00  0.00    +0.000 A 
ATOM     18  C   UNL     1      16.751  10.153  34.552  0.00  0.00    +0.000 A 
ATOM     19  C   UNL     1      16.735  11.335  35.259  0.00  0.00    +0.000 A 
ATOM     20  C   UNL     1      17.532  11.496  36.357  0.00  0.00    +0.000 A 
ATOM     21  O   UNL     1      15.816  12.164  34.619  0.00  0.00    +0.000 OA
ATOM     22  C   UNL     1      14.933  11.355  33.826  0.00  0.00    +0.000 C 
ATOM     23  O   UNL     1      15.839  10.292  33.494  0.00  0.00    +0.000 OA
ENDBRANCH   4  15
TORSDOF 1
ENDMDL
MODEL 9
REMARK VINA RESULT:      -6.8      7.916      9.861
REMARK  Name = 
REMARK  1 active torsions:
REMARK  status: ('A' for Active; 'I' for Inactive)
REMARK    1  A    between atoms: C_4  and  C_5
REMARK                            x       y       z     vdW  Elec       q    Type
REMARK                         _______ _______ _______ _____ _____    ______ ____
ROOT
ATOM      1  O   UNL     1      17.430   4.521  43.059  0.00  0.00    +0.000 OA
ATOM      2  C   UNL     1      18.176   4.793  42.090  0.00  0.00    +0.000 C 
ATOM      3  N   UNL     1      19.100   3.847  41.720  0.00  0.00    +0.000 NA
ATOM      4  C   UNL     1      19.483   3.720  40.181  0.00  0.00    +0.000 C 
ATOM      5  N   UNL     1      19.873   5.217  40.021  0.00  0.00    +0.000 NA
ATOM      6  C   UNL     1      18.957   6.231  40.333  0.00  0.00    +0.000 A 
ATOM      7  S   UNL     1      18.590   7.790  39.717  0.00  0.00    +0.000 S 
ATOM      8  C   UNL     1      17.326   8.217  40.780  0.00  0.00    +0.000 A 
ATOM      9  C   UNL     1      17.229   7.124  41.588  0.00  0.00    +0.000 A 
ATOM     10  C   UNL     1      18.090   6.086  41.345  0.00  0.00    +0.000 A 
ATOM     11  C   UNL     1      16.141   7.294  42.634  0.00  0.00    +0.000 C 
ATOM     12  C   UNL     1      16.295   8.621  43.343  0.00  0.00    +0.000 C 
ATOM     13  C   UNL     1      16.451   9.779  42.416  0.00  0.00    +0.000 C 
ATOM     14  C   UNL     1      16.424   9.419  40.963  0.00  0.00    +0.000 C 
ENDROOT
BRANCH   4  15
ATOM     15  C   UNL     1      20.963   3.222  40.519  0.00  0.00    +0.000 A 
ATOM     16  C   UNL     1      21.991   4.093  40.508  0.00  0.00    +0.000 A 
ATOM     17  C   UNL     1      23.248   3.627  40.829  0.00  0.00    +0.000 A 
ATOM     18  C   UNL     1      23.486   2.312  41.157  0.00  0.00    +0.000 A 
ATOM     19  C   UNL     1      22.408   1.455  41.155  0.00  0.00    +0.000 A 
ATOM     20  C   UNL     1      21.161   1.912  40.838  0.00  0.00    +0.000 A 
ATOM     21  O   UNL     1      22.901   0.202  41.515  0.00  0.00    +0.000 OA
ATOM     22  C   UNL     1      24.159   0.372  42.188  0.00  0.00    +0.000 C 
ATOM     23  O   UNL     1      24.614   1.557  41.518  0.00  0.00    +0.000 OA
ENDBRANCH   4  15
TORSDOF 1
ENDMDL
MODEL 10
REMARK VINA RESULT:      -6.8     19.642     20.831
REMARK  Name = 
REMARK  1 active torsions:
REMARK  status: ('A' for Active; 'I' for Inactive)
REMARK    1  A    between atoms: C_4  and  C_5
REMARK                            x       y       z     vdW  Elec       q    Type
REMARK                         _______ _______ _______ _____ _____    ______ ____
ROOT
ATOM      1  O   UNL     1      20.137   3.350  18.342  0.00  0.00    +0.000 OA
ATOM      2  C   UNL     1      21.155   2.860  17.800  0.00  0.00    +0.000 C 
ATOM      3  N   UNL     1      22.374   3.383  18.159  0.00  0.00    +0.000 NA
ATOM      4  C   UNL     1      23.636   2.415  18.191  0.00  0.00    +0.000 C 
ATOM      5  N   UNL     1      23.459   1.924  16.725  0.00  0.00    +0.000 NA
ATOM      6  C   UNL     1      22.258   1.335  16.310  0.00  0.00    +0.000 A 
ATOM      7  S   UNL     1      21.812   0.088  15.219  0.00  0.00    +0.000 S 
ATOM      8  C   UNL     1      20.119   0.133  15.423  0.00  0.00    +0.000 A 
ATOM      9  C   UNL     1      19.952   1.125  16.342  0.00  0.00    +0.000 A 
ATOM     10  C   UNL     1      21.081   1.751  16.801  0.00  0.00    +0.000 A 
ATOM     11  C   UNL     1      18.487   1.341  16.676  0.00  0.00    +0.000 C 
ATOM     12  C   UNL     1      17.672   1.478  15.410  0.00  0.00    +0.000 C 
ATOM     13  C   UNL     1      17.929   0.397  14.415  0.00  0.00    +0.000 C 
ATOM     14  C   UNL     1      18.938  -0.621  14.850  0.00  0.00    +0.000 C 
ENDROOT
BRANCH   4  15
ATOM     15  C   UNL     1      24.642   3.601  17.824  0.00  0.00    +0.000 A 
ATOM     16  C   UNL     1      24.588   4.185  16.611  0.00  0.00    +0.000 A 
ATOM     17  C   UNL     1      25.457   5.221  16.344  0.00  0.00    +0.000 A 
ATOM     18  C   UNL     1      26.372   5.675  17.268  0.00  0.00    +0.000 A 
ATOM     19  C   UNL     1      26.393   5.050  18.495  0.00  0.00    +0.000 A 
ATOM     20  C   UNL     1      25.534   4.023  18.764  0.00  0.00    +0.000 A 
ATOM     21  O   UNL     1      27.387   5.681  19.240  0.00  0.00    +0.000 OA
ATOM     22  C   UNL     1      27.648   6.973  18.670  0.00  0.00    +0.000 C 
ATOM     23  O   UNL     1      27.356   6.675  17.296  0.00  0.00    +0.000 OA
ENDBRANCH   4  15
TORSDOF 1
ENDMDL
