MODEL 1
REMARK VINA RESULT:      -6.8      0.000      0.000
REMARK  Name = 
REMARK  1 active torsions:
REMARK  status: ('A' for Active; 'I' for Inactive)
REMARK    1  A    between atoms: C_5  and  C_6
REMARK                            x       y       z     vdW  Elec       q    Type
REMARK                         _______ _______ _______ _____ _____    ______ ____
ROOT
ATOM      1  C   UNL     1      19.255  22.074  38.343  0.00  0.00    +0.000 C 
ATOM      2  N   UNL     1      20.015  23.201  37.745  0.00  0.00    +0.000 NA
ATOM      3  C   UNL     1      20.225  23.635  36.648  0.00  0.00    +0.000 C 
ATOM      4  N   UNL     1      21.013  24.769  36.271  0.00  0.00    +0.000 NA
ATOM      5  O   UNL     1      19.615  22.931  35.672  0.00  0.00    +0.000 OA
ATOM      6  C   UNL     1      19.520  21.404  35.876  0.00  0.00    +0.000 C 
ATOM      7  C   UNL     1      18.351  21.271  34.790  0.00  0.00    +0.000 A 
ATOM      8  C   UNL     1      18.364  20.578  33.610  0.00  0.00    +0.000 A 
ATOM      9  C   UNL     1      17.225  20.628  32.827  0.00  0.00    +0.000 A 
ATOM     10  C   UNL     1      16.142  21.352  33.245  0.00  0.00    +0.000 A 
ATOM     11  C   UNL     1      16.185  22.048  34.472  0.00  0.00    +0.000 A 
ATOM     12  C   UNL     1      17.311  22.000  35.249  0.00  0.00    +0.000 A 
ATOM     13  C   UNL     1      17.538  22.646  36.561  0.00  0.00    +0.000 C 
ATOM     14  C   UNL     1      18.350  21.396  37.105  0.00  0.00    +0.000 C 
ENDROOT
BRANCH   1  19
ATOM     15  C   UNL     1      23.514  17.997  38.458  0.00  0.00    +0.000 C 
ATOM     16  C   UNL     1      22.437  19.060  38.426  0.00  0.00    +0.000 A 
ATOM     17  C   UNL     1      21.113  18.708  38.525  0.00  0.00    +0.000 A 
ATOM     18  C   UNL     1      20.104  19.680  38.497  0.00  0.00    +0.000 A 
ATOM     19  C   UNL     1      20.433  21.011  38.368  0.00  0.00    +0.000 A 
ATOM     20  C   UNL     1      21.726  21.316  38.275  0.00  0.00    +0.000 A 
ATOM     21  C   UNL     1      22.744  20.383  38.299  0.00  0.00    +0.000 A 
ENDBRANCH   1  19
TORSDOF 1
ENDMDL
MODEL 2
REMARK VINA RESULT:      -6.8     30.357     31.987
REMARK  Name = 
REMARK  1 active torsions:
REMARK  status: ('A' for Active; 'I' for Inactive)
REMARK    1  A    between atoms: C_5  and  C_6
REMARK                            x       y       z     vdW  Elec       q    Type
REMARK                         _______ _______ _______ _____ _____    ______ ____
ROOT
ATOM      1  C   UNL     1      18.959 -10.851  27.960  0.00  0.00    +0.000 C 
ATOM      2  N   UNL     1      17.945 -11.110  26.907  0.00  0.00    +0.000 NA
ATOM      3  C   UNL     1      17.291 -10.464  26.139  0.00  0.00    +0.000 C 
ATOM      4  N   UNL     1      16.338 -10.918  25.174  0.00  0.00    +0.000 NA
ATOM      5  O   UNL     1      17.518  -9.137  26.232  0.00  0.00    +0.000 OA
ATOM      6  C   UNL     1      17.798  -8.580  27.645  0.00  0.00    +0.000 C 
ATOM      7  C   UNL     1      18.454  -7.244  27.054  0.00  0.00    +0.000 A 
ATOM      8  C   UNL     1      18.030  -5.952  27.206  0.00  0.00    +0.000 A 
ATOM      9  C   UNL     1      18.763  -4.961  26.580  0.00  0.00    +0.000 A 
ATOM     10  C   UNL     1      19.867  -5.292  25.843  0.00  0.00    +0.000 A 
ATOM     11  C   UNL     1      20.258  -6.643  25.720  0.00  0.00    +0.000 A 
ATOM     12  C   UNL     1      19.534  -7.626  26.339  0.00  0.00    +0.000 A 
ATOM     13  C   UNL     1      19.793  -9.083  26.338  0.00  0.00    +0.000 C 
ATOM     14  C   UNL     1      19.353  -9.224  27.857  0.00  0.00    +0.000 C 
ENDROOT
BRANCH   1  19
ATOM     15  C   UNL     1      15.385 -10.419  32.631  0.00  0.00    +0.000 C 
ATOM     16  C   UNL     1      16.287 -10.544  31.422  0.00  0.00    +0.000 A 
ATOM     17  C   UNL     1      17.483  -9.869  31.377  0.00  0.00    +0.000 A 
ATOM     18  C   UNL     1      18.329  -9.974  30.265  0.00  0.00    +0.000 A 
ATOM     19  C   UNL     1      17.966 -10.763  29.196  0.00  0.00    +0.000 A 
ATOM     20  C   UNL     1      16.801 -11.402  29.273  0.00  0.00    +0.000 A 
ATOM     21  C   UNL     1      15.945 -11.320  30.354  0.00  0.00    +0.000 A 
ENDBRANCH   1  19
TORSDOF 1
ENDMDL
MODEL 3
REMARK VINA RESULT:      -6.7     12.404     13.913
REMARK  Name = 
REMARK  1 active torsions:
REMARK  status: ('A' for Active; 'I' for Inactive)
REMARK    1  A    between atoms: C_5  and  C_6
REMARK                            x       y       z     vdW  Elec       q    Type
REMARK                         _______ _______ _______ _____ _____    ______ ____
ROOT
ATOM      1  C   UNL     1      25.712  23.618  25.965  0.00  0.00    +0.000 C 
ATOM      2  N   UNL     1      25.662  24.917  25.247  0.00  0.00    +0.000 NA
ATOM      3  C   UNL     1      26.446  25.727  24.841  0.00  0.00    +0.000 C 
ATOM      4  N   UNL     1      26.188  26.955  24.154  0.00  0.00    +0.000 NA
ATOM      5  O   UNL     1      27.731  25.393  25.086  0.00  0.00    +0.000 OA
ATOM      6  C   UNL     1      28.015  24.664  26.417  0.00  0.00    +0.000 C 
ATOM      7  C   UNL     1      29.429  24.128  25.890  0.00  0.00    +0.000 A 
ATOM      8  C   UNL     1      30.676  24.397  26.385  0.00  0.00    +0.000 A 
ATOM      9  C   UNL     1      31.757  23.821  25.743  0.00  0.00    +0.000 A 
ATOM     10  C   UNL     1      31.553  23.015  24.656  0.00  0.00    +0.000 A 
ATOM     11  C   UNL     1      30.244  22.772  24.190  0.00  0.00    +0.000 A 
ATOM     12  C   UNL     1      29.172  23.341  24.824  0.00  0.00    +0.000 A 
ATOM     13  C   UNL     1      27.738  23.193  24.493  0.00  0.00    +0.000 C 
ATOM     14  C   UNL     1      27.325  23.164  26.025  0.00  0.00    +0.000 C 
ENDROOT
BRANCH   1  19
ATOM     15  C   UNL     1      25.137  25.857  31.390  0.00  0.00    +0.000 C 
ATOM     16  C   UNL     1      25.297  25.265  30.006  0.00  0.00    +0.000 A 
ATOM     17  C   UNL     1      24.710  25.870  28.921  0.00  0.00    +0.000 A 
ATOM     18  C   UNL     1      24.849  25.334  27.634  0.00  0.00    +0.000 A 
ATOM     19  C   UNL     1      25.582  24.184  27.442  0.00  0.00    +0.000 A 
ATOM     20  C   UNL     1      26.138  23.625  28.515  0.00  0.00    +0.000 A 
ATOM     21  C   UNL     1      26.019  24.127  29.796  0.00  0.00    +0.000 A 
ENDBRANCH   1  19
TORSDOF 1
ENDMDL
MODEL 4
REMARK VINA RESULT:      -6.7     15.444     16.630
REMARK  Name = 
REMARK  1 active torsions:
REMARK  status: ('A' for Active; 'I' for Inactive)
REMARK    1  A    between atoms: C_5  and  C_6
REMARK                            x       y       z     vdW  Elec       q    Type
REMARK                         _______ _______ _______ _____ _____    ______ ____
ROOT
ATOM      1  C   UNL     1      28.860  23.078  22.940  0.00  0.00    +0.000 C 
ATOM      2  N   UNL     1      27.467  23.261  23.423  0.00  0.00    +0.000 NA
ATOM      3  C   UNL     1      26.746  24.177  23.696  0.00  0.00    +0.000 C 
ATOM      4  N   UNL     1      25.393  24.142  24.160  0.00  0.00    +0.000 NA
ATOM      5  O   UNL     1      27.329  25.382  23.528  0.00  0.00    +0.000 OA
ATOM      6  C   UNL     1      28.833  25.476  23.863  0.00  0.00    +0.000 C 
ATOM      7  C   UNL     1      28.998  26.827  23.020  0.00  0.00    +0.000 A 
ATOM      8  C   UNL     1      29.364  28.067  23.468  0.00  0.00    +0.000 A 
ATOM      9  C   UNL     1      29.422  29.091  22.540  0.00  0.00    +0.000 A 
ATOM     10  C   UNL     1      29.120  28.840  21.229  0.00  0.00    +0.000 A 
ATOM     11  C   UNL     1      28.749  27.540  20.824  0.00  0.00    +0.000 A 
ATOM     12  C   UNL     1      28.691  26.525  21.740  0.00  0.00    +0.000 A 
ATOM     13  C   UNL     1      28.339  25.107  21.505  0.00  0.00    +0.000 C 
ATOM     14  C   UNL     1      29.433  24.602  22.539  0.00  0.00    +0.000 C 
ENDROOT
BRANCH   1  19
ATOM     15  C   UNL     1      31.614  22.619  28.135  0.00  0.00    +0.000 C 
ATOM     16  C   UNL     1      30.888  22.730  26.812  0.00  0.00    +0.000 A 
ATOM     17  C   UNL     1      31.559  23.138  25.684  0.00  0.00    +0.000 A 
ATOM     18  C   UNL     1      30.901  23.246  24.452  0.00  0.00    +0.000 A 
ATOM     19  C   UNL     1      29.561  22.941  24.358  0.00  0.00    +0.000 A 
ATOM     20  C   UNL     1      28.942  22.550  25.471  0.00  0.00    +0.000 A 
ATOM     21  C   UNL     1      29.562  22.434  26.699  0.00  0.00    +0.000 A 
ENDBRANCH   1  19
TORSDOF 1
ENDMDL
MODEL 5
REMARK VINA RESULT:      -6.6     26.749     30.257
REMARK  Name = 
REMARK  1 active torsions:
REMARK  status: ('A' for Active; 'I' for Inactive)
REMARK    1  A    between atoms: C_5  and  C_6
REMARK                            x       y       z     vdW  Elec       q    Type
REMARK                         _______ _______ _______ _____ _____    ______ ____
ROOT
ATOM      1  C   UNL     1      33.772  -5.565  34.267  0.00  0.00    +0.000 C 
ATOM      2  N   UNL     1      32.379  -6.080  34.240  0.00  0.00    +0.000 NA
ATOM      3  C   UNL     1      31.584  -6.420  33.411  0.00  0.00    +0.000 C 
ATOM      4  N   UNL     1      30.250  -6.902  33.596  0.00  0.00    +0.000 NA
ATOM      5  O   UNL     1      32.055  -6.320  32.150  0.00  0.00    +0.000 OA
ATOM      6  C   UNL     1      32.997  -5.133  31.855  0.00  0.00    +0.000 C 
ATOM      7  C   UNL     1      33.561  -5.832  30.529  0.00  0.00    +0.000 A 
ATOM      8  C   UNL     1      33.472  -5.395  29.236  0.00  0.00    +0.000 A 
ATOM      9  C   UNL     1      34.031  -6.191  28.252  0.00  0.00    +0.000 A 
ATOM     10  C   UNL     1      34.644  -7.365  28.592  0.00  0.00    +0.000 A 
ATOM     11  C   UNL     1      34.707  -7.766  29.944  0.00  0.00    +0.000 A 
ATOM     12  C   UNL     1      34.155  -6.981  30.920  0.00  0.00    +0.000 A 
ATOM     13  C   UNL     1      34.133  -7.225  32.379  0.00  0.00    +0.000 C 
ATOM     14  C   UNL     1      34.359  -5.688  32.701  0.00  0.00    +0.000 C 
ENDROOT
BRANCH   1  19
ATOM     15  C   UNL     1      32.353   0.159  34.337  0.00  0.00    +0.000 C 
ATOM     16  C   UNL     1      32.734  -1.305  34.304  0.00  0.00    +0.000 A 
ATOM     17  C   UNL     1      32.038  -2.220  35.057  0.00  0.00    +0.000 A 
ATOM     18  C   UNL     1      32.378  -3.579  35.037  0.00  0.00    +0.000 A 
ATOM     19  C   UNL     1      33.426  -4.016  34.256  0.00  0.00    +0.000 A 
ATOM     20  C   UNL     1      34.078  -3.102  33.539  0.00  0.00    +0.000 A 
ATOM     21  C   UNL     1      33.768  -1.757  33.537  0.00  0.00    +0.000 A 
ENDBRANCH   1  19
TORSDOF 1
ENDMDL
MODEL 6
REMARK VINA RESULT:      -6.6     15.342     16.653
REMARK  Name = 
REMARK  1 active torsions:
REMARK  status: ('A' for Active; 'I' for Inactive)
REMARK    1  A    between atoms: C_5  and  C_6
REMARK                            x       y       z     vdW  Elec       q    Type
REMARK                         _______ _______ _______ _____ _____    ______ ____
ROOT
ATOM      1  C   UNL     1      29.155  23.334  23.387  0.00  0.00    +0.000 C 
ATOM      2  N   UNL     1      27.810  23.032  22.833  0.00  0.00    +0.000 NA
ATOM      3  C   UNL     1      26.942  23.627  22.262  0.00  0.00    +0.000 C 
ATOM      4  N   UNL     1      25.679  23.140  21.798  0.00  0.00    +0.000 NA
ATOM      5  O   UNL     1      27.240  24.926  22.048  0.00  0.00    +0.000 OA
ATOM      6  C   UNL     1      28.050  25.642  23.150  0.00  0.00    +0.000 C 
ATOM      7  C   UNL     1      28.488  26.814  22.150  0.00  0.00    +0.000 A 
ATOM      8  C   UNL     1      28.203  28.150  22.233  0.00  0.00    +0.000 A 
ATOM      9  C   UNL     1      28.686  28.969  21.230  0.00  0.00    +0.000 A 
ATOM     10  C   UNL     1      29.419  28.434  20.206  0.00  0.00    +0.000 A 
ATOM     11  C   UNL     1      29.682  27.048  20.172  0.00  0.00    +0.000 A 
ATOM     12  C   UNL     1      29.206  26.234  21.164  0.00  0.00    +0.000 A 
ATOM     13  C   UNL     1      29.388  24.773  21.307  0.00  0.00    +0.000 C 
ATOM     14  C   UNL     1      29.545  24.885  22.882  0.00  0.00    +0.000 C 
ENDROOT
BRANCH   1  19
ATOM     15  C   UNL     1      27.347  24.522  28.873  0.00  0.00    +0.000 C 
ATOM     16  C   UNL     1      27.827  24.233  27.467  0.00  0.00    +0.000 A 
ATOM     17  C   UNL     1      27.228  23.250  26.717  0.00  0.00    +0.000 A 
ATOM     18  C   UNL     1      27.660  22.971  25.415  0.00  0.00    +0.000 A 
ATOM     19  C   UNL     1      28.702  23.686  24.866  0.00  0.00    +0.000 A 
ATOM     20  C   UNL     1      29.260  24.632  25.621  0.00  0.00    +0.000 A 
ATOM     21  C   UNL     1      28.857  24.931  26.907  0.00  0.00    +0.000 A 
ENDBRANCH   1  19
TORSDOF 1
ENDMDL
MODEL 7
REMARK VINA RESULT:      -6.5     13.553     14.626
REMARK  Name = 
REMARK  1 active torsions:
REMARK  status: ('A' for Active; 'I' for Inactive)
REMARK    1  A    between atoms: C_5  and  C_6
REMARK                            x       y       z     vdW  Elec       q    Type
REMARK                         _______ _______ _______ _____ _____    ______ ____
ROOT
ATOM      1  C   UNL     1      27.346  22.388  25.971  0.00  0.00    +0.000 C 
ATOM      2  N   UNL     1      26.503  23.436  26.603  0.00  0.00    +0.000 NA
ATOM      3  C   UNL     1      26.319  24.612  26.471  0.00  0.00    +0.000 C 
ATOM      4  N   UNL     1      25.435  25.466  27.204  0.00  0.00    +0.000 NA
ATOM      5  O   UNL     1      27.063  25.160  25.488  0.00  0.00    +0.000 OA
ATOM      6  C   UNL     1      28.485  24.591  25.297  0.00  0.00    +0.000 C 
ATOM      7  C   UNL     1      28.594  25.198  23.819  0.00  0.00    +0.000 A 
ATOM      8  C   UNL     1      29.479  26.130  23.348  0.00  0.00    +0.000 A 
ATOM      9  C   UNL     1      29.362  26.509  22.023  0.00  0.00    +0.000 A 
ATOM     10  C   UNL     1      28.389  25.953  21.238  0.00  0.00    +0.000 A 
ATOM     11  C   UNL     1      27.504  24.995  21.778  0.00  0.00    +0.000 A 
ATOM     12  C   UNL     1      27.617  24.618  23.089  0.00  0.00    +0.000 A 
ATOM     13  C   UNL     1      26.798  23.628  23.823  0.00  0.00    +0.000 C 
ATOM     14  C   UNL     1      28.058  23.092  24.626  0.00  0.00    +0.000 C 
ENDROOT
BRANCH   1  19
ATOM     15  C   UNL     1      32.053  22.703  29.510  0.00  0.00    +0.000 C 
ATOM     16  C   UNL     1      30.832  22.629  28.619  0.00  0.00    +0.000 A 
ATOM     17  C   UNL     1      30.957  22.265  27.300  0.00  0.00    +0.000 A 
ATOM     18  C   UNL     1      29.836  22.192  26.463  0.00  0.00    +0.000 A 
ATOM     19  C   UNL     1      28.585  22.487  26.959  0.00  0.00    +0.000 A 
ATOM     20  C   UNL     1      28.501  22.836  28.241  0.00  0.00    +0.000 A 
ATOM     21  C   UNL     1      29.586  22.918  29.092  0.00  0.00    +0.000 A 
ENDBRANCH   1  19
TORSDOF 1
ENDMDL
MODEL 8
REMARK VINA RESULT:      -6.4     25.907     27.739
REMARK  Name = 
REMARK  1 active torsions:
REMARK  status: ('A' for Active; 'I' for Inactive)
REMARK    1  A    between atoms: C_5  and  C_6
REMARK                            x       y       z     vdW  Elec       q    Type
REMARK                         _______ _______ _______ _____ _____    ______ ____
ROOT
ATOM      1  C   UNL     1      24.973   2.312  15.569  0.00  0.00    +0.000 C 
ATOM      2  N   UNL     1      23.763   2.449  16.420  0.00  0.00    +0.000 NA
ATOM      3  C   UNL     1      23.438   3.071  17.390  0.00  0.00    +0.000 C 
ATOM      4  N   UNL     1      22.184   3.061  18.080  0.00  0.00    +0.000 NA
ATOM      5  O   UNL     1      24.415   3.875  17.860  0.00  0.00    +0.000 OA
ATOM      6  C   UNL     1      25.861   3.344  17.749  0.00  0.00    +0.000 C 
ATOM      7  C   UNL     1      26.477   4.811  17.931  0.00  0.00    +0.000 A 
ATOM      8  C   UNL     1      27.288   5.272  18.933  0.00  0.00    +0.000 A 
ATOM      9  C   UNL     1      27.681   6.596  18.877  0.00  0.00    +0.000 A 
ATOM     10  C   UNL     1      27.260   7.390  17.846  0.00  0.00    +0.000 A 
ATOM     11  C   UNL     1      26.423   6.860  16.840  0.00  0.00    +0.000 A 
ATOM     12  C   UNL     1      26.032   5.550  16.892  0.00  0.00    +0.000 A 
ATOM     13  C   UNL     1      25.178   4.818  15.931  0.00  0.00    +0.000 C 
ATOM     14  C   UNL     1      26.048   3.498  16.070  0.00  0.00    +0.000 C 
ENDROOT
BRANCH   1  19
ATOM     15  C   UNL     1      27.563  -2.212  18.326  0.00  0.00    +0.000 C 
ATOM     16  C   UNL     1      26.878  -1.058  17.626  0.00  0.00    +0.000 A 
ATOM     17  C   UNL     1      27.615  -0.146  16.910  0.00  0.00    +0.000 A 
ATOM     18  C   UNL     1      26.996   0.928  16.257  0.00  0.00    +0.000 A 
ATOM     19  C   UNL     1      25.628   1.081  16.327  0.00  0.00    +0.000 A 
ATOM     20  C   UNL     1      24.946   0.178  17.029  0.00  0.00    +0.000 A 
ATOM     21  C   UNL     1      25.526  -0.891  17.684  0.00  0.00    +0.000 A 
ENDBRANCH   1  19
TORSDOF 1
ENDMDL
MODEL 9
REMARK VINA RESULT:      -6.4     10.471     11.776
REMARK  Name = 
REMARK  1 active torsions:
REMARK  status: ('A' for Active; 'I' for Inactive)
REMARK    1  A    between atoms: C_5  and  C_6
REMARK                            x       y       z     vdW  Elec       q    Type
REMARK                         _______ _______ _______ _____ _____    ______ ____
ROOT
ATOM      1  C   UNL     1      24.622  10.130  36.767  0.00  0.00    +0.000 C 
ATOM      2  N   UNL     1      24.659   9.195  37.920  0.00  0.00    +0.000 NA
ATOM      3  C   UNL     1      23.918   8.852  38.797  0.00  0.00    +0.000 C 
ATOM      4  N   UNL     1      24.152   7.908  39.846  0.00  0.00    +0.000 NA
ATOM      5  O   UNL     1      22.716   9.464  38.747  0.00  0.00    +0.000 OA
ATOM      6  C   UNL     1      22.706  10.934  38.279  0.00  0.00    +0.000 C 
ATOM      7  C   UNL     1      21.140  10.881  37.948  0.00  0.00    +0.000 A 
ATOM      8  C   UNL     1      20.129  11.610  38.514  0.00  0.00    +0.000 A 
ATOM      9  C   UNL     1      18.842  11.371  38.066  0.00  0.00    +0.000 A 
ATOM     10  C   UNL     1      18.622  10.436  37.091  0.00  0.00    +0.000 A 
ATOM     11  C   UNL     1      19.704   9.715  36.544  0.00  0.00    +0.000 A 
ATOM     12  C   UNL     1      20.979   9.949  36.985  0.00  0.00    +0.000 A 
ATOM     13  C   UNL     1      22.231   9.308  36.527  0.00  0.00    +0.000 C 
ATOM     14  C   UNL     1      23.039  10.669  36.637  0.00  0.00    +0.000 C 
ENDROOT
BRANCH   1  19
ATOM     15  C   UNL     1      26.788  14.946  39.392  0.00  0.00    +0.000 C 
ATOM     16  C   UNL     1      26.245  13.697  38.731  0.00  0.00    +0.000 A 
ATOM     17  C   UNL     1      25.301  13.792  37.738  0.00  0.00    +0.000 A 
ATOM     18  C   UNL     1      24.788  12.646  37.117  0.00  0.00    +0.000 A 
ATOM     19  C   UNL     1      25.231  11.399  37.501  0.00  0.00    +0.000 A 
ATOM     20  C   UNL     1      26.147  11.344  38.466  0.00  0.00    +0.000 A 
ATOM     21  C   UNL     1      26.672  12.454  39.097  0.00  0.00    +0.000 A 
ENDBRANCH   1  19
TORSDOF 1
ENDMDL
MODEL 10
REMARK VINA RESULT:      -6.1     10.858     12.829
REMARK  Name = 
REMARK  1 active torsions:
REMARK  status: ('A' for Active; 'I' for Inactive)
REMARK    1  A    between atoms: C_5  and  C_6
REMARK                            x       y       z     vdW  Elec       q    Type
REMARK                         _______ _______ _______ _____ _____    ______ ____
ROOT
ATOM      1  C   UNL     1      27.105  24.843  30.518  0.00  0.00    +0.000 C 
ATOM      2  N   UNL     1      26.375  23.561  30.688  0.00  0.00    +0.000 NA
ATOM      3  C   UNL     1      26.583  22.398  30.485  0.00  0.00    +0.000 C 
ATOM      4  N   UNL     1      25.721  21.281  30.725  0.00  0.00    +0.000 NA
ATOM      5  O   UNL     1      27.804  22.159  29.962  0.00  0.00    +0.000 OA
ATOM      6  C   UNL     1      28.351  23.210  28.973  0.00  0.00    +0.000 C 
ATOM      7  C   UNL     1      29.853  22.683  29.151  0.00  0.00    +0.000 A 
ATOM      8  C   UNL     1      30.679  22.139  28.205  0.00  0.00    +0.000 A 
ATOM      9  C   UNL     1      31.940  21.742  28.610  0.00  0.00    +0.000 A 
ATOM     10  C   UNL     1      32.318  21.901  29.915  0.00  0.00    +0.000 A 
ATOM     11  C   UNL     1      31.424  22.468  30.848  0.00  0.00    +0.000 A 
ATOM     12  C   UNL     1      30.175  22.863  30.450  0.00  0.00    +0.000 A 
ATOM     13  C   UNL     1      29.114  23.485  31.272  0.00  0.00    +0.000 C 
ATOM     14  C   UNL     1      28.677  24.447  30.088  0.00  0.00    +0.000 C 
ENDROOT
BRANCH   1  19
ATOM     15  C   UNL     1      24.941  26.107  25.179  0.00  0.00    +0.000 C 
ATOM     16  C   UNL     1      25.515  25.794  26.544  0.00  0.00    +0.000 A 
ATOM     17  C   UNL     1      24.784  25.072  27.456  0.00  0.00    +0.000 A 
ATOM     18  C   UNL     1      25.301  24.774  28.723  0.00  0.00    +0.000 A 
ATOM     19  C   UNL     1      26.562  25.207  29.071  0.00  0.00    +0.000 A 
ATOM     20  C   UNL     1      27.243  25.903  28.163  0.00  0.00    +0.000 A 
ATOM     21  C   UNL     1      26.762  26.213  26.907  0.00  0.00    +0.000 A 
ENDBRANCH   1  19
TORSDOF 1
ENDMDL
