MODEL 1
REMARK VINA RESULT:      -7.1      0.000      0.000
REMARK  Name = 
REMARK  2 active torsions:
REMARK  status: ('A' for Active; 'I' for Inactive)
REMARK    1  A    between atoms: C_2  and  C_15
REMARK    2  A    between atoms: N_3  and  N_4
REMARK                            x       y       z     vdW  Elec       q    Type
REMARK                         _______ _______ _______ _____ _____    ______ ____
ROOT
ATOM      1  N   UNL     1      33.954   3.265  34.254  0.00  0.00    +0.000 NA
ATOM      2  C   UNL     1      34.326   4.116  35.119  0.00  0.00    +0.000 C 
ATOM      3  C   UNL     1      34.693   5.483  34.665  0.00  0.00    +0.000 C 
ATOM      4  C   UNL     1      36.112   5.732  35.195  0.00  0.00    +0.000 C 
ATOM      5  C   UNL     1      36.218   5.446  36.659  0.00  0.00    +0.000 C 
ATOM      6  C   UNL     1      35.314   6.378  37.416  0.00  0.00    +0.000 C 
ATOM      7  C   UNL     1      33.887   6.164  36.903  0.00  0.00    +0.000 C 
ATOM      8  C   UNL     1      33.794   6.447  35.425  0.00  0.00    +0.000 C 
ATOM      9  C   UNL     1      33.463   4.775  37.271  0.00  0.00    +0.000 C 
ATOM     10  C   UNL     1      34.413   3.814  36.553  0.00  0.00    +0.000 C 
ATOM     11  C   UNL     1      35.835   4.031  37.024  0.00  0.00    +0.000 C 
ENDROOT
BRANCH   1  14
ATOM     12  O   UNL     1      34.040   1.121  32.474  0.00  0.00    +0.000 OA
ATOM     13  C   UNL     1      33.637   0.888  33.642  0.00  0.00    +0.000 C 
ATOM     14  N   UNL     1      33.584   1.952  34.556  0.00  0.00    +0.000 NA
BRANCH  13  15
ATOM     15  C   UNL     1      33.250  -0.478  33.963  0.00  0.00    +0.000 A 
ATOM     16  C   UNL     1      33.828  -1.552  33.346  0.00  0.00    +0.000 A 
ATOM     17  C   UNL     1      33.434  -2.820  33.678  0.00  0.00    +0.000 A 
ATOM     18  C   UNL     1      32.458  -2.983  34.634  0.00  0.00    +0.000 A 
ATOM     19  N   UNL     1      31.894  -1.904  35.237  0.00  0.00    +0.000 NA
ATOM     20  C   UNL     1      32.279  -0.664  34.912  0.00  0.00    +0.000 A 
ENDBRANCH  13  15
ENDBRANCH   1  14
TORSDOF 2
ENDMDL
MODEL 2
REMARK VINA RESULT:      -7.1     21.008     22.575
REMARK  Name = 
REMARK  2 active torsions:
REMARK  status: ('A' for Active; 'I' for Inactive)
REMARK    1  A    between atoms: C_2  and  C_15
REMARK    2  A    between atoms: N_3  and  N_4
REMARK                            x       y       z     vdW  Elec       q    Type
REMARK                         _______ _______ _______ _____ _____    ______ ____
ROOT
ATOM      1  N   UNL     1      14.115  13.501  34.029  0.00  0.00    +0.000 NA
ATOM      2  C   UNL     1      14.442  13.210  32.837  0.00  0.00    +0.000 C 
ATOM      3  C   UNL     1      14.055  14.139  31.743  0.00  0.00    +0.000 C 
ATOM      4  C   UNL     1      13.273  13.288  30.731  0.00  0.00    +0.000 C 
ATOM      5  C   UNL     1      14.022  12.053  30.347  0.00  0.00    +0.000 C 
ATOM      6  C   UNL     1      15.309  12.438  29.671  0.00  0.00    +0.000 C 
ATOM      7  C   UNL     1      16.111  13.299  30.652  0.00  0.00    +0.000 C 
ATOM      8  C   UNL     1      15.342  14.538  31.039  0.00  0.00    +0.000 C 
ATOM      9  C   UNL     1      16.489  12.444  31.822  0.00  0.00    +0.000 C 
ATOM     10  C   UNL     1      15.186  11.994  32.486  0.00  0.00    +0.000 C 
ATOM     11  C   UNL     1      14.364  11.167  31.521  0.00  0.00    +0.000 C 
ENDROOT
BRANCH   1  14
ATOM     12  O   UNL     1      12.489  13.183  36.271  0.00  0.00    +0.000 OA
ATOM     13  C   UNL     1      13.585  12.566  36.258  0.00  0.00    +0.000 C 
ATOM     14  N   UNL     1      14.420  12.711  35.140  0.00  0.00    +0.000 NA
BRANCH  13  15
ATOM     15  C   UNL     1      13.910  11.741  37.413  0.00  0.00    +0.000 A 
ATOM     16  C   UNL     1      12.938  11.236  38.230  0.00  0.00    +0.000 A 
ATOM     17  C   UNL     1      13.288  10.465  39.305  0.00  0.00    +0.000 A 
ATOM     18  C   UNL     1      14.620  10.215  39.538  0.00  0.00    +0.000 A 
ATOM     19  N   UNL     1      15.573  10.725  38.715  0.00  0.00    +0.000 NA
ATOM     20  C   UNL     1      15.231  11.480  37.664  0.00  0.00    +0.000 A 
ENDBRANCH  13  15
ENDBRANCH   1  14
TORSDOF 2
ENDMDL
MODEL 3
REMARK VINA RESULT:      -6.6      4.329     10.228
REMARK  Name = 
REMARK  2 active torsions:
REMARK  status: ('A' for Active; 'I' for Inactive)
REMARK    1  A    between atoms: C_2  and  C_15
REMARK    2  A    between atoms: N_3  and  N_4
REMARK                            x       y       z     vdW  Elec       q    Type
REMARK                         _______ _______ _______ _____ _____    ______ ____
ROOT
ATOM      1  N   UNL     1      33.854  -5.146  32.589  0.00  0.00    +0.000 NA
ATOM      2  C   UNL     1      33.695  -5.867  31.557  0.00  0.00    +0.000 C 
ATOM      3  C   UNL     1      34.055  -7.308  31.628  0.00  0.00    +0.000 C 
ATOM      4  C   UNL     1      35.048  -7.547  30.482  0.00  0.00    +0.000 C 
ATOM      5  C   UNL     1      34.527  -7.037  29.178  0.00  0.00    +0.000 C 
ATOM      6  C   UNL     1      33.273  -7.784  28.815  0.00  0.00    +0.000 C 
ATOM      7  C   UNL     1      32.261  -7.575  29.945  0.00  0.00    +0.000 C 
ATOM      8  C   UNL     1      32.802  -8.086  31.258  0.00  0.00    +0.000 C 
ATOM      9  C   UNL     1      31.892  -6.123  29.978  0.00  0.00    +0.000 C 
ATOM     10  C   UNL     1      33.172  -5.344  30.289  0.00  0.00    +0.000 C 
ATOM     11  C   UNL     1      34.197  -5.563  29.197  0.00  0.00    +0.000 C 
ENDROOT
BRANCH   1  14
ATOM     12  O   UNL     1      34.406  -3.467  34.746  0.00  0.00    +0.000 OA
ATOM     13  C   UNL     1      33.842  -2.958  33.744  0.00  0.00    +0.000 C 
ATOM     14  N   UNL     1      33.553  -3.783  32.647  0.00  0.00    +0.000 NA
BRANCH  13  15
ATOM     15  C   UNL     1      33.525  -1.537  33.797  0.00  0.00    +0.000 A 
ATOM     16  C   UNL     1      34.181  -0.626  33.018  0.00  0.00    +0.000 A 
ATOM     17  C   UNL     1      33.851   0.699  33.099  0.00  0.00    +0.000 A 
ATOM     18  C   UNL     1      32.859   1.085  33.971  0.00  0.00    +0.000 A 
ATOM     19  N   UNL     1      32.217   0.165  34.738  0.00  0.00    +0.000 NA
ATOM     20  C   UNL     1      32.540  -1.131  34.659  0.00  0.00    +0.000 A 
ENDBRANCH  13  15
ENDBRANCH   1  14
TORSDOF 2
ENDMDL
MODEL 4
REMARK VINA RESULT:      -6.6     30.653     31.974
REMARK  Name = 
REMARK  2 active torsions:
REMARK  status: ('A' for Active; 'I' for Inactive)
REMARK    1  A    between atoms: C_2  and  C_15
REMARK    2  A    between atoms: N_3  and  N_4
REMARK                            x       y       z     vdW  Elec       q    Type
REMARK                         _______ _______ _______ _____ _____    ______ ____
ROOT
ATOM      1  N   UNL     1      32.425  22.269  11.393  0.00  0.00    +0.000 NA
ATOM      2  C   UNL     1      33.009  21.876  10.337  0.00  0.00    +0.000 C 
ATOM      3  C   UNL     1      34.429  21.447  10.422  0.00  0.00    +0.000 C 
ATOM      4  C   UNL     1      35.185  22.296   9.390  0.00  0.00    +0.000 C 
ATOM      5  C   UNL     1      34.535  22.245   8.045  0.00  0.00    +0.000 C 
ATOM      6  C   UNL     1      34.560  20.832   7.531  0.00  0.00    +0.000 C 
ATOM      7  C   UNL     1      33.823  19.953   8.546  0.00  0.00    +0.000 C 
ATOM      8  C   UNL     1      34.482  20.019   9.900  0.00  0.00    +0.000 C 
ATOM      9  C   UNL     1      32.384  20.369   8.563  0.00  0.00    +0.000 C 
ATOM     10  C   UNL     1      32.346  21.826   9.028  0.00  0.00    +0.000 C 
ATOM     11  C   UNL     1      33.097  22.707   8.054  0.00  0.00    +0.000 C 
ENDROOT
BRANCH   1  14
ATOM     12  O   UNL     1      30.549  21.474  13.296  0.00  0.00    +0.000 OA
ATOM     13  C   UNL     1      30.169  22.281  12.410  0.00  0.00    +0.000 C 
ATOM     14  N   UNL     1      31.095  22.695  11.442  0.00  0.00    +0.000 NA
BRANCH  13  15
ATOM     15  C   UNL     1      28.784  22.730  12.454  0.00  0.00    +0.000 A 
ATOM     16  C   UNL     1      28.321  23.532  13.460  0.00  0.00    +0.000 A 
ATOM     17  C   UNL     1      27.013  23.931  13.462  0.00  0.00    +0.000 A 
ATOM     18  C   UNL     1      26.188  23.512  12.443  0.00  0.00    +0.000 A 
ATOM     19  N   UNL     1      26.666  22.715  11.451  0.00  0.00    +0.000 NA
ATOM     20  C   UNL     1      27.946  22.324  11.449  0.00  0.00    +0.000 A 
ENDBRANCH  13  15
ENDBRANCH   1  14
TORSDOF 2
ENDMDL
MODEL 5
REMARK VINA RESULT:      -6.5     19.518     21.205
REMARK  Name = 
REMARK  2 active torsions:
REMARK  status: ('A' for Active; 'I' for Inactive)
REMARK    1  A    between atoms: C_2  and  C_15
REMARK    2  A    between atoms: N_3  and  N_4
REMARK                            x       y       z     vdW  Elec       q    Type
REMARK                         _______ _______ _______ _____ _____    ______ ____
ROOT
ATOM      1  N   UNL     1      14.894  12.559  34.130  0.00  0.00    +0.000 NA
ATOM      2  C   UNL     1      14.936  12.647  32.864  0.00  0.00    +0.000 C 
ATOM      3  C   UNL     1      13.962  13.536  32.177  0.00  0.00    +0.000 C 
ATOM      4  C   UNL     1      13.247  12.652  31.145  0.00  0.00    +0.000 C 
ATOM      5  C   UNL     1      14.215  11.905  30.286  0.00  0.00    +0.000 C 
ATOM      6  C   UNL     1      15.046  12.884  29.502  0.00  0.00    +0.000 C 
ATOM      7  C   UNL     1      15.767  13.791  30.504  0.00  0.00    +0.000 C 
ATOM      8  C   UNL     1      14.780  14.532  31.371  0.00  0.00    +0.000 C 
ATOM      9  C   UNL     1      16.731  12.950  31.284  0.00  0.00    +0.000 C 
ATOM     10  C   UNL     1      15.903  11.910  32.042  0.00  0.00    +0.000 C 
ATOM     11  C   UNL     1      15.158  11.022  31.069  0.00  0.00    +0.000 C 
ENDROOT
BRANCH   1  14
ATOM     12  O   UNL     1      14.783  12.256  36.899  0.00  0.00    +0.000 OA
ATOM     13  C   UNL     1      15.678  11.623  36.282  0.00  0.00    +0.000 C 
ATOM     14  N   UNL     1      15.753  11.760  34.888  0.00  0.00    +0.000 NA
BRANCH  13  15
ATOM     15  C   UNL     1      16.577  10.788  37.066  0.00  0.00    +0.000 A 
ATOM     16  C   UNL     1      16.412  10.622  38.413  0.00  0.00    +0.000 A 
ATOM     17  C   UNL     1      17.280   9.829  39.111  0.00  0.00    +0.000 A 
ATOM     18  C   UNL     1      18.308   9.212  38.435  0.00  0.00    +0.000 A 
ATOM     19  N   UNL     1      18.457   9.389  37.096  0.00  0.00    +0.000 NA
ATOM     20  C   UNL     1      17.608  10.165  36.413  0.00  0.00    +0.000 A 
ENDBRANCH  13  15
ENDBRANCH   1  14
TORSDOF 2
ENDMDL
MODEL 6
REMARK VINA RESULT:      -6.4      5.449      7.761
REMARK  Name = 
REMARK  2 active torsions:
REMARK  status: ('A' for Active; 'I' for Inactive)
REMARK    1  A    between atoms: C_2  and  C_15
REMARK    2  A    between atoms: N_3  and  N_4
REMARK                            x       y       z     vdW  Elec       q    Type
REMARK                         _______ _______ _______ _____ _____    ______ ____
ROOT
ATOM      1  N   UNL     1      34.669  -4.650  33.937  0.00  0.00    +0.000 NA
ATOM      2  C   UNL     1      34.256  -3.579  34.479  0.00  0.00    +0.000 C 
ATOM      3  C   UNL     1      34.769  -3.216  35.826  0.00  0.00    +0.000 C 
ATOM      4  C   UNL     1      33.526  -3.022  36.707  0.00  0.00    +0.000 C 
ATOM      5  C   UNL     1      32.538  -2.094  36.078  0.00  0.00    +0.000 C 
ATOM      6  C   UNL     1      33.160  -0.735  35.920  0.00  0.00    +0.000 C 
ATOM      7  C   UNL     1      34.413  -0.893  35.053  0.00  0.00    +0.000 C 
ATOM      8  C   UNL     1      35.399  -1.838  35.692  0.00  0.00    +0.000 C 
ATOM      9  C   UNL     1      33.981  -1.321  33.683  0.00  0.00    +0.000 C 
ATOM     10  C   UNL     1      33.291  -2.678  33.837  0.00  0.00    +0.000 C 
ATOM     11  C   UNL     1      32.067  -2.549  34.717  0.00  0.00    +0.000 C 
ENDROOT
BRANCH   1  14
ATOM     12  O   UNL     1      36.251  -6.103  32.159  0.00  0.00    +0.000 OA
ATOM     13  C   UNL     1      35.078  -5.829  31.800  0.00  0.00    +0.000 C 
ATOM     14  N   UNL     1      34.263  -5.098  32.677  0.00  0.00    +0.000 NA
BRANCH  13  15
ATOM     15  C   UNL     1      34.648  -6.292  30.488  0.00  0.00    +0.000 A 
ATOM     16  C   UNL     1      33.943  -5.486  29.638  0.00  0.00    +0.000 A 
ATOM     17  C   UNL     1      33.558  -5.962  28.414  0.00  0.00    +0.000 A 
ATOM     18  C   UNL     1      33.893  -7.251  28.066  0.00  0.00    +0.000 A 
ATOM     19  N   UNL     1      34.594  -8.038  28.924  0.00  0.00    +0.000 NA
ATOM     20  C   UNL     1      34.970  -7.573  30.121  0.00  0.00    +0.000 A 
ENDBRANCH  13  15
ENDBRANCH   1  14
TORSDOF 2
ENDMDL
MODEL 7
REMARK VINA RESULT:      -6.4     18.043     19.608
REMARK  Name = 
REMARK  2 active torsions:
REMARK  status: ('A' for Active; 'I' for Inactive)
REMARK    1  A    between atoms: C_2  and  C_15
REMARK    2  A    between atoms: N_3  and  N_4
REMARK                            x       y       z     vdW  Elec       q    Type
REMARK                         _______ _______ _______ _____ _____    ______ ____
ROOT
ATOM      1  N   UNL     1      23.310  -9.124  25.274  0.00  0.00    +0.000 NA
ATOM      2  C   UNL     1      24.120  -9.015  24.302  0.00  0.00    +0.000 C 
ATOM      3  C   UNL     1      25.071 -10.125  24.036  0.00  0.00    +0.000 C 
ATOM      4  C   UNL     1      26.468  -9.487  24.038  0.00  0.00    +0.000 C 
ATOM      5  C   UNL     1      26.538  -8.297  23.137  0.00  0.00    +0.000 C 
ATOM      6  C   UNL     1      26.270  -8.726  21.721  0.00  0.00    +0.000 C 
ATOM      7  C   UNL     1      24.885  -9.378  21.685  0.00  0.00    +0.000 C 
ATOM      8  C   UNL     1      24.824 -10.573  22.604  0.00  0.00    +0.000 C 
ATOM      9  C   UNL     1      23.867  -8.328  22.006  0.00  0.00    +0.000 C 
ATOM     10  C   UNL     1      24.162  -7.838  23.425  0.00  0.00    +0.000 C 
ATOM     11  C   UNL     1      25.541  -7.217  23.489  0.00  0.00    +0.000 C 
ENDROOT
BRANCH   1  14
ATOM     12  O   UNL     1      20.579  -9.574  25.610  0.00  0.00    +0.000 OA
ATOM     13  C   UNL     1      21.000  -8.402  25.788  0.00  0.00    +0.000 C 
ATOM     14  N   UNL     1      22.370  -8.151  25.624  0.00  0.00    +0.000 NA
BRANCH  13  15
ATOM     15  C   UNL     1      20.026  -7.383  26.152  0.00  0.00    +0.000 A 
ATOM     16  C   UNL     1      20.178  -6.077  25.776  0.00  0.00    +0.000 A 
ATOM     17  C   UNL     1      19.238  -5.152  26.140  0.00  0.00    +0.000 A 
ATOM     18  C   UNL     1      18.155  -5.561  26.883  0.00  0.00    +0.000 A 
ATOM     19  N   UNL     1      18.020  -6.863  27.249  0.00  0.00    +0.000 NA
ATOM     20  C   UNL     1      18.939  -7.768  26.892  0.00  0.00    +0.000 A 
ENDBRANCH  13  15
ENDBRANCH   1  14
TORSDOF 2
ENDMDL
MODEL 8
REMARK VINA RESULT:      -6.3     26.826     29.573
REMARK  Name = 
REMARK  2 active torsions:
REMARK  status: ('A' for Active; 'I' for Inactive)
REMARK    1  A    between atoms: C_2  and  C_15
REMARK    2  A    between atoms: N_3  and  N_4
REMARK                            x       y       z     vdW  Elec       q    Type
REMARK                         _______ _______ _______ _____ _____    ______ ____
ROOT
ATOM      1  N   UNL     1      30.237  26.493  19.460  0.00  0.00    +0.000 NA
ATOM      2  C   UNL     1      30.323  27.475  18.660  0.00  0.00    +0.000 C 
ATOM      3  C   UNL     1      31.411  27.479  17.647  0.00  0.00    +0.000 C 
ATOM      4  C   UNL     1      32.167  28.800  17.852  0.00  0.00    +0.000 C 
ATOM      5  C   UNL     1      31.242  29.974  17.867  0.00  0.00    +0.000 C 
ATOM      6  C   UNL     1      30.553  30.084  16.535  0.00  0.00    +0.000 C 
ATOM      7  C   UNL     1      29.796  28.775  16.293  0.00  0.00    +0.000 C 
ATOM      8  C   UNL     1      30.738  27.597  16.289  0.00  0.00    +0.000 C 
ATOM      9  C   UNL     1      28.711  28.666  17.321  0.00  0.00    +0.000 C 
ATOM     10  C   UNL     1      29.396  28.613  18.688  0.00  0.00    +0.000 C 
ATOM     11  C   UNL     1      30.176  29.887  18.934  0.00  0.00    +0.000 C 
ENDROOT
BRANCH   1  14
ATOM     12  O   UNL     1      29.731  24.192  20.950  0.00  0.00    +0.000 OA
ATOM     13  C   UNL     1      29.025  25.205  21.190  0.00  0.00    +0.000 C 
ATOM     14  N   UNL     1      29.261  26.374  20.452  0.00  0.00    +0.000 NA
BRANCH  13  15
ATOM     15  C   UNL     1      28.006  25.088  22.223  0.00  0.00    +0.000 A 
ATOM     16  C   UNL     1      27.771  26.095  23.117  0.00  0.00    +0.000 A 
ATOM     17  C   UNL     1      26.803  25.944  24.072  0.00  0.00    +0.000 A 
ATOM     18  C   UNL     1      26.083  24.771  24.109  0.00  0.00    +0.000 A 
ATOM     19  N   UNL     1      26.330  23.781  23.212  0.00  0.00    +0.000 NA
ATOM     20  C   UNL     1      27.277  23.929  22.278  0.00  0.00    +0.000 A 
ENDBRANCH  13  15
ENDBRANCH   1  14
TORSDOF 2
ENDMDL
MODEL 9
REMARK VINA RESULT:      -6.3     18.123     19.860
REMARK  Name = 
REMARK  2 active torsions:
REMARK  status: ('A' for Active; 'I' for Inactive)
REMARK    1  A    between atoms: C_2  and  C_15
REMARK    2  A    between atoms: N_3  and  N_4
REMARK                            x       y       z     vdW  Elec       q    Type
REMARK                         _______ _______ _______ _____ _____    ______ ____
ROOT
ATOM      1  N   UNL     1      17.960   9.352  39.500  0.00  0.00    +0.000 NA
ATOM      2  C   UNL     1      17.588   8.908  40.630  0.00  0.00    +0.000 C 
ATOM      3  C   UNL     1      18.552   8.117  41.439  0.00  0.00    +0.000 C 
ATOM      4  C   UNL     1      17.846   6.788  41.746  0.00  0.00    +0.000 C 
ATOM      5  C   UNL     1      16.484   7.002  42.321  0.00  0.00    +0.000 C 
ATOM      6  C   UNL     1      16.604   7.730  43.631  0.00  0.00    +0.000 C 
ATOM      7  C   UNL     1      17.315   9.059  43.363  0.00  0.00    +0.000 C 
ATOM      8  C   UNL     1      18.685   8.831  42.774  0.00  0.00    +0.000 C 
ATOM      9  C   UNL     1      16.426   9.897  42.496  0.00  0.00    +0.000 C 
ATOM     10  C   UNL     1      16.247   9.140  41.178  0.00  0.00    +0.000 C 
ATOM     11  C   UNL     1      15.572   7.808  41.426  0.00  0.00    +0.000 C 
ENDROOT
BRANCH   1  14
ATOM     12  O   UNL     1      18.162   9.413  36.720  0.00  0.00    +0.000 OA
ATOM     13  C   UNL     1      17.269  10.121  37.252  0.00  0.00    +0.000 C 
ATOM     14  N   UNL     1      17.148  10.107  38.649  0.00  0.00    +0.000 NA
BRANCH  13  15
ATOM     15  C   UNL     1      16.419  10.911  36.371  0.00  0.00    +0.000 A 
ATOM     16  C   UNL     1      16.568  10.880  35.013  0.00  0.00    +0.000 A 
ATOM     17  C   UNL     1      15.748  11.639  34.223  0.00  0.00    +0.000 A 
ATOM     18  C   UNL     1      14.785  12.419  34.820  0.00  0.00    +0.000 A 
ATOM     19  N   UNL     1      14.651  12.437  36.172  0.00  0.00    +0.000 NA
ATOM     20  C   UNL     1      15.454  11.696  36.945  0.00  0.00    +0.000 A 
ENDBRANCH  13  15
ENDBRANCH   1  14
TORSDOF 2
ENDMDL
MODEL 10
REMARK VINA RESULT:      -6.3     19.061     20.308
REMARK  Name = 
REMARK  2 active torsions:
REMARK  status: ('A' for Active; 'I' for Inactive)
REMARK    1  A    between atoms: C_2  and  C_15
REMARK    2  A    between atoms: N_3  and  N_4
REMARK                            x       y       z     vdW  Elec       q    Type
REMARK                         _______ _______ _______ _____ _____    ______ ____
ROOT
ATOM      1  N   UNL     1      25.438   4.229  18.846  0.00  0.00    +0.000 NA
ATOM      2  C   UNL     1      26.191   4.908  18.082  0.00  0.00    +0.000 C 
ATOM      3  C   UNL     1      27.584   5.189  18.517  0.00  0.00    +0.000 C 
ATOM      4  C   UNL     1      27.739   6.716  18.458  0.00  0.00    +0.000 C 
ATOM      5  C   UNL     1      27.311   7.268  17.137  0.00  0.00    +0.000 C 
ATOM      6  C   UNL     1      28.192   6.710  16.053  0.00  0.00    +0.000 C 
ATOM      7  C   UNL     1      28.069   5.184  16.091  0.00  0.00    +0.000 C 
ATOM      8  C   UNL     1      28.496   4.639  17.432  0.00  0.00    +0.000 C 
ATOM      9  C   UNL     1      26.664   4.820  15.721  0.00  0.00    +0.000 C 
ATOM     10  C   UNL     1      25.749   5.432  16.784  0.00  0.00    +0.000 C 
ATOM     11  C   UNL     1      25.879   6.940  16.783  0.00  0.00    +0.000 C 
ENDROOT
BRANCH   1  14
ATOM     12  O   UNL     1      24.553   1.721  18.009  0.00  0.00    +0.000 OA
ATOM     13  C   UNL     1      23.692   2.629  18.130  0.00  0.00    +0.000 C 
ATOM     14  N   UNL     1      24.113   3.900  18.550  0.00  0.00    +0.000 NA
BRANCH  13  15
ATOM     15  C   UNL     1      22.308   2.293  17.823  0.00  0.00    +0.000 A 
ATOM     16  C   UNL     1      21.273   3.106  18.192  0.00  0.00    +0.000 A 
ATOM     17  C   UNL     1      19.988   2.752  17.882  0.00  0.00    +0.000 A 
ATOM     18  C   UNL     1      19.768   1.577  17.201  0.00  0.00    +0.000 A 
ATOM     19  N   UNL     1      20.810   0.781  16.842  0.00  0.00    +0.000 NA
ATOM     20  C   UNL     1      22.066   1.127  17.145  0.00  0.00    +0.000 A 
ENDBRANCH  13  15
ENDBRANCH   1  14
TORSDOF 2
ENDMDL
