MODEL 1
REMARK VINA RESULT:      -7.2      0.000      0.000
REMARK  Name = 
REMARK  2 active torsions:
REMARK  status: ('A' for Active; 'I' for Inactive)
REMARK    1  A    between atoms: C_4  and  N_5
REMARK    2  A    between atoms: N_5  and  N_6
REMARK                            x       y       z     vdW  Elec       q    Type
REMARK                         _______ _______ _______ _____ _____    ______ ____
ROOT
ATOM      1  N   UNL     1      15.311  11.652  36.464  0.00  0.00    +0.000 NA
ATOM      2  C   UNL     1      15.210  11.910  35.072  0.00  0.00    +0.000 A 
ATOM      3  N   UNL     1      14.494  12.823  34.487  0.00  0.00    +0.000 NA
ATOM      4  C   UNL     1      14.522  12.934  33.181  0.00  0.00    +0.000 A 
ATOM      5  C   UNL     1      13.797  13.879  32.438  0.00  0.00    +0.000 A 
ATOM      6  C   UNL     1      13.908  13.898  31.083  0.00  0.00    +0.000 A 
ATOM      7  C   UNL     1      14.715  13.022  30.331  0.00  0.00    +0.000 A 
ATOM      8  C   UNL     1      15.414  12.106  31.088  0.00  0.00    +0.000 A 
ATOM      9  C   UNL     1      15.304  12.085  32.463  0.00  0.00    +0.000 A 
ATOM     10  S   UNL     1      15.982  11.135  33.762  0.00  0.00    +0.000 S 
ENDROOT
BRANCH   1  11
ATOM     11  N   UNL     1      16.416  11.993  37.183  0.00  0.00    +0.000 NA
BRANCH  11  15
ATOM     12  C   UNL     1      20.715  12.233  38.986  0.00  0.00    +0.000 C 
ATOM     13  C   UNL     1      19.985  11.147  38.006  0.00  0.00    +0.000 C 
ATOM     14  C   UNL     1      18.688  12.082  37.780  0.00  0.00    +0.000 C 
ATOM     15  C   UNL     1      17.624  11.404  37.429  0.00  0.00    +0.000 C 
ATOM     16  C   UNL     1      17.790   9.927  37.309  0.00  0.00    +0.000 C 
ATOM     17  C   UNL     1      18.248   9.446  38.667  0.00  0.00    +0.000 C 
ATOM     18  C   UNL     1      19.290  10.350  39.281  0.00  0.00    +0.000 C 
ENDBRANCH  11  15
ENDBRANCH   1  11
TORSDOF 2
ENDMDL
MODEL 2
REMARK VINA RESULT:      -6.4      2.855      4.224
REMARK  Name = 
REMARK  2 active torsions:
REMARK  status: ('A' for Active; 'I' for Inactive)
REMARK    1  A    between atoms: C_4  and  N_5
REMARK    2  A    between atoms: N_5  and  N_6
REMARK                            x       y       z     vdW  Elec       q    Type
REMARK                         _______ _______ _______ _____ _____    ______ ____
ROOT
ATOM      1  N   UNL     1      18.763   9.527  37.711  0.00  0.00    +0.000 NA
ATOM      2  C   UNL     1      17.923  10.080  36.709  0.00  0.00    +0.000 A 
ATOM      3  N   UNL     1      18.039   9.950  35.422  0.00  0.00    +0.000 NA
ATOM      4  C   UNL     1      17.165  10.522  34.629  0.00  0.00    +0.000 A 
ATOM      5  C   UNL     1      17.183  10.451  33.226  0.00  0.00    +0.000 A 
ATOM      6  C   UNL     1      16.220  11.088  32.509  0.00  0.00    +0.000 A 
ATOM      7  C   UNL     1      15.167  11.840  33.067  0.00  0.00    +0.000 A 
ATOM      8  C   UNL     1      15.176  11.891  34.444  0.00  0.00    +0.000 A 
ATOM      9  C   UNL     1      16.152  11.245  35.176  0.00  0.00    +0.000 A 
ATOM     10  S   UNL     1      16.530  11.053  36.870  0.00  0.00    +0.000 S 
ENDROOT
BRANCH   1  11
ATOM     11  N   UNL     1      18.370   8.475  38.482  0.00  0.00    +0.000 NA
BRANCH  11  15
ATOM     12  C   UNL     1      16.329   9.764  42.477  0.00  0.00    +0.000 C 
ATOM     13  C   UNL     1      17.534   8.711  42.139  0.00  0.00    +0.000 C 
ATOM     14  C   UNL     1      17.648   9.191  40.602  0.00  0.00    +0.000 C 
ATOM     15  C   UNL     1      18.176   8.282  39.820  0.00  0.00    +0.000 C 
ATOM     16  C   UNL     1      18.563   6.996  40.468  0.00  0.00    +0.000 C 
ATOM     17  C   UNL     1      17.297   6.438  41.080  0.00  0.00    +0.000 C 
ATOM     18  C   UNL     1      16.469   7.497  41.767  0.00  0.00    +0.000 C 
ENDBRANCH  11  15
ENDBRANCH   1  11
TORSDOF 2
ENDMDL
MODEL 3
REMARK VINA RESULT:      -6.3     22.305     24.648
REMARK  Name = 
REMARK  2 active torsions:
REMARK  status: ('A' for Active; 'I' for Inactive)
REMARK    1  A    between atoms: C_4  and  N_5
REMARK    2  A    between atoms: N_5  and  N_6
REMARK                            x       y       z     vdW  Elec       q    Type
REMARK                         _______ _______ _______ _____ _____    ______ ____
ROOT
ATOM      1  N   UNL     1      29.714  25.226  20.214  0.00  0.00    +0.000 NA
ATOM      2  C   UNL     1      29.172  24.684  21.409  0.00  0.00    +0.000 A 
ATOM      3  N   UNL     1      29.815  24.093  22.371  0.00  0.00    +0.000 NA
ATOM      4  C   UNL     1      29.160  23.655  23.419  0.00  0.00    +0.000 A 
ATOM      5  C   UNL     1      29.742  23.005  24.519  0.00  0.00    +0.000 A 
ATOM      6  C   UNL     1      28.958  22.595  25.551  0.00  0.00    +0.000 A 
ATOM      7  C   UNL     1      27.562  22.770  25.616  0.00  0.00    +0.000 A 
ATOM      8  C   UNL     1      27.019  23.410  24.523  0.00  0.00    +0.000 A 
ATOM      9  C   UNL     1      27.813  23.828  23.474  0.00  0.00    +0.000 A 
ATOM     10  S   UNL     1      27.555  24.646  21.953  0.00  0.00    +0.000 S 
ENDROOT
BRANCH   1  11
ATOM     11  N   UNL     1      29.835  26.569  20.022  0.00  0.00    +0.000 NA
BRANCH  11  15
ATOM     12  C   UNL     1      29.528  27.469  15.452  0.00  0.00    +0.000 C 
ATOM     13  C   UNL     1      30.449  28.103  16.646  0.00  0.00    +0.000 C 
ATOM     14  C   UNL     1      30.008  26.975  17.713  0.00  0.00    +0.000 C 
ATOM     15  C   UNL     1      30.145  27.364  18.956  0.00  0.00    +0.000 C 
ATOM     16  C   UNL     1      30.666  28.746  19.162  0.00  0.00    +0.000 C 
ATOM     17  C   UNL     1      29.689  29.669  18.467  0.00  0.00    +0.000 C 
ATOM     18  C   UNL     1      29.249  29.141  17.123  0.00  0.00    +0.000 C 
ENDBRANCH  11  15
ENDBRANCH   1  11
TORSDOF 2
ENDMDL
MODEL 4
REMARK VINA RESULT:      -6.2      2.689      4.127
REMARK  Name = 
REMARK  2 active torsions:
REMARK  status: ('A' for Active; 'I' for Inactive)
REMARK    1  A    between atoms: C_4  and  N_5
REMARK    2  A    between atoms: N_5  and  N_6
REMARK                            x       y       z     vdW  Elec       q    Type
REMARK                         _______ _______ _______ _____ _____    ______ ____
ROOT
ATOM      1  N   UNL     1      18.257   9.806  37.030  0.00  0.00    +0.000 NA
ATOM      2  C   UNL     1      17.139  10.604  36.674  0.00  0.00    +0.000 A 
ATOM      3  N   UNL     1      16.010  10.710  37.308  0.00  0.00    +0.000 NA
ATOM      4  C   UNL     1      15.077  11.506  36.845  0.00  0.00    +0.000 A 
ATOM      5  C   UNL     1      13.821  11.706  37.441  0.00  0.00    +0.000 A 
ATOM      6  C   UNL     1      12.932  12.560  36.867  0.00  0.00    +0.000 A 
ATOM      7  C   UNL     1      13.167  13.288  35.684  0.00  0.00    +0.000 A 
ATOM      8  C   UNL     1      14.407  13.070  35.123  0.00  0.00    +0.000 A 
ATOM      9  C   UNL     1      15.312  12.205  35.704  0.00  0.00    +0.000 A 
ATOM     10  S   UNL     1      16.930  11.655  35.345  0.00  0.00    +0.000 S 
ENDROOT
BRANCH   1  11
ATOM     11  N   UNL     1      19.395  10.348  37.545  0.00  0.00    +0.000 NA
BRANCH  11  15
ATOM     12  C   UNL     1      23.691  10.038  35.743  0.00  0.00    +0.000 C 
ATOM     13  C   UNL     1      22.983   9.343  37.044  0.00  0.00    +0.000 C 
ATOM     14  C   UNL     1      21.509   9.865  36.638  0.00  0.00    +0.000 C 
ATOM     15  C   UNL     1      20.692   9.935  37.659  0.00  0.00    +0.000 C 
ATOM     16  C   UNL     1      21.252   9.537  38.982  0.00  0.00    +0.000 C 
ATOM     17  C   UNL     1      22.426  10.456  39.234  0.00  0.00    +0.000 C 
ATOM     18  C   UNL     1      23.275  10.662  38.003  0.00  0.00    +0.000 C 
ENDBRANCH  11  15
ENDBRANCH   1  11
TORSDOF 2
ENDMDL
MODEL 5
REMARK VINA RESULT:      -6.1     22.463     24.566
REMARK  Name = 
REMARK  2 active torsions:
REMARK  status: ('A' for Active; 'I' for Inactive)
REMARK    1  A    between atoms: C_4  and  N_5
REMARK    2  A    between atoms: N_5  and  N_6
REMARK                            x       y       z     vdW  Elec       q    Type
REMARK                         _______ _______ _______ _____ _____    ______ ____
ROOT
ATOM      1  N   UNL     1      29.525  25.351  20.482  0.00  0.00    +0.000 NA
ATOM      2  C   UNL     1      29.211  24.699  21.703  0.00  0.00    +0.000 A 
ATOM      3  N   UNL     1      30.039  24.150  22.540  0.00  0.00    +0.000 NA
ATOM      4  C   UNL     1      29.582  23.594  23.637  0.00  0.00    +0.000 A 
ATOM      5  C   UNL     1      30.375  22.974  24.616  0.00  0.00    +0.000 A 
ATOM      6  C   UNL     1      29.786  22.430  25.713  0.00  0.00    +0.000 A 
ATOM      7  C   UNL     1      28.400  22.434  25.966  0.00  0.00    +0.000 A 
ATOM      8  C   UNL     1      27.648  23.049  24.988  0.00  0.00    +0.000 A 
ATOM      9  C   UNL     1      28.244  23.602  23.872  0.00  0.00    +0.000 A 
ATOM     10  S   UNL     1      27.695  24.445  22.445  0.00  0.00    +0.000 S 
ENDROOT
BRANCH   1  11
ATOM     11  N   UNL     1      29.466  26.705  20.351  0.00  0.00    +0.000 NA
BRANCH  11  15
ATOM     12  C   UNL     1      31.182  30.922  19.319  0.00  0.00    +0.000 C 
ATOM     13  C   UNL     1      30.571  29.718  18.395  0.00  0.00    +0.000 C 
ATOM     14  C   UNL     1      30.046  28.879  19.670  0.00  0.00    +0.000 C 
ATOM     15  C   UNL     1      29.903  27.602  19.418  0.00  0.00    +0.000 C 
ATOM     16  C   UNL     1      30.246  27.157  18.037  0.00  0.00    +0.000 C 
ATOM     17  C   UNL     1      31.695  27.537  17.823  0.00  0.00    +0.000 C 
ATOM     18  C   UNL     1      32.018  28.912  18.357  0.00  0.00    +0.000 C 
ENDBRANCH  11  15
ENDBRANCH   1  11
TORSDOF 2
ENDMDL
MODEL 6
REMARK VINA RESULT:      -6.1     18.603     20.473
REMARK  Name = 
REMARK  2 active torsions:
REMARK  status: ('A' for Active; 'I' for Inactive)
REMARK    1  A    between atoms: C_4  and  N_5
REMARK    2  A    between atoms: N_5  and  N_6
REMARK                            x       y       z     vdW  Elec       q    Type
REMARK                         _______ _______ _______ _____ _____    ______ ____
ROOT
ATOM      1  N   UNL     1      25.844  22.981  22.916  0.00  0.00    +0.000 NA
ATOM      2  C   UNL     1      25.757  23.504  24.233  0.00  0.00    +0.000 A 
ATOM      3  N   UNL     1      26.227  22.979  25.324  0.00  0.00    +0.000 NA
ATOM      4  C   UNL     1      26.068  23.602  26.467  0.00  0.00    +0.000 A 
ATOM      5  C   UNL     1      26.532  23.137  27.709  0.00  0.00    +0.000 A 
ATOM      6  C   UNL     1      26.306  23.872  28.829  0.00  0.00    +0.000 A 
ATOM      7  C   UNL     1      25.622  25.104  28.857  0.00  0.00    +0.000 A 
ATOM      8  C   UNL     1      25.179  25.533  27.624  0.00  0.00    +0.000 A 
ATOM      9  C   UNL     1      25.408  24.789  26.485  0.00  0.00    +0.000 A 
ATOM     10  S   UNL     1      25.039  24.950  24.785  0.00  0.00    +0.000 S 
ENDROOT
BRANCH   1  11
ATOM     11  N   UNL     1      26.684  23.510  21.984  0.00  0.00    +0.000 NA
BRANCH  11  15
ATOM     12  C   UNL     1      28.738  27.679  21.538  0.00  0.00    +0.000 C 
ATOM     13  C   UNL     1      29.332  26.163  21.696  0.00  0.00    +0.000 C 
ATOM     14  C   UNL     1      27.884  25.475  21.506  0.00  0.00    +0.000 C 
ATOM     15  C   UNL     1      27.814  24.277  22.031  0.00  0.00    +0.000 C 
ATOM     16  C   UNL     1      29.048  23.774  22.698  0.00  0.00    +0.000 C 
ATOM     17  C   UNL     1      29.366  24.768  23.794  0.00  0.00    +0.000 C 
ATOM     18  C   UNL     1      29.189  26.199  23.346  0.00  0.00    +0.000 C 
ENDBRANCH  11  15
ENDBRANCH   1  11
TORSDOF 2
ENDMDL
MODEL 7
REMARK VINA RESULT:      -5.9     20.832     22.848
REMARK  Name = 
REMARK  2 active torsions:
REMARK  status: ('A' for Active; 'I' for Inactive)
REMARK    1  A    between atoms: C_4  and  N_5
REMARK    2  A    between atoms: N_5  and  N_6
REMARK                            x       y       z     vdW  Elec       q    Type
REMARK                         _______ _______ _______ _____ _____    ______ ____
ROOT
ATOM      1  N   UNL     1      29.565  24.350  21.133  0.00  0.00    +0.000 NA
ATOM      2  C   UNL     1      29.267  23.880  22.439  0.00  0.00    +0.000 A 
ATOM      3  N   UNL     1      30.108  23.467  23.340  0.00  0.00    +0.000 NA
ATOM      4  C   UNL     1      29.665  23.073  24.510  0.00  0.00    +0.000 A 
ATOM      5  C   UNL     1      30.472  22.610  25.562  0.00  0.00    +0.000 A 
ATOM      6  C   UNL     1      29.898  22.227  26.732  0.00  0.00    +0.000 A 
ATOM      7  C   UNL     1      28.514  22.254  26.994  0.00  0.00    +0.000 A 
ATOM      8  C   UNL     1      27.748  22.713  25.944  0.00  0.00    +0.000 A 
ATOM      9  C   UNL     1      28.329  23.103  24.754  0.00  0.00    +0.000 A 
ATOM     10  S   UNL     1      27.760  23.723  23.224  0.00  0.00    +0.000 S 
ENDROOT
BRANCH   1  11
ATOM     11  N   UNL     1      29.491  25.670  20.807  0.00  0.00    +0.000 NA
BRANCH  11  15
ATOM     12  C   UNL     1      29.392  30.025  22.485  0.00  0.00    +0.000 C 
ATOM     13  C   UNL     1      28.251  28.859  22.364  0.00  0.00    +0.000 C 
ATOM     14  C   UNL     1      29.319  27.729  21.929  0.00  0.00    +0.000 C 
ATOM     15  C   UNL     1      28.774  26.737  21.269  0.00  0.00    +0.000 C 
ATOM     16  C   UNL     1      27.304  26.826  21.037  0.00  0.00    +0.000 C 
ATOM     17  C   UNL     1      27.079  28.107  20.265  0.00  0.00    +0.000 C 
ATOM     18  C   UNL     1      27.906  29.254  20.793  0.00  0.00    +0.000 C 
ENDBRANCH  11  15
ENDBRANCH   1  11
TORSDOF 2
ENDMDL
MODEL 8
REMARK VINA RESULT:      -5.8     20.448     21.510
REMARK  Name = 
REMARK  2 active torsions:
REMARK  status: ('A' for Active; 'I' for Inactive)
REMARK    1  A    between atoms: C_4  and  N_5
REMARK    2  A    between atoms: N_5  and  N_6
REMARK                            x       y       z     vdW  Elec       q    Type
REMARK                         _______ _______ _______ _____ _____    ______ ____
ROOT
ATOM      1  N   UNL     1      24.029   3.886  18.419  0.00  0.00    +0.000 NA
ATOM      2  C   UNL     1      22.988   3.122  17.829  0.00  0.00    +0.000 A 
ATOM      3  N   UNL     1      21.725   3.142  18.132  0.00  0.00    +0.000 NA
ATOM      4  C   UNL     1      20.888   2.374  17.478  0.00  0.00    +0.000 A 
ATOM      5  C   UNL     1      19.504   2.309  17.711  0.00  0.00    +0.000 A 
ATOM      6  C   UNL     1      18.734   1.473  16.966  0.00  0.00    +0.000 A 
ATOM      7  C   UNL     1      19.219   0.634  15.943  0.00  0.00    +0.000 A 
ATOM      8  C   UNL     1      20.579   0.720  15.737  0.00  0.00    +0.000 A 
ATOM      9  C   UNL     1      21.363   1.569  16.492  0.00  0.00    +0.000 A 
ATOM     10  S   UNL     1      23.059   1.978  16.565  0.00  0.00    +0.000 S 
ENDROOT
BRANCH   1  11
ATOM     11  N   UNL     1      24.604   4.940  17.776  0.00  0.00    +0.000 NA
BRANCH  11  15
ATOM     12  C   UNL     1      27.586   7.431  15.190  0.00  0.00    +0.000 C 
ATOM     13  C   UNL     1      27.800   6.222  16.270  0.00  0.00    +0.000 C 
ATOM     14  C   UNL     1      26.221   5.903  16.367  0.00  0.00    +0.000 C 
ATOM     15  C   UNL     1      25.887   5.305  17.484  0.00  0.00    +0.000 C 
ATOM     16  C   UNL     1      26.994   5.036  18.446  0.00  0.00    +0.000 C 
ATOM     17  C   UNL     1      27.599   6.383  18.776  0.00  0.00    +0.000 C 
ATOM     18  C   UNL     1      27.754   7.262  17.558  0.00  0.00    +0.000 C 
ENDBRANCH  11  15
ENDBRANCH   1  11
TORSDOF 2
ENDMDL
MODEL 9
REMARK VINA RESULT:      -5.8      8.623      9.672
REMARK  Name = 
REMARK  2 active torsions:
REMARK  status: ('A' for Active; 'I' for Inactive)
REMARK    1  A    between atoms: C_4  and  N_5
REMARK    2  A    between atoms: N_5  and  N_6
REMARK                            x       y       z     vdW  Elec       q    Type
REMARK                         _______ _______ _______ _____ _____    ______ ____
ROOT
ATOM      1  N   UNL     1      21.170  22.046  37.042  0.00  0.00    +0.000 NA
ATOM      2  C   UNL     1      19.998  21.936  36.248  0.00  0.00    +0.000 A 
ATOM      3  N   UNL     1      19.847  21.254  35.153  0.00  0.00    +0.000 NA
ATOM      4  C   UNL     1      18.686  21.251  34.544  0.00  0.00    +0.000 A 
ATOM      5  C   UNL     1      18.400  20.553  33.359  0.00  0.00    +0.000 A 
ATOM      6  C   UNL     1      17.155  20.626  32.819  0.00  0.00    +0.000 A 
ATOM      7  C   UNL     1      16.087  21.367  33.362  0.00  0.00    +0.000 A 
ATOM      8  C   UNL     1      16.398  22.042  34.523  0.00  0.00    +0.000 A 
ATOM      9  C   UNL     1      17.661  21.969  35.074  0.00  0.00    +0.000 A 
ATOM     10  S   UNL     1      18.458  22.634  36.478  0.00  0.00    +0.000 S 
ENDROOT
BRANCH   1  11
ATOM     11  N   UNL     1      21.291  21.413  38.242  0.00  0.00    +0.000 NA
BRANCH  11  15
ATOM     12  C   UNL     1      20.594  16.816  38.655  0.00  0.00    +0.000 C 
ATOM     13  C   UNL     1      21.729  17.823  39.266  0.00  0.00    +0.000 C 
ATOM     14  C   UNL     1      20.949  19.150  38.777  0.00  0.00    +0.000 C 
ATOM     15  C   UNL     1      21.738  20.186  38.643  0.00  0.00    +0.000 C 
ATOM     16  C   UNL     1      23.180  19.965  38.951  0.00  0.00    +0.000 C 
ATOM     17  C   UNL     1      23.646  18.873  38.014  0.00  0.00    +0.000 C 
ATOM     18  C   UNL     1      22.643  17.752  37.886  0.00  0.00    +0.000 C 
ENDBRANCH  11  15
ENDBRANCH   1  11
TORSDOF 2
ENDMDL
MODEL 10
REMARK VINA RESULT:      -5.7     21.465     22.443
REMARK  Name = 
REMARK  2 active torsions:
REMARK  status: ('A' for Active; 'I' for Inactive)
REMARK    1  A    between atoms: C_4  and  N_5
REMARK    2  A    between atoms: N_5  and  N_6
REMARK                            x       y       z     vdW  Elec       q    Type
REMARK                         _______ _______ _______ _____ _____    ______ ____
ROOT
ATOM      1  N   UNL     1      16.245 -10.160  27.637  0.00  0.00    +0.000 NA
ATOM      2  C   UNL     1      17.176  -9.193  27.174  0.00  0.00    +0.000 A 
ATOM      3  N   UNL     1      17.096  -7.901  27.289  0.00  0.00    +0.000 NA
ATOM      4  C   UNL     1      18.055  -7.146  26.811  0.00  0.00    +0.000 A 
ATOM      5  C   UNL     1      18.083  -5.743  26.877  0.00  0.00    +0.000 A 
ATOM      6  C   UNL     1      19.134  -5.065  26.345  0.00  0.00    +0.000 A 
ATOM      7  C   UNL     1      20.239  -5.667  25.709  0.00  0.00    +0.000 A 
ATOM      8  C   UNL     1      20.182  -7.043  25.659  0.00  0.00    +0.000 A 
ATOM      9  C   UNL     1      19.116  -7.734  26.200  0.00  0.00    +0.000 A 
ATOM     10  S   UNL     1      18.656  -9.412  26.354  0.00  0.00    +0.000 S 
ENDROOT
BRANCH   1  11
ATOM     11  N   UNL     1      16.495 -10.939  28.725  0.00  0.00    +0.000 NA
BRANCH  11  15
ATOM     12  C   UNL     1      20.844 -12.388  29.607  0.00  0.00    +0.000 C 
ATOM     13  C   UNL     1      19.641 -11.842  30.572  0.00  0.00    +0.000 C 
ATOM     14  C   UNL     1      18.546 -11.877  29.386  0.00  0.00    +0.000 C 
ATOM     15  C   UNL     1      17.538 -11.068  29.597  0.00  0.00    +0.000 C 
ATOM     16  C   UNL     1      17.579 -10.274  30.859  0.00  0.00    +0.000 C 
ATOM     17  C   UNL     1      18.853  -9.460  30.800  0.00  0.00    +0.000 C 
ATOM     18  C   UNL     1      20.026 -10.257  30.282  0.00  0.00    +0.000 C 
ENDBRANCH  11  15
ENDBRANCH   1  11
TORSDOF 2
ENDMDL
