MODEL 1
REMARK VINA RESULT:      -5.2      0.000      0.000
REMARK  Name = 
REMARK  5 active torsions:
REMARK  status: ('A' for Active; 'I' for Inactive)
REMARK    1  A    between atoms: C_2  and  N_3
REMARK    2  A    between atoms: C_2  and  C_12
REMARK    3  A    between atoms: N_3  and  N_4
REMARK    4  A    between atoms: C_5  and  O_7
REMARK    5  A    between atoms: O_7  and  C_8
REMARK                            x       y       z     vdW  Elec       q    Type
REMARK                         _______ _______ _______ _____ _____    ______ ____
ROOT
ATOM      1  C   UNL     1      18.065  -6.203  27.136  0.00  0.00    +0.000 C 
ATOM      2  C   UNL     1      18.304  -7.437  26.690  0.00  0.00    +0.000 C 
ENDROOT
BRANCH   2   3
ATOM      3  C   UNL     1      17.874  -8.584  27.454  0.00  0.00    +0.000 A 
ATOM      4  C   UNL     1      18.595  -8.988  28.560  0.00  0.00    +0.000 A 
ATOM      5  C   UNL     1      18.182 -10.072  29.276  0.00  0.00    +0.000 A 
ATOM      6  C   UNL     1      17.066 -10.768  28.917  0.00  0.00    +0.000 A 
ATOM      7  C   UNL     1      16.354 -10.358  27.811  0.00  0.00    +0.000 A 
ATOM      8  C   UNL     1      16.734  -9.277  27.068  0.00  0.00    +0.000 A 
ATOM      9 BR   UNL     1      15.788  -8.666  25.531  0.00  0.00    +0.000 Br
ENDBRANCH   2   3
BRANCH   2  10
ATOM     10  N   UNL     1      18.991  -7.621  25.447  0.00  0.00    +0.000 NA
BRANCH  10  11
ATOM     11  N   UNL     1      20.398  -7.814  25.476  0.00  0.00    +0.000 NA
ATOM     12  C   UNL     1      21.288  -6.750  25.225  0.00  0.00    +0.000 C 
ATOM     13  O   UNL     1      20.787  -5.620  24.974  0.00  0.00    +0.000 OA
BRANCH  12  14
ATOM     14  O   UNL     1      22.657  -6.838  25.230  0.00  0.00    +0.000 OA
BRANCH  14  15
ATOM     15  C   UNL     1      23.403  -7.417  24.173  0.00  0.00    +0.000 C 
ATOM     16  C   UNL     1      23.820  -8.833  24.502  0.00  0.00    +0.000 C 
ATOM     17  C   UNL     1      24.697  -6.613  24.025  0.00  0.00    +0.000 C 
ATOM     18  C   UNL     1      22.692  -7.361  22.856  0.00  0.00    +0.000 C 
ENDBRANCH  14  15
ENDBRANCH  12  14
ENDBRANCH  10  11
ENDBRANCH   2  10
TORSDOF 5
ENDMDL
MODEL 2
REMARK VINA RESULT:      -4.9     31.489     33.223
REMARK  Name = 
REMARK  5 active torsions:
REMARK  status: ('A' for Active; 'I' for Inactive)
REMARK    1  A    between atoms: C_2  and  N_3
REMARK    2  A    between atoms: C_2  and  C_12
REMARK    3  A    between atoms: N_3  and  N_4
REMARK    4  A    between atoms: C_5  and  O_7
REMARK    5  A    between atoms: O_7  and  C_8
REMARK                            x       y       z     vdW  Elec       q    Type
REMARK                         _______ _______ _______ _____ _____    ______ ____
ROOT
ATOM      1  C   UNL     1      30.082  22.727  24.131  0.00  0.00    +0.000 C 
ATOM      2  C   UNL     1      29.527  23.009  25.309  0.00  0.00    +0.000 C 
ENDROOT
BRANCH   2   3
ATOM      3  C   UNL     1      30.345  23.117  26.494  0.00  0.00    +0.000 A 
ATOM      4  C   UNL     1      30.746  21.978  27.164  0.00  0.00    +0.000 A 
ATOM      5  C   UNL     1      31.519  22.089  28.281  0.00  0.00    +0.000 A 
ATOM      6  C   UNL     1      31.904  23.310  28.752  0.00  0.00    +0.000 A 
ATOM      7  C   UNL     1      31.499  24.441  28.076  0.00  0.00    +0.000 A 
ATOM      8  C   UNL     1      30.725  24.372  26.952  0.00  0.00    +0.000 A 
ATOM      9 BR   UNL     1      30.137  25.900  25.979  0.00  0.00    +0.000 Br
ENDBRANCH   2   3
BRANCH   2  10
ATOM     10  N   UNL     1      28.111  23.203  25.398  0.00  0.00    +0.000 NA
BRANCH  10  11
ATOM     11  N   UNL     1      27.428  22.687  26.532  0.00  0.00    +0.000 NA
ATOM     12  C   UNL     1      26.806  23.543  27.464  0.00  0.00    +0.000 C 
ATOM     13  O   UNL     1      26.878  24.785  27.251  0.00  0.00    +0.000 OA
BRANCH  12  14
ATOM     14  O   UNL     1      26.125  23.142  28.585  0.00  0.00    +0.000 OA
BRANCH  14  15
ATOM     15  C   UNL     1      26.745  22.960  29.847  0.00  0.00    +0.000 C 
ATOM     16  C   UNL     1      26.279  21.685  30.514  0.00  0.00    +0.000 C 
ATOM     17  C   UNL     1      26.293  24.107  30.753  0.00  0.00    +0.000 C 
ATOM     18  C   UNL     1      28.240  23.011  29.777  0.00  0.00    +0.000 C 
ENDBRANCH  14  15
ENDBRANCH  12  14
ENDBRANCH  10  11
ENDBRANCH   2  10
TORSDOF 5
ENDMDL
MODEL 3
REMARK VINA RESULT:      -4.9      4.327      7.904
REMARK  Name = 
REMARK  5 active torsions:
REMARK  status: ('A' for Active; 'I' for Inactive)
REMARK    1  A    between atoms: C_2  and  N_3
REMARK    2  A    between atoms: C_2  and  C_12
REMARK    3  A    between atoms: N_3  and  N_4
REMARK    4  A    between atoms: C_5  and  O_7
REMARK    5  A    between atoms: O_7  and  C_8
REMARK                            x       y       z     vdW  Elec       q    Type
REMARK                         _______ _______ _______ _____ _____    ______ ____
ROOT
ATOM      1  C   UNL     1      17.009  -9.252  27.280  0.00  0.00    +0.000 C 
ATOM      2  C   UNL     1      16.967  -8.321  26.328  0.00  0.00    +0.000 C 
ENDROOT
BRANCH   2   3
ATOM      3  C   UNL     1      17.980  -7.294  26.266  0.00  0.00    +0.000 A 
ATOM      4  C   UNL     1      17.739  -6.050  26.816  0.00  0.00    +0.000 A 
ATOM      5  C   UNL     1      18.701  -5.087  26.754  0.00  0.00    +0.000 A 
ATOM      6  C   UNL     1      19.901  -5.329  26.154  0.00  0.00    +0.000 A 
ATOM      7  C   UNL     1      20.132  -6.573  25.607  0.00  0.00    +0.000 A 
ATOM      8  C   UNL     1      19.194  -7.566  25.650  0.00  0.00    +0.000 A 
ATOM      9 BR   UNL     1      19.459  -9.301  24.911  0.00  0.00    +0.000 Br
ENDBRANCH   2   3
BRANCH   2  10
ATOM     10  N   UNL     1      15.909  -8.341  25.363  0.00  0.00    +0.000 NA
BRANCH  10  11
ATOM     11  N   UNL     1      14.569  -8.251  25.827  0.00  0.00    +0.000 NA
ATOM     12  C   UNL     1      13.493  -8.742  25.060  0.00  0.00    +0.000 C 
ATOM     13  O   UNL     1      13.767  -9.265  23.944  0.00  0.00    +0.000 OA
BRANCH  12  14
ATOM     14  O   UNL     1      12.171  -8.701  25.422  0.00  0.00    +0.000 OA
BRANCH  14  15
ATOM     15  C   UNL     1      11.515  -9.766  26.089  0.00  0.00    +0.000 C 
ATOM     16  C   UNL     1      10.598 -10.524  25.154  0.00  0.00    +0.000 C 
ATOM     17  C   UNL     1      10.616  -9.153  27.165  0.00  0.00    +0.000 C 
ATOM     18  C   UNL     1      12.463 -10.697  26.779  0.00  0.00    +0.000 C 
ENDBRANCH  14  15
ENDBRANCH  12  14
ENDBRANCH  10  11
ENDBRANCH   2  10
TORSDOF 5
ENDMDL
MODEL 4
REMARK VINA RESULT:      -4.8      3.558      6.230
REMARK  Name = 
REMARK  5 active torsions:
REMARK  status: ('A' for Active; 'I' for Inactive)
REMARK    1  A    between atoms: C_2  and  N_3
REMARK    2  A    between atoms: C_2  and  C_12
REMARK    3  A    between atoms: N_3  and  N_4
REMARK    4  A    between atoms: C_5  and  O_7
REMARK    5  A    between atoms: O_7  and  C_8
REMARK                            x       y       z     vdW  Elec       q    Type
REMARK                         _______ _______ _______ _____ _____    ______ ____
ROOT
ATOM      1  C   UNL     1      19.616  -9.644  24.659  0.00  0.00    +0.000 C 
ATOM      2  C   UNL     1      20.042  -9.008  25.751  0.00  0.00    +0.000 C 
ENDROOT
BRANCH   2   3
ATOM      3  C   UNL     1      19.533  -7.697  26.077  0.00  0.00    +0.000 A 
ATOM      4  C   UNL     1      18.331  -7.569  26.744  0.00  0.00    +0.000 A 
ATOM      5  C   UNL     1      17.857  -6.328  27.049  0.00  0.00    +0.000 A 
ATOM      6  C   UNL     1      18.552  -5.206  26.705  0.00  0.00    +0.000 A 
ATOM      7  C   UNL     1      19.750  -5.344  26.038  0.00  0.00    +0.000 A 
ATOM      8  C   UNL     1      20.259  -6.570  25.715  0.00  0.00    +0.000 A 
ATOM      9 BR   UNL     1      21.909  -6.820  24.796  0.00  0.00    +0.000 Br
ENDBRANCH   2   3
BRANCH   2  10
ATOM     10  N   UNL     1      21.011  -9.631  26.601  0.00  0.00    +0.000 NA
BRANCH  10  11
ATOM     11  N   UNL     1      20.715  -9.752  27.986  0.00  0.00    +0.000 NA
ATOM     12  C   UNL     1      20.112 -10.914  28.507  0.00  0.00    +0.000 C 
ATOM     13  O   UNL     1      19.844 -11.844  27.697  0.00  0.00    +0.000 OA
BRANCH  12  14
ATOM     14  O   UNL     1      19.789 -11.124  29.824  0.00  0.00    +0.000 OA
BRANCH  14  15
ATOM     15  C   UNL     1      18.475 -10.980  30.334  0.00  0.00    +0.000 C 
ATOM     16  C   UNL     1      17.766  -9.796  29.715  0.00  0.00    +0.000 C 
ATOM     17  C   UNL     1      18.590 -10.675  31.829  0.00  0.00    +0.000 C 
ATOM     18  C   UNL     1      17.655 -12.226  30.196  0.00  0.00    +0.000 C 
ENDBRANCH  14  15
ENDBRANCH  12  14
ENDBRANCH  10  11
ENDBRANCH   2  10
TORSDOF 5
ENDMDL
MODEL 5
REMARK VINA RESULT:      -4.8     32.417     33.177
REMARK  Name = 
REMARK  5 active torsions:
REMARK  status: ('A' for Active; 'I' for Inactive)
REMARK    1  A    between atoms: C_2  and  N_3
REMARK    2  A    between atoms: C_2  and  C_12
REMARK    3  A    between atoms: N_3  and  N_4
REMARK    4  A    between atoms: C_5  and  O_7
REMARK    5  A    between atoms: O_7  and  C_8
REMARK                            x       y       z     vdW  Elec       q    Type
REMARK                         _______ _______ _______ _____ _____    ______ ____
ROOT
ATOM      1  C   UNL     1      31.858  23.870  26.838  0.00  0.00    +0.000 C 
ATOM      2  C   UNL     1      31.202  22.798  27.280  0.00  0.00    +0.000 C 
ENDROOT
BRANCH   2   3
ATOM      3  C   UNL     1      31.290  22.409  28.668  0.00  0.00    +0.000 A 
ATOM      4  C   UNL     1      32.368  21.670  29.112  0.00  0.00    +0.000 A 
ATOM      5  C   UNL     1      32.444  21.308  30.424  0.00  0.00    +0.000 A 
ATOM      6  C   UNL     1      31.470  21.663  31.309  0.00  0.00    +0.000 A 
ATOM      7  C   UNL     1      30.397  22.400  30.856  0.00  0.00    +0.000 A 
ATOM      8  C   UNL     1      30.284  22.784  29.550  0.00  0.00    +0.000 A 
ATOM      9 BR   UNL     1      28.825  23.802  28.869  0.00  0.00    +0.000 Br
ENDBRANCH   2   3
BRANCH   2  10
ATOM     10  N   UNL     1      30.406  22.028  26.371  0.00  0.00    +0.000 NA
BRANCH  10  11
ATOM     11  N   UNL     1      30.328  22.451  25.018  0.00  0.00    +0.000 NA
ATOM     12  C   UNL     1      29.115  22.905  24.461  0.00  0.00    +0.000 C 
ATOM     13  O   UNL     1      28.101  22.920  25.212  0.00  0.00    +0.000 OA
BRANCH  12  14
ATOM     14  O   UNL     1      28.940  23.332  23.170  0.00  0.00    +0.000 OA
BRANCH  14  15
ATOM     15  C   UNL     1      28.882  24.700  22.804  0.00  0.00    +0.000 C 
ATOM     16  C   UNL     1      27.468  25.233  22.876  0.00  0.00    +0.000 C 
ATOM     17  C   UNL     1      29.305  24.806  21.338  0.00  0.00    +0.000 C 
ATOM     18  C   UNL     1      29.818  25.558  23.600  0.00  0.00    +0.000 C 
ENDBRANCH  14  15
ENDBRANCH  12  14
ENDBRANCH  10  11
ENDBRANCH   2  10
TORSDOF 5
ENDMDL
MODEL 6
REMARK VINA RESULT:      -4.8     32.538     33.706
REMARK  Name = 
REMARK  5 active torsions:
REMARK  status: ('A' for Active; 'I' for Inactive)
REMARK    1  A    between atoms: C_2  and  N_3
REMARK    2  A    between atoms: C_2  and  C_12
REMARK    3  A    between atoms: N_3  and  N_4
REMARK    4  A    between atoms: C_5  and  O_7
REMARK    5  A    between atoms: O_7  and  C_8
REMARK                            x       y       z     vdW  Elec       q    Type
REMARK                         _______ _______ _______ _____ _____    ______ ____
ROOT
ATOM      1  C   UNL     1      30.402  24.663  27.063  0.00  0.00    +0.000 C 
ATOM      2  C   UNL     1      31.169  23.602  26.812  0.00  0.00    +0.000 C 
ENDROOT
BRANCH   2   3
ATOM      3  C   UNL     1      32.070  23.098  27.821  0.00  0.00    +0.000 A 
ATOM      4  C   UNL     1      31.714  22.002  28.581  0.00  0.00    +0.000 A 
ATOM      5  C   UNL     1      32.571  21.532  29.531  0.00  0.00    +0.000 A 
ATOM      6  C   UNL     1      33.778  22.128  29.747  0.00  0.00    +0.000 A 
ATOM      7  C   UNL     1      34.125  23.222  28.983  0.00  0.00    +0.000 A 
ATOM      8  C   UNL     1      33.295  23.723  28.020  0.00  0.00    +0.000 A 
ATOM      9 BR   UNL     1      33.722  25.230  26.937  0.00  0.00    +0.000 Br
ENDBRANCH   2   3
BRANCH   2  10
ATOM     10  N   UNL     1      31.099  22.963  25.532  0.00  0.00    +0.000 NA
BRANCH  10  11
ATOM     11  N   UNL     1      29.817  22.672  24.993  0.00  0.00    +0.000 NA
ATOM     12  C   UNL     1      29.424  23.166  23.732  0.00  0.00    +0.000 C 
ATOM     13  O   UNL     1      30.255  23.876  23.101  0.00  0.00    +0.000 OA
BRANCH  12  14
ATOM     14  O   UNL     1      28.213  22.940  23.129  0.00  0.00    +0.000 OA
BRANCH  14  15
ATOM     15  C   UNL     1      27.159  23.888  23.124  0.00  0.00    +0.000 C 
ATOM     16  C   UNL     1      25.808  23.215  23.230  0.00  0.00    +0.000 C 
ATOM     17  C   UNL     1      27.179  24.595  21.767  0.00  0.00    +0.000 C 
ATOM     18  C   UNL     1      27.315  24.942  24.177  0.00  0.00    +0.000 C 
ENDBRANCH  14  15
ENDBRANCH  12  14
ENDBRANCH  10  11
ENDBRANCH   2  10
TORSDOF 5
ENDMDL
MODEL 7
REMARK VINA RESULT:      -4.8      2.434      3.678
REMARK  Name = 
REMARK  5 active torsions:
REMARK  status: ('A' for Active; 'I' for Inactive)
REMARK    1  A    between atoms: C_2  and  N_3
REMARK    2  A    between atoms: C_2  and  C_12
REMARK    3  A    between atoms: N_3  and  N_4
REMARK    4  A    between atoms: C_5  and  O_7
REMARK    5  A    between atoms: O_7  and  C_8
REMARK                            x       y       z     vdW  Elec       q    Type
REMARK                         _______ _______ _______ _____ _____    ______ ____
ROOT
ATOM      1  C   UNL     1      21.486  -9.104  26.100  0.00  0.00    +0.000 C 
ATOM      2  C   UNL     1      20.679  -8.431  25.280  0.00  0.00    +0.000 C 
ENDROOT
BRANCH   2   3
ATOM      3  C   UNL     1      19.794  -7.415  25.799  0.00  0.00    +0.000 A 
ATOM      4  C   UNL     1      20.173  -6.088  25.772  0.00  0.00    +0.000 A 
ATOM      5  C   UNL     1      19.331  -5.135  26.263  0.00  0.00    +0.000 A 
ATOM      6  C   UNL     1      18.116  -5.471  26.785  0.00  0.00    +0.000 A 
ATOM      7  C   UNL     1      17.747  -6.799  26.808  0.00  0.00    +0.000 A 
ATOM      8  C   UNL     1      18.562  -7.783  26.325  0.00  0.00    +0.000 A 
ATOM      9 BR   UNL     1      18.103  -9.632  26.332  0.00  0.00    +0.000 Br
ENDBRANCH   2   3
BRANCH   2  10
ATOM     10  N   UNL     1      20.691  -8.720  23.878  0.00  0.00    +0.000 NA
BRANCH  10  11
ATOM     11  N   UNL     1      21.901  -9.185  23.295  0.00  0.00    +0.000 NA
ATOM     12  C   UNL     1      22.792  -8.300  22.654  0.00  0.00    +0.000 C 
ATOM     13  O   UNL     1      22.474  -7.079  22.618  0.00  0.00    +0.000 OA
BRANCH  12  14
ATOM     14  O   UNL     1      23.978  -8.652  22.064  0.00  0.00    +0.000 OA
BRANCH  14  15
ATOM     15  C   UNL     1      25.228  -8.585  22.730  0.00  0.00    +0.000 C 
ATOM     16  C   UNL     1      26.362  -9.006  21.822  0.00  0.00    +0.000 C 
ATOM     17  C   UNL     1      25.197  -9.601  23.874  0.00  0.00    +0.000 C 
ATOM     18  C   UNL     1      25.497  -7.242  23.334  0.00  0.00    +0.000 C 
ENDBRANCH  14  15
ENDBRANCH  12  14
ENDBRANCH  10  11
ENDBRANCH   2  10
TORSDOF 5
ENDMDL
MODEL 8
REMARK VINA RESULT:      -4.8     15.144     18.431
REMARK  Name = 
REMARK  5 active torsions:
REMARK  status: ('A' for Active; 'I' for Inactive)
REMARK    1  A    between atoms: C_2  and  N_3
REMARK    2  A    between atoms: C_2  and  C_12
REMARK    3  A    between atoms: N_3  and  N_4
REMARK    4  A    between atoms: C_5  and  O_7
REMARK    5  A    between atoms: O_7  and  C_8
REMARK                            x       y       z     vdW  Elec       q    Type
REMARK                         _______ _______ _______ _____ _____    ______ ____
ROOT
ATOM      1  C   UNL     1      26.054   7.081  13.622  0.00  0.00    +0.000 C 
ATOM      2  C   UNL     1      26.318   6.130  14.519  0.00  0.00    +0.000 C 
ENDROOT
BRANCH   2   3
ATOM      3  C   UNL     1      26.946   6.466  15.775  0.00  0.00    +0.000 A 
ATOM      4  C   UNL     1      26.173   6.680  16.899  0.00  0.00    +0.000 A 
ATOM      5  C   UNL     1      26.774   6.996  18.081  0.00  0.00    +0.000 A 
ATOM      6  C   UNL     1      28.130   7.106  18.174  0.00  0.00    +0.000 A 
ATOM      7  C   UNL     1      28.893   6.891  17.046  0.00  0.00    +0.000 A 
ATOM      8  C   UNL     1      28.329   6.572  15.843  0.00  0.00    +0.000 A 
ATOM      9 BR   UNL     1      29.334   6.264  14.254  0.00  0.00    +0.000 Br
ENDBRANCH   2   3
BRANCH   2  10
ATOM     10  N   UNL     1      25.976   4.769  14.232  0.00  0.00    +0.000 NA
BRANCH  10  11
ATOM     11  N   UNL     1      24.752   4.259  14.740  0.00  0.00    +0.000 NA
ATOM     12  C   UNL     1      24.732   3.298  15.772  0.00  0.00    +0.000 C 
ATOM     13  O   UNL     1      25.844   2.909  16.226  0.00  0.00    +0.000 OA
BRANCH  12  14
ATOM     14  O   UNL     1      23.606   2.747  16.327  0.00  0.00    +0.000 OA
BRANCH  14  15
ATOM     15  C   UNL     1      23.251   2.911  17.690  0.00  0.00    +0.000 C 
ATOM     16  C   UNL     1      23.836   1.813  18.550  0.00  0.00    +0.000 C 
ATOM     17  C   UNL     1      21.730   2.770  17.791  0.00  0.00    +0.000 C 
ATOM     18  C   UNL     1      23.609   4.261  18.229  0.00  0.00    +0.000 C 
ENDBRANCH  14  15
ENDBRANCH  12  14
ENDBRANCH  10  11
ENDBRANCH   2  10
TORSDOF 5
ENDMDL
MODEL 9
REMARK VINA RESULT:      -4.7     21.456     23.172
REMARK  Name = 
REMARK  5 active torsions:
REMARK  status: ('A' for Active; 'I' for Inactive)
REMARK    1  A    between atoms: C_2  and  N_3
REMARK    2  A    between atoms: C_2  and  C_12
REMARK    3  A    between atoms: N_3  and  N_4
REMARK    4  A    between atoms: C_5  and  O_7
REMARK    5  A    between atoms: O_7  and  C_8
REMARK                            x       y       z     vdW  Elec       q    Type
REMARK                         _______ _______ _______ _____ _____    ______ ____
ROOT
ATOM      1  C   UNL     1      19.717  10.223  37.489  0.00  0.00    +0.000 C 
ATOM      2  C   UNL     1      20.872   9.875  38.056  0.00  0.00    +0.000 C 
ENDROOT
BRANCH   2   3
ATOM      3  C   UNL     1      22.126  10.236  37.438  0.00  0.00    +0.000 A 
ATOM      4  C   UNL     1      22.673   9.429  36.460  0.00  0.00    +0.000 A 
ATOM      5  C   UNL     1      23.857   9.778  35.882  0.00  0.00    +0.000 A 
ATOM      6  C   UNL     1      24.514  10.914  36.253  0.00  0.00    +0.000 A 
ATOM      7  C   UNL     1      23.960  11.713  37.230  0.00  0.00    +0.000 A 
ATOM      8  C   UNL     1      22.775  11.398  37.834  0.00  0.00    +0.000 A 
ATOM      9 BR   UNL     1      21.964  12.464  39.189  0.00  0.00    +0.000 Br
ENDBRANCH   2   3
BRANCH   2  10
ATOM     10  N   UNL     1      20.866   9.137  39.283  0.00  0.00    +0.000 NA
BRANCH  10  11
ATOM     11  N   UNL     1      19.656   8.513  39.690  0.00  0.00    +0.000 NA
ATOM     12  C   UNL     1      19.079   8.784  40.947  0.00  0.00    +0.000 C 
ATOM     13  O   UNL     1      19.678   9.604  41.697  0.00  0.00    +0.000 OA
BRANCH  12  14
ATOM     14  O   UNL     1      17.918   8.234  41.428  0.00  0.00    +0.000 OA
BRANCH  14  15
ATOM     15  C   UNL     1      16.670   8.905  41.402  0.00  0.00    +0.000 C 
ATOM     16  C   UNL     1      16.477   9.761  42.635  0.00  0.00    +0.000 C 
ATOM     17  C   UNL     1      15.572   7.841  41.444  0.00  0.00    +0.000 C 
ATOM     18  C   UNL     1      16.464   9.710  40.155  0.00  0.00    +0.000 C 
ENDBRANCH  14  15
ENDBRANCH  12  14
ENDBRANCH  10  11
ENDBRANCH   2  10
TORSDOF 5
ENDMDL
MODEL 10
REMARK VINA RESULT:      -4.7     34.439     37.007
REMARK  Name = 
REMARK  5 active torsions:
REMARK  status: ('A' for Active; 'I' for Inactive)
REMARK    1  A    between atoms: C_2  and  N_3
REMARK    2  A    between atoms: C_2  and  C_12
REMARK    3  A    between atoms: N_3  and  N_4
REMARK    4  A    between atoms: C_5  and  O_7
REMARK    5  A    between atoms: O_7  and  C_8
REMARK                            x       y       z     vdW  Elec       q    Type
REMARK                         _______ _______ _______ _____ _____    ______ ____
ROOT
ATOM      1  C   UNL     1      29.919  29.198  20.068  0.00  0.00    +0.000 C 
ATOM      2  C   UNL     1      29.961  28.073  19.355  0.00  0.00    +0.000 C 
ENDROOT
BRANCH   2   3
ATOM      3  C   UNL     1      29.946  28.123  17.912  0.00  0.00    +0.000 A 
ATOM      4  C   UNL     1      31.098  27.855  17.199  0.00  0.00    +0.000 A 
ATOM      5  C   UNL     1      31.075  27.904  15.837  0.00  0.00    +0.000 A 
ATOM      6  C   UNL     1      29.931  28.215  15.163  0.00  0.00    +0.000 A 
ATOM      7  C   UNL     1      28.787  28.481  15.884  0.00  0.00    +0.000 A 
ATOM      8  C   UNL     1      28.768  28.441  17.249  0.00  0.00    +0.000 A 
ATOM      9 BR   UNL     1      27.217  28.800  18.296  0.00  0.00    +0.000 Br
ENDBRANCH   2   3
BRANCH   2  10
ATOM     10  N   UNL     1      30.021  26.809  20.026  0.00  0.00    +0.000 NA
BRANCH  10  11
ATOM     11  N   UNL     1      28.871  26.365  20.732  0.00  0.00    +0.000 NA
ATOM     12  C   UNL     1      28.758  25.034  21.184  0.00  0.00    +0.000 C 
ATOM     13  O   UNL     1      29.719  24.253  20.937  0.00  0.00    +0.000 OA
BRANCH  12  14
ATOM     14  O   UNL     1      27.692  24.513  21.871  0.00  0.00    +0.000 OA
BRANCH  14  15
ATOM     15  C   UNL     1      27.692  24.317  23.274  0.00  0.00    +0.000 C 
ATOM     16  C   UNL     1      28.596  23.171  23.674  0.00  0.00    +0.000 C 
ATOM     17  C   UNL     1      26.276  23.907  23.684  0.00  0.00    +0.000 C 
ATOM     18  C   UNL     1      28.034  25.559  24.038  0.00  0.00    +0.000 C 
ENDBRANCH  14  15
ENDBRANCH  12  14
ENDBRANCH  10  11
ENDBRANCH   2  10
TORSDOF 5
ENDMDL
