MODEL 1
REMARK VINA RESULT:      -7.0      0.000      0.000
REMARK  Name = 
REMARK  3 active torsions:
REMARK  status: ('A' for Active; 'I' for Inactive)
REMARK    1  A    between atoms: O_2  and  C_3
REMARK    2  A    between atoms: C_3  and  C_5
REMARK    3  A    between atoms: C_14  and  C_15
REMARK                            x       y       z     vdW  Elec       q    Type
REMARK                         _______ _______ _______ _____ _____    ______ ____
ROOT
ATOM      1  C   UNL     1      16.041  10.688  33.321  0.00  0.00    +0.000 A 
ATOM      2  N   UNL     1      17.092   9.969  33.701  0.00  0.00    +0.000 NA
ATOM      3  C   UNL     1      17.505  10.369  34.923  0.00  0.00    +0.000 A 
ATOM      4  C   UNL     1      16.705  11.381  35.363  0.00  0.00    +0.000 A 
ATOM      5  C   UNL     1      15.780  11.589  34.362  0.00  0.00    +0.000 A 
ATOM      6  C   UNL     1      14.702  12.594  34.393  0.00  0.00    +0.000 C 
ATOM      7  C   UNL     1      16.937  11.996  36.663  0.00  0.00    +0.000 C 
ATOM      8  O   UNL     1      16.138  12.862  37.108  0.00  0.00    +0.000 OA
ATOM      9  C   UNL     1      18.148  11.564  37.440  0.00  0.00    +0.000 C 
ATOM     10  C   UNL     1      18.004   9.923  37.316  0.00  0.00    +0.000 C 
ATOM     11  C   UNL     1      18.619   9.898  35.782  0.00  0.00    +0.000 C 
ENDROOT
BRANCH  10  12
ATOM     12  C   UNL     1      19.413   9.631  38.041  0.00  0.00    +0.000 A 
ATOM     13  C   UNL     1      19.430   9.055  39.240  0.00  0.00    +0.000 A 
ATOM     14  C   UNL     1      20.675   8.827  39.815  0.00  0.00    +0.000 A 
ATOM     15  C   UNL     1      21.846   9.181  39.177  0.00  0.00    +0.000 A 
ATOM     16  C   UNL     1      21.741   9.775  37.933  0.00  0.00    +0.000 A 
ATOM     17  C   UNL     1      20.526  10.019  37.323  0.00  0.00    +0.000 A 
ENDBRANCH  10  12
BRANCH   1  18
ATOM     18  C   UNL     1      15.278  10.595  32.078  0.00  0.00    +0.000 C 
ATOM     19  O   UNL     1      14.356   9.789  31.935  0.00  0.00    +0.000 OA
BRANCH  18  21
ATOM     20  C   UNL     1      14.784  12.528  30.636  0.00  0.00    +0.000 C 
ATOM     21  O   UNL     1      15.600  11.436  31.033  0.00  0.00    +0.000 OA
ENDBRANCH  18  21
ENDBRANCH   1  18
TORSDOF 3
ENDMDL
MODEL 2
REMARK VINA RESULT:      -6.9      2.475      3.086
REMARK  Name = 
REMARK  3 active torsions:
REMARK  status: ('A' for Active; 'I' for Inactive)
REMARK    1  A    between atoms: O_2  and  C_3
REMARK    2  A    between atoms: C_3  and  C_5
REMARK    3  A    between atoms: C_14  and  C_15
REMARK                            x       y       z     vdW  Elec       q    Type
REMARK                         _______ _______ _______ _____ _____    ______ ____
ROOT
ATOM      1  C   UNL     1      14.224  13.330  35.330  0.00  0.00    +0.000 A 
ATOM      2  N   UNL     1      15.531  13.106  35.430  0.00  0.00    +0.000 NA
ATOM      3  C   UNL     1      15.779  12.302  36.487  0.00  0.00    +0.000 A 
ATOM      4  C   UNL     1      14.605  11.986  37.102  0.00  0.00    +0.000 A 
ATOM      5  C   UNL     1      13.620  12.628  36.382  0.00  0.00    +0.000 A 
ATOM      6  C   UNL     1      12.177  12.578  36.678  0.00  0.00    +0.000 C 
ATOM      7  C   UNL     1      14.594  11.125  38.277  0.00  0.00    +0.000 C 
ATOM      8  O   UNL     1      13.501  10.757  38.784  0.00  0.00    +0.000 OA
ATOM      9  C   UNL     1      15.915  10.701  38.852  0.00  0.00    +0.000 C 
ATOM     10  C   UNL     1      16.688  10.212  37.477  0.00  0.00    +0.000 C 
ATOM     11  C   UNL     1      17.051  11.760  37.026  0.00  0.00    +0.000 C 
ENDROOT
BRANCH  10  12
ATOM     12  C   UNL     1      18.091   9.947  38.223  0.00  0.00    +0.000 A 
ATOM     13  C   UNL     1      18.102   9.649  39.520  0.00  0.00    +0.000 A 
ATOM     14  C   UNL     1      19.342   9.431  40.108  0.00  0.00    +0.000 A 
ATOM     15  C   UNL     1      20.515   9.518  39.387  0.00  0.00    +0.000 A 
ATOM     16  C   UNL     1      20.417   9.832  38.044  0.00  0.00    +0.000 A 
ATOM     17  C   UNL     1      19.207  10.055  37.417  0.00  0.00    +0.000 A 
ENDBRANCH  10  12
BRANCH   1  18
ATOM     18  C   UNL     1      13.515  14.138  34.340  0.00  0.00    +0.000 C 
ATOM     19  O   UNL     1      12.819  15.104  34.660  0.00  0.00    +0.000 OA
BRANCH  18  21
ATOM     20  C   UNL     1      13.751  14.779  31.975  0.00  0.00    +0.000 C 
ATOM     21  O   UNL     1      13.631  13.809  33.005  0.00  0.00    +0.000 OA
ENDBRANCH  18  21
ENDBRANCH   1  18
TORSDOF 3
ENDMDL
MODEL 3
REMARK VINA RESULT:      -6.9      1.446      2.395
REMARK  Name = 
REMARK  3 active torsions:
REMARK  status: ('A' for Active; 'I' for Inactive)
REMARK    1  A    between atoms: O_2  and  C_3
REMARK    2  A    between atoms: C_3  and  C_5
REMARK    3  A    between atoms: C_14  and  C_15
REMARK                            x       y       z     vdW  Elec       q    Type
REMARK                         _______ _______ _______ _____ _____    ______ ____
ROOT
ATOM      1  C   UNL     1      15.460  12.070  32.048  0.00  0.00    +0.000 A 
ATOM      2  N   UNL     1      16.435  11.340  32.582  0.00  0.00    +0.000 NA
ATOM      3  C   UNL     1      16.425  11.473  33.926  0.00  0.00    +0.000 A 
ATOM      4  C   UNL     1      15.416  12.314  34.291  0.00  0.00    +0.000 A 
ATOM      5  C   UNL     1      14.802  12.694  33.116  0.00  0.00    +0.000 A 
ATOM      6  C   UNL     1      13.649  13.607  33.013  0.00  0.00    +0.000 C 
ATOM      7  C   UNL     1      15.185  12.627  35.695  0.00  0.00    +0.000 C 
ATOM      8  O   UNL     1      14.193  13.325  36.035  0.00  0.00    +0.000 OA
ATOM      9  C   UNL     1      16.161  12.095  36.704  0.00  0.00    +0.000 C 
ATOM     10  C   UNL     1      16.258  10.521  36.216  0.00  0.00    +0.000 C 
ATOM     11  C   UNL     1      17.290  10.879  34.975  0.00  0.00    +0.000 C 
ENDROOT
BRANCH  10  12
ATOM     12  C   UNL     1      17.421  10.147  37.267  0.00  0.00    +0.000 A 
ATOM     13  C   UNL     1      18.650   9.893  36.826  0.00  0.00    +0.000 A 
ATOM     14  C   UNL     1      19.611   9.576  37.779  0.00  0.00    +0.000 A 
ATOM     15  C   UNL     1      19.311   9.524  39.125  0.00  0.00    +0.000 A 
ATOM     16  C   UNL     1      18.009   9.802  39.500  0.00  0.00    +0.000 A 
ATOM     17  C   UNL     1      17.023  10.122  38.588  0.00  0.00    +0.000 A 
ENDBRANCH  10  12
BRANCH   1  18
ATOM     18  C   UNL     1      15.107  12.221  30.638  0.00  0.00    +0.000 C 
ATOM     19  O   UNL     1      14.234  11.534  30.104  0.00  0.00    +0.000 OA
BRANCH  18  21
ATOM     20  C   UNL     1      16.342  14.342  30.436  0.00  0.00    +0.000 C 
ATOM     21  O   UNL     1      15.773  13.164  29.882  0.00  0.00    +0.000 OA
ENDBRANCH  18  21
ENDBRANCH   1  18
TORSDOF 3
ENDMDL
MODEL 4
REMARK VINA RESULT:      -6.5     19.149     20.186
REMARK  Name = 
REMARK  3 active torsions:
REMARK  status: ('A' for Active; 'I' for Inactive)
REMARK    1  A    between atoms: O_2  and  C_3
REMARK    2  A    between atoms: C_3  and  C_5
REMARK    3  A    between atoms: C_14  and  C_15
REMARK                            x       y       z     vdW  Elec       q    Type
REMARK                         _______ _______ _______ _____ _____    ______ ____
ROOT
ATOM      1  C   UNL     1      28.944  23.451  23.550  0.00  0.00    +0.000 A 
ATOM      2  N   UNL     1      30.194  23.442  24.003  0.00  0.00    +0.000 NA
ATOM      3  C   UNL     1      30.196  23.256  25.341  0.00  0.00    +0.000 A 
ATOM      4  C   UNL     1      28.913  23.139  25.785  0.00  0.00    +0.000 A 
ATOM      5  C   UNL     1      28.117  23.260  24.665  0.00  0.00    +0.000 A 
ATOM      6  C   UNL     1      26.644  23.199  24.654  0.00  0.00    +0.000 C 
ATOM      7  C   UNL     1      28.634  22.930  27.199  0.00  0.00    +0.000 C 
ATOM      8  O   UNL     1      27.455  22.725  27.591  0.00  0.00    +0.000 OA
ATOM      9  C   UNL     1      29.790  22.968  28.157  0.00  0.00    +0.000 C 
ATOM     10  C   UNL     1      30.854  21.980  27.370  0.00  0.00    +0.000 C 
ATOM     11  C   UNL     1      31.312  23.168  26.316  0.00  0.00    +0.000 C 
ENDROOT
BRANCH  10  12
ATOM     12  C   UNL     1      32.052  22.247  28.415  0.00  0.00    +0.000 A 
ATOM     13  C   UNL     1      32.401  21.292  29.273  0.00  0.00    +0.000 A 
ATOM     14  C   UNL     1      33.440  21.581  30.150  0.00  0.00    +0.000 A 
ATOM     15  C   UNL     1      34.086  22.800  30.137  0.00  0.00    +0.000 A 
ATOM     16  C   UNL     1      33.662  23.737  29.213  0.00  0.00    +0.000 A 
ATOM     17  C   UNL     1      32.635  23.494  28.323  0.00  0.00    +0.000 A 
ENDBRANCH  10  12
BRANCH   1  18
ATOM     18  C   UNL     1      28.479  23.623  22.176  0.00  0.00    +0.000 C 
ATOM     19  O   UNL     1      27.341  23.301  21.824  0.00  0.00    +0.000 OA
BRANCH  18  21
ATOM     20  C   UNL     1      29.283  25.521  20.830  0.00  0.00    +0.000 C 
ATOM     21  O   UNL     1      29.340  24.164  21.243  0.00  0.00    +0.000 OA
ENDBRANCH  18  21
ENDBRANCH   1  18
TORSDOF 3
ENDMDL
MODEL 5
REMARK VINA RESULT:      -6.5     17.954     19.057
REMARK  Name = 
REMARK  3 active torsions:
REMARK  status: ('A' for Active; 'I' for Inactive)
REMARK    1  A    between atoms: O_2  and  C_3
REMARK    2  A    between atoms: C_3  and  C_5
REMARK    3  A    between atoms: C_14  and  C_15
REMARK                            x       y       z     vdW  Elec       q    Type
REMARK                         _______ _______ _______ _____ _____    ______ ____
ROOT
ATOM      1  C   UNL     1      27.093  23.180  24.861  0.00  0.00    +0.000 A 
ATOM      2  N   UNL     1      27.073  22.901  26.160  0.00  0.00    +0.000 NA
ATOM      3  C   UNL     1      28.332  22.703  26.607  0.00  0.00    +0.000 A 
ATOM      4  C   UNL     1      29.209  22.856  25.575  0.00  0.00    +0.000 A 
ATOM      5  C   UNL     1      28.438  23.157  24.471  0.00  0.00    +0.000 A 
ATOM      6  C   UNL     1      28.955  23.408  23.113  0.00  0.00    +0.000 C 
ATOM      7  C   UNL     1      30.641  22.696  25.790  0.00  0.00    +0.000 C 
ATOM      8  O   UNL     1      31.453  22.933  24.857  0.00  0.00    +0.000 OA
ATOM      9  C   UNL     1      31.102  22.242  27.145  0.00  0.00    +0.000 C 
ATOM     10  C   UNL     1      30.232  23.265  28.106  0.00  0.00    +0.000 C 
ATOM     11  C   UNL     1      28.850  22.370  27.957  0.00  0.00    +0.000 C 
ENDROOT
BRANCH  10  12
ATOM     12  C   UNL     1      30.709  22.565  29.478  0.00  0.00    +0.000 A 
ATOM     13  C   UNL     1      29.951  22.665  30.566  0.00  0.00    +0.000 A 
ATOM     14  C   UNL     1      30.414  22.040  31.718  0.00  0.00    +0.000 A 
ATOM     15  C   UNL     1      31.607  21.345  31.740  0.00  0.00    +0.000 A 
ATOM     16  C   UNL     1      32.333  21.288  30.566  0.00  0.00    +0.000 A 
ATOM     17  C   UNL     1      31.912  21.893  29.398  0.00  0.00    +0.000 A 
ENDBRANCH  10  12
BRANCH   1  18
ATOM     18  C   UNL     1      25.964  23.461  23.975  0.00  0.00    +0.000 C 
ATOM     19  O   UNL     1      25.741  22.790  22.965  0.00  0.00    +0.000 OA
BRANCH  18  21
ATOM     20  C   UNL     1      25.588  25.765  24.758  0.00  0.00    +0.000 C 
ATOM     21  O   UNL     1      25.123  24.511  24.282  0.00  0.00    +0.000 OA
ENDBRANCH  18  21
ENDBRANCH   1  18
TORSDOF 3
ENDMDL
MODEL 6
REMARK VINA RESULT:      -6.4     19.262     20.473
REMARK  Name = 
REMARK  3 active torsions:
REMARK  status: ('A' for Active; 'I' for Inactive)
REMARK    1  A    between atoms: O_2  and  C_3
REMARK    2  A    between atoms: C_3  and  C_5
REMARK    3  A    between atoms: C_14  and  C_15
REMARK                            x       y       z     vdW  Elec       q    Type
REMARK                         _______ _______ _______ _____ _____    ______ ____
ROOT
ATOM      1  C   UNL     1      29.122  24.640  22.747  0.00  0.00    +0.000 A 
ATOM      2  N   UNL     1      30.091  24.629  23.657  0.00  0.00    +0.000 NA
ATOM      3  C   UNL     1      29.659  24.018  24.781  0.00  0.00    +0.000 A 
ATOM      4  C   UNL     1      28.368  23.614  24.610  0.00  0.00    +0.000 A 
ATOM      5  C   UNL     1      28.021  24.000  23.332  0.00  0.00    +0.000 A 
ATOM      6  C   UNL     1      26.710  23.773  22.699  0.00  0.00    +0.000 C 
ATOM      7  C   UNL     1      27.661  22.923  25.679  0.00  0.00    +0.000 C 
ATOM      8  O   UNL     1      26.505  22.464  25.483  0.00  0.00    +0.000 OA
ATOM      9  C   UNL     1      28.354  22.781  27.004  0.00  0.00    +0.000 C 
ATOM     10  C   UNL     1      29.831  22.236  26.504  0.00  0.00    +0.000 C 
ATOM     11  C   UNL     1      30.339  23.749  26.072  0.00  0.00    +0.000 C 
ENDROOT
BRANCH  10  12
ATOM     12  C   UNL     1      30.475  22.285  27.981  0.00  0.00    +0.000 A 
ATOM     13  C   UNL     1      31.699  21.802  28.181  0.00  0.00    +0.000 A 
ATOM     14  C   UNL     1      32.201  21.872  29.475  0.00  0.00    +0.000 A 
ATOM     15  C   UNL     1      31.470  22.416  30.512  0.00  0.00    +0.000 A 
ATOM     16  C   UNL     1      30.207  22.895  30.218  0.00  0.00    +0.000 A 
ATOM     17  C   UNL     1      29.668  22.848  28.948  0.00  0.00    +0.000 A 
ENDBRANCH  10  12
BRANCH   1  18
ATOM     18  C   UNL     1      29.152  25.195  21.395  0.00  0.00    +0.000 C 
ATOM     19  O   UNL     1      29.754  24.641  20.473  0.00  0.00    +0.000 OA
BRANCH  18  21
ATOM     20  C   UNL     1      29.075  27.655  21.322  0.00  0.00    +0.000 C 
ATOM     21  O   UNL     1      28.484  26.376  21.145  0.00  0.00    +0.000 OA
ENDBRANCH  18  21
ENDBRANCH   1  18
TORSDOF 3
ENDMDL
MODEL 7
REMARK VINA RESULT:      -6.3     18.037     19.616
REMARK  Name = 
REMARK  3 active torsions:
REMARK  status: ('A' for Active; 'I' for Inactive)
REMARK    1  A    between atoms: O_2  and  C_3
REMARK    2  A    between atoms: C_3  and  C_5
REMARK    3  A    between atoms: C_14  and  C_15
REMARK                            x       y       z     vdW  Elec       q    Type
REMARK                         _______ _______ _______ _____ _____    ______ ____
ROOT
ATOM      1  C   UNL     1      34.489   3.848  36.769  0.00  0.00    +0.000 A 
ATOM      2  N   UNL     1      34.274   2.581  37.109  0.00  0.00    +0.000 NA
ATOM      3  C   UNL     1      33.900   1.871  36.023  0.00  0.00    +0.000 A 
ATOM      4  C   UNL     1      33.867   2.691  34.935  0.00  0.00    +0.000 A 
ATOM      5  C   UNL     1      34.237   3.938  35.394  0.00  0.00    +0.000 A 
ATOM      6  C   UNL     1      34.344   5.153  34.567  0.00  0.00    +0.000 C 
ATOM      7  C   UNL     1      33.491   2.170  33.627  0.00  0.00    +0.000 C 
ATOM      8  O   UNL     1      33.557   2.907  32.608  0.00  0.00    +0.000 OA
ATOM      9  C   UNL     1      33.031   0.743  33.543  0.00  0.00    +0.000 C 
ATOM     10  C   UNL     1      34.219   0.001  34.417  0.00  0.00    +0.000 C 
ATOM     11  C   UNL     1      33.548   0.438  35.863  0.00  0.00    +0.000 C 
ENDROOT
BRANCH  10  12
ATOM     12  C   UNL     1      33.513  -1.447  34.363  0.00  0.00    +0.000 A 
ATOM     13  C   UNL     1      33.884  -2.326  33.437  0.00  0.00    +0.000 A 
ATOM     14  C   UNL     1      33.240  -3.557  33.440  0.00  0.00    +0.000 A 
ATOM     15  C   UNL     1      32.256  -3.862  34.359  0.00  0.00    +0.000 A 
ATOM     16  C   UNL     1      31.929  -2.892  35.288  0.00  0.00    +0.000 A 
ATOM     17  C   UNL     1      32.544  -1.656  35.323  0.00  0.00    +0.000 A 
ENDBRANCH  10  12
BRANCH   1  18
ATOM     18  C   UNL     1      34.907   4.958  37.623  0.00  0.00    +0.000 C 
ATOM     19  O   UNL     1      34.108   5.800  38.040  0.00  0.00    +0.000 OA
BRANCH  18  21
ATOM     20  C   UNL     1      37.297   4.962  37.034  0.00  0.00    +0.000 C 
ATOM     21  O   UNL     1      36.237   5.066  37.973  0.00  0.00    +0.000 OA
ENDBRANCH  18  21
ENDBRANCH   1  18
TORSDOF 3
ENDMDL
MODEL 8
REMARK VINA RESULT:      -6.1     18.179     20.024
REMARK  Name = 
REMARK  3 active torsions:
REMARK  status: ('A' for Active; 'I' for Inactive)
REMARK    1  A    between atoms: O_2  and  C_3
REMARK    2  A    between atoms: C_3  and  C_5
REMARK    3  A    between atoms: C_14  and  C_15
REMARK                            x       y       z     vdW  Elec       q    Type
REMARK                         _______ _______ _______ _____ _____    ______ ____
ROOT
ATOM      1  C   UNL     1      27.000  23.186  29.228  0.00  0.00    +0.000 A 
ATOM      2  N   UNL     1      26.518  23.570  28.050  0.00  0.00    +0.000 NA
ATOM      3  C   UNL     1      27.524  23.672  27.154  0.00  0.00    +0.000 A 
ATOM      4  C   UNL     1      28.703  23.347  27.756  0.00  0.00    +0.000 A 
ATOM      5  C   UNL     1      28.383  23.039  29.062  0.00  0.00    +0.000 A 
ATOM      6  C   UNL     1      29.345  22.627  30.100  0.00  0.00    +0.000 C 
ATOM      7  C   UNL     1      29.950  23.375  27.004  0.00  0.00    +0.000 C 
ATOM      8  O   UNL     1      31.021  22.980  27.537  0.00  0.00    +0.000 OA
ATOM      9  C   UNL     1      29.910  23.886  25.593  0.00  0.00    +0.000 C 
ATOM     10  C   UNL     1      28.616  23.040  25.013  0.00  0.00    +0.000 C 
ATOM     11  C   UNL     1      27.523  24.058  25.721  0.00  0.00    +0.000 C 
ENDROOT
BRANCH  10  12
ATOM     12  C   UNL     1      28.615  23.796  23.589  0.00  0.00    +0.000 A 
ATOM     13  C   UNL     1      29.733  24.363  23.144  0.00  0.00    +0.000 A 
ATOM     14  C   UNL     1      29.670  25.000  21.910  0.00  0.00    +0.000 A 
ATOM     15  C   UNL     1      28.504  25.047  21.174  0.00  0.00    +0.000 A 
ATOM     16  C   UNL     1      27.387  24.432  21.708  0.00  0.00    +0.000 A 
ATOM     17  C   UNL     1      27.403  23.787  22.929  0.00  0.00    +0.000 A 
ENDBRANCH  10  12
BRANCH   1  18
ATOM     18  C   UNL     1      26.272  22.952  30.473  0.00  0.00    +0.000 C 
ATOM     19  O   UNL     1      25.855  21.836  30.788  0.00  0.00    +0.000 OA
BRANCH  18  21
ATOM     20  C   UNL     1      25.553  25.271  30.881  0.00  0.00    +0.000 C 
ATOM     21  O   UNL     1      26.047  24.016  31.323  0.00  0.00    +0.000 OA
ENDBRANCH  18  21
ENDBRANCH   1  18
TORSDOF 3
ENDMDL
MODEL 9
REMARK VINA RESULT:      -6.1     19.408     21.121
REMARK  Name = 
REMARK  3 active torsions:
REMARK  status: ('A' for Active; 'I' for Inactive)
REMARK    1  A    between atoms: O_2  and  C_3
REMARK    2  A    between atoms: C_3  and  C_5
REMARK    3  A    between atoms: C_14  and  C_15
REMARK                            x       y       z     vdW  Elec       q    Type
REMARK                         _______ _______ _______ _____ _____    ______ ____
ROOT
ATOM      1  C   UNL     1      13.207  26.187  21.615  0.00  0.00    +0.000 A 
ATOM      2  N   UNL     1      12.045  25.620  21.305  0.00  0.00    +0.000 NA
ATOM      3  C   UNL     1      12.234  24.317  21.006  0.00  0.00    +0.000 A 
ATOM      4  C   UNL     1      13.558  24.013  21.122  0.00  0.00    +0.000 A 
ATOM      5  C   UNL     1      14.179  25.183  21.506  0.00  0.00    +0.000 A 
ATOM      6  C   UNL     1      15.623  25.341  21.755  0.00  0.00    +0.000 C 
ATOM      7  C   UNL     1      14.033  22.662  20.855  0.00  0.00    +0.000 C 
ATOM      8  O   UNL     1      15.240  22.362  21.058  0.00  0.00    +0.000 OA
ATOM      9  C   UNL     1      13.045  21.658  20.335  0.00  0.00    +0.000 C 
ATOM     10  C   UNL     1      11.800  21.901  21.392  0.00  0.00    +0.000 C 
ATOM     11  C   UNL     1      11.278  23.256  20.602  0.00  0.00    +0.000 C 
ENDROOT
BRANCH  10  12
ATOM     12  C   UNL     1      10.801  20.895  20.624  0.00  0.00    +0.000 A 
ATOM     13  C   UNL     1      11.210  19.665  20.322  0.00  0.00    +0.000 A 
ATOM     14  C   UNL     1      10.305  18.844  19.660  0.00  0.00    +0.000 A 
ATOM     15  C   UNL     1       9.038  19.277  19.327  0.00  0.00    +0.000 A 
ATOM     16  C   UNL     1       8.692  20.568  19.678  0.00  0.00    +0.000 A 
ATOM     17  C   UNL     1       9.557  21.419  20.337  0.00  0.00    +0.000 A 
ENDBRANCH  10  12
BRANCH   1  18
ATOM     18  C   UNL     1      13.467  27.573  21.999  0.00  0.00    +0.000 C 
ATOM     19  O   UNL     1      13.346  27.964  23.162  0.00  0.00    +0.000 OA
BRANCH  18  21
ATOM     20  C   UNL     1      13.001  28.921  19.992  0.00  0.00    +0.000 C 
ATOM     21  O   UNL     1      13.862  28.470  21.028  0.00  0.00    +0.000 OA
ENDBRANCH  18  21
ENDBRANCH   1  18
TORSDOF 3
ENDMDL
MODEL 10
REMARK VINA RESULT:      -5.9     23.584     26.238
REMARK  Name = 
REMARK  3 active torsions:
REMARK  status: ('A' for Active; 'I' for Inactive)
REMARK    1  A    between atoms: O_2  and  C_3
REMARK    2  A    between atoms: C_3  and  C_5
REMARK    3  A    between atoms: C_14  and  C_15
REMARK                            x       y       z     vdW  Elec       q    Type
REMARK                         _______ _______ _______ _____ _____    ______ ____
ROOT
ATOM      1  C   UNL     1      29.394  24.873  22.132  0.00  0.00    +0.000 A 
ATOM      2  N   UNL     1      29.632  24.807  20.826  0.00  0.00    +0.000 NA
ATOM      3  C   UNL     1      29.553  26.041  20.282  0.00  0.00    +0.000 A 
ATOM      4  C   UNL     1      29.254  26.948  21.255  0.00  0.00    +0.000 A 
ATOM      5  C   UNL     1      29.152  26.222  22.424  0.00  0.00    +0.000 A 
ATOM      6  C   UNL     1      28.840  26.783  23.751  0.00  0.00    +0.000 C 
ATOM      7  C   UNL     1      29.112  28.361  20.932  0.00  0.00    +0.000 C 
ATOM      8  O   UNL     1      28.933  29.207  21.848  0.00  0.00    +0.000 OA
ATOM      9  C   UNL     1      29.186  28.763  19.487  0.00  0.00    +0.000 C 
ATOM     10  C   UNL     1      30.542  27.943  19.024  0.00  0.00    +0.000 C 
ATOM     11  C   UNL     1      29.732  26.508  18.885  0.00  0.00    +0.000 C 
ENDROOT
BRANCH  10  12
ATOM     12  C   UNL     1      30.392  28.343  17.470  0.00  0.00    +0.000 A 
ATOM     13  C   UNL     1      30.918  29.484  17.031  0.00  0.00    +0.000 A 
ATOM     14  C   UNL     1      30.757  29.775  15.681  0.00  0.00    +0.000 A 
ATOM     15  C   UNL     1      30.082  28.925  14.828  0.00  0.00    +0.000 A 
ATOM     16  C   UNL     1      29.567  27.760  15.365  0.00  0.00    +0.000 A 
ATOM     17  C   UNL     1      29.704  27.429  16.699  0.00  0.00    +0.000 A 
ENDBRANCH  10  12
BRANCH   1  18
ATOM     18  C   UNL     1      29.376  23.785  23.107  0.00  0.00    +0.000 C 
ATOM     19  O   UNL     1      28.327  23.253  23.476  0.00  0.00    +0.000 OA
BRANCH  18  21
ATOM     20  C   UNL     1      31.385  24.124  24.490  0.00  0.00    +0.000 C 
ATOM     21  O   UNL     1      30.573  23.338  23.629  0.00  0.00    +0.000 OA
ENDBRANCH  18  21
ENDBRANCH   1  18
TORSDOF 3
ENDMDL
