MODEL 1
REMARK VINA RESULT:      -6.2      0.000      0.000
REMARK  Name = 
REMARK  4 active torsions:
REMARK  status: ('A' for Active; 'I' for Inactive)
REMARK    1  A    between atoms: C_2  and  O_3
REMARK    2  A    between atoms: O_3  and  C_4
REMARK    3  A    between atoms: C_4  and  C_6
REMARK    4  A    between atoms: C_9  and  C_10
REMARK                            x       y       z     vdW  Elec       q    Type
REMARK                         _______ _______ _______ _____ _____    ______ ____
ROOT
ATOM      1  C   UNL     1      16.084  11.113  34.783  0.00  0.00    +0.000 C 
ATOM      2  C   UNL     1      16.823  10.389  35.527  0.00  0.00    +0.000 C 
ATOM      3  C   UNL     1      17.957   9.609  34.946  0.00  0.00    +0.000 C 
ATOM      4  C   UNL     1      16.686  10.203  37.054  0.00  0.00    +0.000 C 
ATOM      5  N   UNL     1      15.530  11.031  37.468  0.00  0.00    +0.000 NA
ATOM      6  C   UNL     1      14.747  11.802  36.663  0.00  0.00    +0.000 C 
ATOM      7  O   UNL     1      13.746  12.499  37.124  0.00  0.00    +0.000 OA
ATOM      8  N   UNL     1      14.980  11.888  35.263  0.00  0.00    +0.000 NA
ENDROOT
BRANCH   4   9
ATOM      9  C   UNL     1      17.874  11.145  37.525  0.00  0.00    +0.000 A 
ATOM     10  C   UNL     1      18.905  10.609  38.228  0.00  0.00    +0.000 A 
ATOM     11  C   UNL     1      19.939  11.472  38.618  0.00  0.00    +0.000 A 
ATOM     12  C   UNL     1      19.904  12.804  38.301  0.00  0.00    +0.000 A 
ATOM     13  F   UNL     1      20.890  13.668  38.664  0.00  0.00    +0.000 F 
ATOM     14  C   UNL     1      18.856  13.344  37.588  0.00  0.00    +0.000 A 
ATOM     15  C   UNL     1      17.851  12.465  37.217  0.00  0.00    +0.000 A 
ENDBRANCH   4   9
BRANCH   1  16
ATOM     16  C   UNL     1      16.383  11.157  33.343  0.00  0.00    +0.000 C 
ATOM     17  O   UNL     1      17.088  12.067  32.854  0.00  0.00    +0.000 OA
BRANCH  16  18
ATOM     18  O   UNL     1      15.896  10.192  32.481  0.00  0.00    +0.000 OA
BRANCH  18  20
ATOM     19  C   UNL     1      14.550  11.311  30.820  0.00  0.00    +0.000 C 
ATOM     20  C   UNL     1      14.581  10.314  31.975  0.00  0.00    +0.000 C 
ENDBRANCH  18  20
ENDBRANCH  16  18
ENDBRANCH   1  16
TORSDOF 4
ENDMDL
MODEL 2
REMARK VINA RESULT:      -6.0     18.739     20.086
REMARK  Name = 
REMARK  4 active torsions:
REMARK  status: ('A' for Active; 'I' for Inactive)
REMARK    1  A    between atoms: C_2  and  O_3
REMARK    2  A    between atoms: O_3  and  C_4
REMARK    3  A    between atoms: C_4  and  C_6
REMARK    4  A    between atoms: C_9  and  C_10
REMARK                            x       y       z     vdW  Elec       q    Type
REMARK                         _______ _______ _______ _____ _____    ______ ____
ROOT
ATOM      1  C   UNL     1      26.072  25.293  24.500  0.00  0.00    +0.000 C 
ATOM      2  C   UNL     1      27.308  25.408  24.209  0.00  0.00    +0.000 C 
ATOM      3  C   UNL     1      28.131  26.504  24.802  0.00  0.00    +0.000 C 
ATOM      4  C   UNL     1      28.115  24.497  23.258  0.00  0.00    +0.000 C 
ATOM      5  N   UNL     1      27.165  23.475  22.760  0.00  0.00    +0.000 NA
ATOM      6  C   UNL     1      25.846  23.363  23.080  0.00  0.00    +0.000 C 
ATOM      7  O   UNL     1      25.087  22.423  22.586  0.00  0.00    +0.000 OA
ATOM      8  N   UNL     1      25.218  24.271  23.974  0.00  0.00    +0.000 NA
ENDROOT
BRANCH   4   9
ATOM      9  C   UNL     1      28.893  23.636  24.342  0.00  0.00    +0.000 A 
ATOM     10  C   UNL     1      30.227  23.434  24.193  0.00  0.00    +0.000 A 
ATOM     11  C   UNL     1      30.879  22.675  25.177  0.00  0.00    +0.000 A 
ATOM     12  C   UNL     1      30.191  22.161  26.243  0.00  0.00    +0.000 A 
ATOM     13  F   UNL     1      30.793  21.421  27.213  0.00  0.00    +0.000 F 
ATOM     14  C   UNL     1      28.836  22.368  26.390  0.00  0.00    +0.000 A 
ATOM     15  C   UNL     1      28.223  23.121  25.402  0.00  0.00    +0.000 A 
ENDBRANCH   4   9
BRANCH   1  16
ATOM     16  C   UNL     1      25.488  26.269  25.433  0.00  0.00    +0.000 C 
ATOM     17  O   UNL     1      24.893  27.288  25.018  0.00  0.00    +0.000 OA
BRANCH  16  18
ATOM     18  O   UNL     1      25.574  26.092  26.801  0.00  0.00    +0.000 OA
BRANCH  18  20
ATOM     19  C   UNL     1      25.837  24.081  28.108  0.00  0.00    +0.000 C 
ATOM     20  C   UNL     1      24.866  25.030  27.410  0.00  0.00    +0.000 C 
ENDBRANCH  18  20
ENDBRANCH  16  18
ENDBRANCH   1  16
TORSDOF 4
ENDMDL
MODEL 3
REMARK VINA RESULT:      -6.0     18.740     20.178
REMARK  Name = 
REMARK  4 active torsions:
REMARK  status: ('A' for Active; 'I' for Inactive)
REMARK    1  A    between atoms: C_2  and  O_3
REMARK    2  A    between atoms: O_3  and  C_4
REMARK    3  A    between atoms: C_4  and  C_6
REMARK    4  A    between atoms: C_9  and  C_10
REMARK                            x       y       z     vdW  Elec       q    Type
REMARK                         _______ _______ _______ _____ _____    ______ ____
ROOT
ATOM      1  C   UNL     1      25.960  24.243  25.589  0.00  0.00    +0.000 C 
ATOM      2  C   UNL     1      26.787  25.156  25.261  0.00  0.00    +0.000 C 
ATOM      3  C   UNL     1      27.329  26.097  26.287  0.00  0.00    +0.000 C 
ATOM      4  C   UNL     1      27.338  25.429  23.845  0.00  0.00    +0.000 C 
ATOM      5  N   UNL     1      26.712  24.423  22.957  0.00  0.00    +0.000 NA
ATOM      6  C   UNL     1      25.828  23.451  23.320  0.00  0.00    +0.000 C 
ATOM      7  O   UNL     1      25.328  22.607  22.460  0.00  0.00    +0.000 OA
ATOM      8  N   UNL     1      25.397  23.304  24.666  0.00  0.00    +0.000 NA
ENDROOT
BRANCH   4   9
ATOM      9  C   UNL     1      28.779  24.781  24.011  0.00  0.00    +0.000 A 
ATOM     10  C   UNL     1      28.890  23.431  24.105  0.00  0.00    +0.000 A 
ATOM     11  C   UNL     1      30.180  22.897  24.242  0.00  0.00    +0.000 A 
ATOM     12  C   UNL     1      31.280  23.711  24.279  0.00  0.00    +0.000 A 
ATOM     13  F   UNL     1      32.545  23.225  24.412  0.00  0.00    +0.000 F 
ATOM     14  C   UNL     1      31.163  25.081  24.183  0.00  0.00    +0.000 A 
ATOM     15  C   UNL     1      29.876  25.576  24.049  0.00  0.00    +0.000 A 
ENDBRANCH   4   9
BRANCH   1  16
ATOM     16  C   UNL     1      25.558  24.148  27.001  0.00  0.00    +0.000 C 
ATOM     17  O   UNL     1      24.550  24.752  27.431  0.00  0.00    +0.000 OA
BRANCH  16  18
ATOM     18  O   UNL     1      26.280  23.388  27.902  0.00  0.00    +0.000 OA
BRANCH  18  20
ATOM     19  C   UNL     1      26.341  22.476  30.134  0.00  0.00    +0.000 C 
ATOM     20  C   UNL     1      26.261  23.734  29.273  0.00  0.00    +0.000 C 
ENDBRANCH  18  20
ENDBRANCH  16  18
ENDBRANCH   1  16
TORSDOF 4
ENDMDL
MODEL 4
REMARK VINA RESULT:      -5.9     20.435     22.233
REMARK  Name = 
REMARK  4 active torsions:
REMARK  status: ('A' for Active; 'I' for Inactive)
REMARK    1  A    between atoms: C_2  and  O_3
REMARK    2  A    between atoms: O_3  and  C_4
REMARK    3  A    between atoms: C_4  and  C_6
REMARK    4  A    between atoms: C_9  and  C_10
REMARK                            x       y       z     vdW  Elec       q    Type
REMARK                         _______ _______ _______ _____ _____    ______ ____
ROOT
ATOM      1  C   UNL     1      20.068  -7.528  25.535  0.00  0.00    +0.000 C 
ATOM      2  C   UNL     1      19.147  -8.401  25.419  0.00  0.00    +0.000 C 
ATOM      3  C   UNL     1      19.460  -9.780  24.938  0.00  0.00    +0.000 C 
ATOM      4  C   UNL     1      17.648  -8.200  25.734  0.00  0.00    +0.000 C 
ATOM      5  N   UNL     1      17.506  -6.799  26.192  0.00  0.00    +0.000 NA
ATOM      6  C   UNL     1      18.500  -5.875  26.313  0.00  0.00    +0.000 C 
ATOM      7  O   UNL     1      18.275  -4.659  26.727  0.00  0.00    +0.000 OA
ATOM      8  N   UNL     1      19.848  -6.187  25.988  0.00  0.00    +0.000 NA
ENDROOT
BRANCH   4   9
ATOM      9  C   UNL     1      17.588  -8.949  27.133  0.00  0.00    +0.000 A 
ATOM     10  C   UNL     1      16.702  -9.963  27.303  0.00  0.00    +0.000 A 
ATOM     11  C   UNL     1      16.686 -10.605  28.551  0.00  0.00    +0.000 A 
ATOM     12  C   UNL     1      17.533 -10.217  29.555  0.00  0.00    +0.000 A 
ATOM     13  F   UNL     1      17.542 -10.817  30.775  0.00  0.00    +0.000 F 
ATOM     14  C   UNL     1      18.431  -9.187  29.378  0.00  0.00    +0.000 A 
ATOM     15  C   UNL     1      18.421  -8.575  28.134  0.00  0.00    +0.000 A 
ENDBRANCH   4   9
BRANCH   1  16
ATOM     16  C   UNL     1      21.442  -7.920  25.182  0.00  0.00    +0.000 C 
ATOM     17  O   UNL     1      22.152  -8.579  25.974  0.00  0.00    +0.000 OA
BRANCH  16  18
ATOM     18  O   UNL     1      21.994  -7.577  23.962  0.00  0.00    +0.000 OA
BRANCH  18  20
ATOM     19  C   UNL     1      24.142  -6.482  24.040  0.00  0.00    +0.000 C 
ATOM     20  C   UNL     1      22.640  -6.327  23.820  0.00  0.00    +0.000 C 
ENDBRANCH  18  20
ENDBRANCH  16  18
ENDBRANCH   1  16
TORSDOF 4
ENDMDL
MODEL 5
REMARK VINA RESULT:      -5.9      4.077      6.235
REMARK  Name = 
REMARK  4 active torsions:
REMARK  status: ('A' for Active; 'I' for Inactive)
REMARK    1  A    between atoms: C_2  and  O_3
REMARK    2  A    between atoms: O_3  and  C_4
REMARK    3  A    between atoms: C_4  and  C_6
REMARK    4  A    between atoms: C_9  and  C_10
REMARK                            x       y       z     vdW  Elec       q    Type
REMARK                         _______ _______ _______ _____ _____    ______ ____
ROOT
ATOM      1  C   UNL     1      20.374  10.419  38.723  0.00  0.00    +0.000 C 
ATOM      2  C   UNL     1      19.407  11.195  38.427  0.00  0.00    +0.000 C 
ATOM      3  C   UNL     1      19.663  12.609  38.018  0.00  0.00    +0.000 C 
ATOM      4  C   UNL     1      17.906  10.836  38.437  0.00  0.00    +0.000 C 
ATOM      5  N   UNL     1      17.823   9.418  38.858  0.00  0.00    +0.000 NA
ATOM      6  C   UNL     1      18.865   8.598  39.172  0.00  0.00    +0.000 C 
ATOM      7  O   UNL     1      18.690   7.357  39.535  0.00  0.00    +0.000 OA
ATOM      8  N   UNL     1      20.210   9.053  39.123  0.00  0.00    +0.000 NA
ENDROOT
BRANCH   4   9
ATOM      9  C   UNL     1      17.682  10.665  36.874  0.00  0.00    +0.000 A 
ATOM     10  C   UNL     1      17.024  11.636  36.190  0.00  0.00    +0.000 A 
ATOM     11  C   UNL     1      16.855  11.452  34.809  0.00  0.00    +0.000 A 
ATOM     12  C   UNL     1      17.336  10.334  34.182  0.00  0.00    +0.000 A 
ATOM     13  F   UNL     1      17.188  10.124  32.846  0.00  0.00    +0.000 F 
ATOM     14  C   UNL     1      18.003   9.350  34.880  0.00  0.00    +0.000 A 
ATOM     15  C   UNL     1      18.153   9.563  36.241  0.00  0.00    +0.000 A 
ENDBRANCH   4   9
BRANCH   1  16
ATOM     16  C   UNL     1      21.741  10.957  38.649  0.00  0.00    +0.000 C 
ATOM     17  O   UNL     1      22.348  11.328  39.678  0.00  0.00    +0.000 OA
BRANCH  16  18
ATOM     18  O   UNL     1      22.403  11.070  37.441  0.00  0.00    +0.000 OA
BRANCH  18  20
ATOM     19  C   UNL     1      23.427   9.079  36.545  0.00  0.00    +0.000 C 
ATOM     20  C   UNL     1      22.254  10.052  36.471  0.00  0.00    +0.000 C 
ENDBRANCH  18  20
ENDBRANCH  16  18
ENDBRANCH   1  16
TORSDOF 4
ENDMDL
MODEL 6
REMARK VINA RESULT:      -5.8     20.260     21.497
REMARK  Name = 
REMARK  4 active torsions:
REMARK  status: ('A' for Active; 'I' for Inactive)
REMARK    1  A    between atoms: C_2  and  O_3
REMARK    2  A    between atoms: O_3  and  C_4
REMARK    3  A    between atoms: C_4  and  C_6
REMARK    4  A    between atoms: C_9  and  C_10
REMARK                            x       y       z     vdW  Elec       q    Type
REMARK                         _______ _______ _______ _____ _____    ______ ____
ROOT
ATOM      1  C   UNL     1      28.320  25.707  22.943  0.00  0.00    +0.000 C 
ATOM      2  C   UNL     1      29.241  24.934  23.366  0.00  0.00    +0.000 C 
ATOM      3  C   UNL     1      30.438  25.487  24.067  0.00  0.00    +0.000 C 
ATOM      4  C   UNL     1      29.277  23.395  23.237  0.00  0.00    +0.000 C 
ATOM      5  N   UNL     1      28.035  23.011  22.528  0.00  0.00    +0.000 NA
ATOM      6  C   UNL     1      27.058  23.848  22.081  0.00  0.00    +0.000 C 
ATOM      7  O   UNL     1      25.995  23.412  21.463  0.00  0.00    +0.000 OA
ATOM      8  N   UNL     1      27.144  25.255  22.263  0.00  0.00    +0.000 NA
ENDROOT
BRANCH   4   9
ATOM      9  C   UNL     1      28.867  23.014  24.723  0.00  0.00    +0.000 A 
ATOM     10  C   UNL     1      27.581  23.194  25.122  0.00  0.00    +0.000 A 
ATOM     11  C   UNL     1      27.257  22.836  26.440  0.00  0.00    +0.000 A 
ATOM     12  C   UNL     1      28.205  22.327  27.286  0.00  0.00    +0.000 A 
ATOM     13  F   UNL     1      27.924  21.971  28.569  0.00  0.00    +0.000 F 
ATOM     14  C   UNL     1      29.509  22.146  26.878  0.00  0.00    +0.000 A 
ATOM     15  C   UNL     1      29.796  22.509  25.571  0.00  0.00    +0.000 A 
ENDBRANCH   4   9
BRANCH   1  16
ATOM     16  C   UNL     1      28.475  27.153  23.167  0.00  0.00    +0.000 C 
ATOM     17  O   UNL     1      27.919  27.723  24.132  0.00  0.00    +0.000 OA
BRANCH  16  18
ATOM     18  O   UNL     1      29.240  27.932  22.320  0.00  0.00    +0.000 OA
BRANCH  18  20
ATOM     19  C   UNL     1      29.672  27.388  20.010  0.00  0.00    +0.000 C 
ATOM     20  C   UNL     1      28.798  28.158  20.996  0.00  0.00    +0.000 C 
ENDBRANCH  18  20
ENDBRANCH  16  18
ENDBRANCH   1  16
TORSDOF 4
ENDMDL
MODEL 7
REMARK VINA RESULT:      -5.7     16.742     18.319
REMARK  Name = 
REMARK  4 active torsions:
REMARK  status: ('A' for Active; 'I' for Inactive)
REMARK    1  A    between atoms: C_2  and  O_3
REMARK    2  A    between atoms: O_3  and  C_4
REMARK    3  A    between atoms: C_4  and  C_6
REMARK    4  A    between atoms: C_9  and  C_10
REMARK                            x       y       z     vdW  Elec       q    Type
REMARK                         _______ _______ _______ _____ _____    ______ ____
ROOT
ATOM      1  C   UNL     1      28.498  23.119  29.751  0.00  0.00    +0.000 C 
ATOM      2  C   UNL     1      28.053  24.313  29.730  0.00  0.00    +0.000 C 
ATOM      3  C   UNL     1      28.924  25.444  29.290  0.00  0.00    +0.000 C 
ATOM      4  C   UNL     1      26.632  24.769  30.128  0.00  0.00    +0.000 C 
ATOM      5  N   UNL     1      25.904  23.545  30.535  0.00  0.00    +0.000 NA
ATOM      6  C   UNL     1      26.392  22.273  30.552  0.00  0.00    +0.000 C 
ATOM      7  O   UNL     1      25.670  21.255  30.929  0.00  0.00    +0.000 OA
ATOM      8  N   UNL     1      27.727  21.984  30.159  0.00  0.00    +0.000 NA
ENDROOT
BRANCH   4   9
ATOM      9  C   UNL     1      26.023  24.974  28.676  0.00  0.00    +0.000 A 
ATOM     10  C   UNL     1      25.514  26.187  28.337  0.00  0.00    +0.000 A 
ATOM     11  C   UNL     1      24.993  26.330  27.042  0.00  0.00    +0.000 A 
ATOM     12  C   UNL     1      24.999  25.284  26.160  0.00  0.00    +0.000 A 
ATOM     13  F   UNL     1      24.502  25.389  24.898  0.00  0.00    +0.000 F 
ATOM     14  C   UNL     1      25.516  24.054  26.508  0.00  0.00    +0.000 A 
ATOM     15  C   UNL     1      26.023  23.946  27.793  0.00  0.00    +0.000 A 
ENDBRANCH   4   9
BRANCH   1  16
ATOM     16  C   UNL     1      29.890  22.893  29.329  0.00  0.00    +0.000 C 
ATOM     17  O   UNL     1      30.785  22.630  30.162  0.00  0.00    +0.000 OA
BRANCH  16  18
ATOM     18  O   UNL     1      30.255  22.960  27.998  0.00  0.00    +0.000 OA
BRANCH  18  20
ATOM     19  C   UNL     1      29.074  22.906  25.896  0.00  0.00    +0.000 C 
ATOM     20  C   UNL     1      29.634  22.099  27.064  0.00  0.00    +0.000 C 
ENDBRANCH  18  20
ENDBRANCH  16  18
ENDBRANCH   1  16
TORSDOF 4
ENDMDL
MODEL 8
REMARK VINA RESULT:      -5.5     20.626     22.458
REMARK  Name = 
REMARK  4 active torsions:
REMARK  status: ('A' for Active; 'I' for Inactive)
REMARK    1  A    between atoms: C_2  and  O_3
REMARK    2  A    between atoms: O_3  and  C_4
REMARK    3  A    between atoms: C_4  and  C_6
REMARK    4  A    between atoms: C_9  and  C_10
REMARK                            x       y       z     vdW  Elec       q    Type
REMARK                         _______ _______ _______ _____ _____    ______ ____
ROOT
ATOM      1  C   UNL     1      16.837  -9.743  27.013  0.00  0.00    +0.000 C 
ATOM      2  C   UNL     1      17.323  -8.725  27.607  0.00  0.00    +0.000 C 
ATOM      3  C   UNL     1      18.213  -8.889  28.795  0.00  0.00    +0.000 C 
ATOM      4  C   UNL     1      17.092  -7.246  27.229  0.00  0.00    +0.000 C 
ATOM      5  N   UNL     1      16.200  -7.256  26.047  0.00  0.00    +0.000 NA
ATOM      6  C   UNL     1      15.688  -8.352  25.420  0.00  0.00    +0.000 C 
ATOM      7  O   UNL     1      14.906  -8.258  24.381  0.00  0.00    +0.000 OA
ATOM      8  N   UNL     1      15.978  -9.668  25.870  0.00  0.00    +0.000 NA
ENDROOT
BRANCH   4   9
ATOM      9  C   UNL     1      18.481  -6.954  26.514  0.00  0.00    +0.000 A 
ATOM     10  C   UNL     1      18.916  -5.672  26.412  0.00  0.00    +0.000 A 
ATOM     11  C   UNL     1      20.151  -5.457  25.782  0.00  0.00    +0.000 A 
ATOM     12  C   UNL     1      20.884  -6.504  25.291  0.00  0.00    +0.000 A 
ATOM     13  F   UNL     1      22.085  -6.331  24.675  0.00  0.00    +0.000 F 
ATOM     14  C   UNL     1      20.439  -7.804  25.397  0.00  0.00    +0.000 A 
ATOM     15  C   UNL     1      19.216  -7.982  26.024  0.00  0.00    +0.000 A 
ENDBRANCH   4   9
BRANCH   1  16
ATOM     16  C   UNL     1      17.181 -11.076  27.533  0.00  0.00    +0.000 C 
ATOM     17  O   UNL     1      18.266 -11.625  27.242  0.00  0.00    +0.000 OA
BRANCH  16  18
ATOM     18  O   UNL     1      16.317 -11.766  28.362  0.00  0.00    +0.000 OA
BRANCH  18  20
ATOM     19  C   UNL     1      16.025 -11.239  30.697  0.00  0.00    +0.000 C 
ATOM     20  C   UNL     1      16.736 -12.112  29.668  0.00  0.00    +0.000 C 
ENDBRANCH  18  20
ENDBRANCH  16  18
ENDBRANCH   1  16
TORSDOF 4
ENDMDL
MODEL 9
REMARK VINA RESULT:      -5.4     19.862     21.319
REMARK  Name = 
REMARK  4 active torsions:
REMARK  status: ('A' for Active; 'I' for Inactive)
REMARK    1  A    between atoms: C_2  and  O_3
REMARK    2  A    between atoms: O_3  and  C_4
REMARK    3  A    between atoms: C_4  and  C_6
REMARK    4  A    between atoms: C_9  and  C_10
REMARK                            x       y       z     vdW  Elec       q    Type
REMARK                         _______ _______ _______ _____ _____    ______ ____
ROOT
ATOM      1  C   UNL     1      29.305  23.375  24.199  0.00  0.00    +0.000 C 
ATOM      2  C   UNL     1      28.056  23.188  24.377  0.00  0.00    +0.000 C 
ATOM      3  C   UNL     1      27.541  22.684  25.685  0.00  0.00    +0.000 C 
ATOM      4  C   UNL     1      26.935  23.433  23.344  0.00  0.00    +0.000 C 
ATOM      5  N   UNL     1      27.604  23.924  22.117  0.00  0.00    +0.000 NA
ATOM      6  C   UNL     1      28.941  24.121  21.939  0.00  0.00    +0.000 C 
ATOM      7  O   UNL     1      29.437  24.558  20.815  0.00  0.00    +0.000 OA
ATOM      8  N   UNL     1      29.876  23.855  22.976  0.00  0.00    +0.000 NA
ENDROOT
BRANCH   4   9
ATOM      9  C   UNL     1      26.373  24.806  23.911  0.00  0.00    +0.000 A 
ATOM     10  C   UNL     1      25.305  24.787  24.749  0.00  0.00    +0.000 A 
ATOM     11  C   UNL     1      24.843  26.020  25.235  0.00  0.00    +0.000 A 
ATOM     12  C   UNL     1      25.450  27.193  24.874  0.00  0.00    +0.000 A 
ATOM     13  F   UNL     1      25.028  28.404  25.326  0.00  0.00    +0.000 F 
ATOM     14  C   UNL     1      26.534  27.207  24.022  0.00  0.00    +0.000 A 
ATOM     15  C   UNL     1      26.965  25.973  23.561  0.00  0.00    +0.000 A 
ENDBRANCH   4   9
BRANCH   1  16
ATOM     16  C   UNL     1      30.215  23.081  25.317  0.00  0.00    +0.000 C 
ATOM     17  O   UNL     1      30.883  22.024  25.348  0.00  0.00    +0.000 OA
BRANCH  16  18
ATOM     18  O   UNL     1      30.365  23.963  26.370  0.00  0.00    +0.000 OA
BRANCH  18  20
ATOM     19  C   UNL     1      29.065  25.964  26.724  0.00  0.00    +0.000 C 
ATOM     20  C   UNL     1      30.327  25.355  26.120  0.00  0.00    +0.000 C 
ENDBRANCH  18  20
ENDBRANCH  16  18
ENDBRANCH   1  16
TORSDOF 4
ENDMDL
MODEL 10
REMARK VINA RESULT:      -5.4     20.525     22.259
REMARK  Name = 
REMARK  4 active torsions:
REMARK  status: ('A' for Active; 'I' for Inactive)
REMARK    1  A    between atoms: C_2  and  O_3
REMARK    2  A    between atoms: O_3  and  C_4
REMARK    3  A    between atoms: C_4  and  C_6
REMARK    4  A    between atoms: C_9  and  C_10
REMARK                            x       y       z     vdW  Elec       q    Type
REMARK                         _______ _______ _______ _____ _____    ______ ____
ROOT
ATOM      1  C   UNL     1      16.851 -10.274  27.101  0.00  0.00    +0.000 C 
ATOM      2  C   UNL     1      17.927  -9.965  26.492  0.00  0.00    +0.000 C 
ATOM      3  C   UNL     1      18.008 -10.036  25.003  0.00  0.00    +0.000 C 
ATOM      4  C   UNL     1      19.246  -9.494  27.144  0.00  0.00    +0.000 C 
ATOM      5  N   UNL     1      19.002  -9.478  28.604  0.00  0.00    +0.000 NA
ATOM      6  C   UNL     1      17.845  -9.811  29.243  0.00  0.00    +0.000 C 
ATOM      7  O   UNL     1      17.728  -9.765  30.541  0.00  0.00    +0.000 OA
ATOM      8  N   UNL     1      16.694 -10.232  28.523  0.00  0.00    +0.000 NA
ENDROOT
BRANCH   4   9
ATOM      9  C   UNL     1      19.132  -7.940  26.835  0.00  0.00    +0.000 A 
ATOM     10  C   UNL     1      18.116  -7.229  27.387  0.00  0.00    +0.000 A 
ATOM     11  C   UNL     1      18.056  -5.857  27.097  0.00  0.00    +0.000 A 
ATOM     12  C   UNL     1      18.989  -5.265  26.288  0.00  0.00    +0.000 A 
ATOM     13  F   UNL     1      18.959  -3.939  25.988  0.00  0.00    +0.000 F 
ATOM     14  C   UNL     1      20.018  -5.991  25.730  0.00  0.00    +0.000 A 
ATOM     15  C   UNL     1      20.049  -7.343  26.036  0.00  0.00    +0.000 A 
ENDBRANCH   4   9
BRANCH   1  16
ATOM     16  C   UNL     1      15.697 -10.701  26.292  0.00  0.00    +0.000 C 
ATOM     17  O   UNL     1      15.505 -11.907  26.022  0.00  0.00    +0.000 OA
BRANCH  16  18
ATOM     18  O   UNL     1      14.786  -9.784  25.804  0.00  0.00    +0.000 OA
BRANCH  18  20
ATOM     19  C   UNL     1      12.767  -8.464  25.845  0.00  0.00    +0.000 C 
ATOM     20  C   UNL     1      13.540  -9.629  26.456  0.00  0.00    +0.000 C 
ENDBRANCH  18  20
ENDBRANCH  16  18
ENDBRANCH   1  16
TORSDOF 4
ENDMDL
