MODEL 1
REMARK VINA RESULT:      -6.6      0.000      0.000
REMARK  Name = 
REMARK  3 active torsions:
REMARK  status: ('A' for Active; 'I' for Inactive)
REMARK    1  A    between atoms: C_2  and  C_3
REMARK    2  A    between atoms: C_3  and  N_5
REMARK    3  A    between atoms: C_16  and  O_17
REMARK                            x       y       z     vdW  Elec       q    Type
REMARK                         _______ _______ _______ _____ _____    ______ ____
ROOT
ATOM      1  N   UNL     1      20.294  10.484  37.405  0.00  0.00    +0.000 NA
ATOM      2  C   UNL     1      19.129  10.227  38.095  0.00  0.00    +0.000 A 
ATOM      3  N   UNL     1      19.081   9.478  39.204  0.00  0.00    +0.000 NA
ATOM      4  C   UNL     1      17.934   9.234  39.871  0.00  0.00    +0.000 A 
ATOM      5  N   UNL     1      16.788   9.758  39.415  0.00  0.00    +0.000 NA
ATOM      6  C   UNL     1      16.739  10.521  38.315  0.00  0.00    +0.000 A 
ATOM      7  C   UNL     1      17.942  10.756  37.645  0.00  0.00    +0.000 A 
ATOM      8  N   UNL     1      17.615  11.535  36.596  0.00  0.00    +0.000 NA
ATOM      9  C   UNL     1      16.305  11.795  36.571  0.00  0.00    +0.000 A 
ATOM     10  C   UNL     1      15.549  12.528  35.703  0.00  0.00    +0.000 A 
ATOM     11  C   UNL     1      14.181  12.624  35.934  0.00  0.00    +0.000 A 
ATOM     12  C   UNL     1      13.583  12.002  37.006  0.00  0.00    +0.000 A 
ATOM     13  C   UNL     1      14.378  11.278  37.849  0.00  0.00    +0.000 A 
ATOM     14  C   UNL     1      15.730  11.167  37.643  0.00  0.00    +0.000 A 
ENDROOT
BRANCH   1  15
ATOM     15  C   UNL     1      21.654   9.907  37.877  0.00  0.00    +0.000 C 
ATOM     16  C   UNL     1      22.176  11.352  38.448  0.00  0.00    +0.000 C 
BRANCH  15  18
ATOM     17  C   UNL     1      23.451   9.025  36.504  0.00  0.00    +0.000 C 
ATOM     18  C   UNL     1      22.403  10.125  36.419  0.00  0.00    +0.000 C 
ENDBRANCH  15  18
ENDBRANCH   1  15
BRANCH  12  19
ATOM     19  O   UNL     1      12.218  12.098  37.235  0.00  0.00    +0.000 OA
ATOM     20  C   UNL     1      11.435  11.042  37.711  0.00  0.00    +0.000 C 
ENDBRANCH  12  19
TORSDOF 3
ENDMDL
MODEL 2
REMARK VINA RESULT:      -6.3     18.902     21.124
REMARK  Name = 
REMARK  3 active torsions:
REMARK  status: ('A' for Active; 'I' for Inactive)
REMARK    1  A    between atoms: C_2  and  C_3
REMARK    2  A    between atoms: C_3  and  N_5
REMARK    3  A    between atoms: C_16  and  O_17
REMARK                            x       y       z     vdW  Elec       q    Type
REMARK                         _______ _______ _______ _____ _____    ______ ____
ROOT
ATOM      1  N   UNL     1      27.724  22.543  28.702  0.00  0.00    +0.000 NA
ATOM      2  C   UNL     1      28.799  22.851  27.896  0.00  0.00    +0.000 A 
ATOM      3  N   UNL     1      30.061  22.908  28.341  0.00  0.00    +0.000 NA
ATOM      4  C   UNL     1      31.104  23.211  27.542  0.00  0.00    +0.000 A 
ATOM      5  N   UNL     1      30.882  23.468  26.245  0.00  0.00    +0.000 NA
ATOM      6  C   UNL     1      29.654  23.434  25.710  0.00  0.00    +0.000 A 
ATOM      7  C   UNL     1      28.593  23.118  26.562  0.00  0.00    +0.000 A 
ATOM      8  N   UNL     1      27.494  23.153  25.784  0.00  0.00    +0.000 NA
ATOM      9  C   UNL     1      27.799  23.467  24.523  0.00  0.00    +0.000 A 
ATOM     10  C   UNL     1      27.014  23.614  23.416  0.00  0.00    +0.000 A 
ATOM     11  C   UNL     1      27.622  23.951  22.212  0.00  0.00    +0.000 A 
ATOM     12  C   UNL     1      28.982  24.138  22.116  0.00  0.00    +0.000 A 
ATOM     13  C   UNL     1      29.729  23.982  23.249  0.00  0.00    +0.000 A 
ATOM     14  C   UNL     1      29.154  23.649  24.449  0.00  0.00    +0.000 A 
ENDROOT
BRANCH   1  15
ATOM     15  C   UNL     1      27.910  22.237  30.210  0.00  0.00    +0.000 C 
ATOM     16  C   UNL     1      26.384  21.665  30.380  0.00  0.00    +0.000 C 
BRANCH  15  18
ATOM     17  C   UNL     1      26.086  23.835  30.109  0.00  0.00    +0.000 C 
ATOM     18  C   UNL     1      27.482  23.754  30.708  0.00  0.00    +0.000 C 
ENDBRANCH  15  18
ENDBRANCH   1  15
BRANCH  12  19
ATOM     19  O   UNL     1      29.588  24.476  20.914  0.00  0.00    +0.000 OA
ATOM     20  C   UNL     1      29.546  25.758  20.356  0.00  0.00    +0.000 C 
ENDBRANCH  12  19
TORSDOF 3
ENDMDL
MODEL 3
REMARK VINA RESULT:      -5.9     20.876     22.461
REMARK  Name = 
REMARK  3 active torsions:
REMARK  status: ('A' for Active; 'I' for Inactive)
REMARK    1  A    between atoms: C_2  and  C_3
REMARK    2  A    between atoms: C_3  and  N_5
REMARK    3  A    between atoms: C_16  and  O_17
REMARK                            x       y       z     vdW  Elec       q    Type
REMARK                         _______ _______ _______ _____ _____    ______ ____
ROOT
ATOM      1  N   UNL     1      21.823  -7.294  24.736  0.00  0.00    +0.000 NA
ATOM      2  C   UNL     1      20.708  -6.988  25.486  0.00  0.00    +0.000 A 
ATOM      3  N   UNL     1      20.105  -5.793  25.454  0.00  0.00    +0.000 NA
ATOM      4  C   UNL     1      19.014  -5.505  26.193  0.00  0.00    +0.000 A 
ATOM      5  N   UNL     1      18.502  -6.448  26.997  0.00  0.00    +0.000 NA
ATOM      6  C   UNL     1      19.037  -7.672  27.094  0.00  0.00    +0.000 A 
ATOM      7  C   UNL     1      20.167  -7.940  26.317  0.00  0.00    +0.000 A 
ATOM      8  N   UNL     1      20.494  -9.216  26.601  0.00  0.00    +0.000 NA
ATOM      9  C   UNL     1      19.653  -9.749  27.490  0.00  0.00    +0.000 A 
ATOM     10  C   UNL     1      19.607 -10.992  28.054  0.00  0.00    +0.000 A 
ATOM     11  C   UNL     1      18.597 -11.268  28.968  0.00  0.00    +0.000 A 
ATOM     12  C   UNL     1      17.654 -10.326  29.311  0.00  0.00    +0.000 A 
ATOM     13  C   UNL     1      17.738  -9.095  28.723  0.00  0.00    +0.000 A 
ATOM     14  C   UNL     1      18.725  -8.797  27.818  0.00  0.00    +0.000 A 
ENDROOT
BRANCH   1  15
ATOM     15  C   UNL     1      22.467  -6.250  23.787  0.00  0.00    +0.000 C 
ATOM     16  C   UNL     1      22.901  -7.382  22.683  0.00  0.00    +0.000 C 
BRANCH  15  18
ATOM     17  C   UNL     1      24.739  -7.044  23.470  0.00  0.00    +0.000 C 
ATOM     18  C   UNL     1      23.945  -6.291  24.527  0.00  0.00    +0.000 C 
ENDBRANCH  15  18
ENDBRANCH   1  15
BRANCH  12  19
ATOM     19  O   UNL     1      16.646 -10.602  30.224  0.00  0.00    +0.000 OA
ATOM     20  C   UNL     1      16.723 -10.286  31.584  0.00  0.00    +0.000 C 
ENDBRANCH  12  19
TORSDOF 3
ENDMDL
MODEL 4
REMARK VINA RESULT:      -5.9     30.810     33.226
REMARK  Name = 
REMARK  3 active torsions:
REMARK  status: ('A' for Active; 'I' for Inactive)
REMARK    1  A    between atoms: C_2  and  C_3
REMARK    2  A    between atoms: C_3  and  N_5
REMARK    3  A    between atoms: C_16  and  O_17
REMARK                            x       y       z     vdW  Elec       q    Type
REMARK                         _______ _______ _______ _____ _____    ______ ____
ROOT
ATOM      1  N   UNL     1      28.556  22.457  11.210  0.00  0.00    +0.000 NA
ATOM      2  C   UNL     1      29.835  22.065  11.543  0.00  0.00    +0.000 A 
ATOM      3  N   UNL     1      30.174  21.613  12.757  0.00  0.00    +0.000 NA
ATOM      4  C   UNL     1      31.429  21.233  13.070  0.00  0.00    +0.000 A 
ATOM      5  N   UNL     1      32.387  21.305  12.135  0.00  0.00    +0.000 NA
ATOM      6  C   UNL     1      32.142  21.743  10.894  0.00  0.00    +0.000 A 
ATOM      7  C   UNL     1      30.832  22.131  10.598  0.00  0.00    +0.000 A 
ATOM      8  N   UNL     1      30.863  22.522   9.310  0.00  0.00    +0.000 NA
ATOM      9  C   UNL     1      32.089  22.404   8.793  0.00  0.00    +0.000 A 
ATOM     10  C   UNL     1      32.571  22.680   7.546  0.00  0.00    +0.000 A 
ATOM     11  C   UNL     1      33.918  22.453   7.292  0.00  0.00    +0.000 A 
ATOM     12  C   UNL     1      34.765  21.962   8.259  0.00  0.00    +0.000 A 
ATOM     13  C   UNL     1      34.240  21.700   9.493  0.00  0.00    +0.000 A 
ATOM     14  C   UNL     1      32.913  21.915   9.771  0.00  0.00    +0.000 A 
ENDROOT
BRANCH   1  15
ATOM     15  C   UNL     1      27.401  22.401  12.244  0.00  0.00    +0.000 C 
ATOM     16  C   UNL     1      26.241  22.365  11.087  0.00  0.00    +0.000 C 
BRANCH  15  18
ATOM     17  C   UNL     1      27.790  24.185  13.843  0.00  0.00    +0.000 C 
ATOM     18  C   UNL     1      27.293  24.042  12.412  0.00  0.00    +0.000 C 
ENDBRANCH  15  18
ENDBRANCH   1  15
BRANCH  12  19
ATOM     19  O   UNL     1      36.110  21.737   8.005  0.00  0.00    +0.000 OA
ATOM     20  C   UNL     1      37.112  21.845   8.974  0.00  0.00    +0.000 C 
ENDBRANCH  12  19
TORSDOF 3
ENDMDL
MODEL 5
REMARK VINA RESULT:      -5.7     18.097     19.651
REMARK  Name = 
REMARK  3 active torsions:
REMARK  status: ('A' for Active; 'I' for Inactive)
REMARK    1  A    between atoms: C_2  and  C_3
REMARK    2  A    between atoms: C_3  and  N_5
REMARK    3  A    between atoms: C_16  and  O_17
REMARK                            x       y       z     vdW  Elec       q    Type
REMARK                         _______ _______ _______ _____ _____    ______ ____
ROOT
ATOM      1  N   UNL     1      33.627  -1.770  34.390  0.00  0.00    +0.000 NA
ATOM      2  C   UNL     1      33.833  -0.858  35.404  0.00  0.00    +0.000 A 
ATOM      3  N   UNL     1      34.108  -1.211  36.666  0.00  0.00    +0.000 NA
ATOM      4  C   UNL     1      34.308  -0.309  37.649  0.00  0.00    +0.000 A 
ATOM      5  N   UNL     1      34.230   0.998  37.363  0.00  0.00    +0.000 NA
ATOM      6  C   UNL     1      33.959   1.445  36.130  0.00  0.00    +0.000 A 
ATOM      7  C   UNL     1      33.757   0.488  35.132  0.00  0.00    +0.000 A 
ATOM      8  N   UNL     1      33.508   1.193  34.012  0.00  0.00    +0.000 NA
ATOM      9  C   UNL     1      33.542   2.508  34.246  0.00  0.00    +0.000 A 
ATOM     10  C   UNL     1      33.350   3.575  33.417  0.00  0.00    +0.000 A 
ATOM     11  C   UNL     1      33.448   4.855  33.951  0.00  0.00    +0.000 A 
ATOM     12  C   UNL     1      33.732   5.064  35.281  0.00  0.00    +0.000 A 
ATOM     13  C   UNL     1      33.916   3.967  36.075  0.00  0.00    +0.000 A 
ATOM     14  C   UNL     1      33.824   2.693  35.573  0.00  0.00    +0.000 A 
ENDROOT
BRANCH   1  15
ATOM     15  C   UNL     1      33.701  -3.296  34.653  0.00  0.00    +0.000 C 
ATOM     16  C   UNL     1      33.555  -3.672  33.064  0.00  0.00    +0.000 C 
BRANCH  15  18
ATOM     17  C   UNL     1      32.103  -4.601  35.932  0.00  0.00    +0.000 C 
ATOM     18  C   UNL     1      32.079  -3.464  34.922  0.00  0.00    +0.000 C 
ENDBRANCH  15  18
ENDBRANCH   1  15
BRANCH  12  19
ATOM     19  O   UNL     1      33.830   6.342  35.814  0.00  0.00    +0.000 OA
ATOM     20  C   UNL     1      34.435   6.626  37.042  0.00  0.00    +0.000 C 
ENDBRANCH  12  19
TORSDOF 3
ENDMDL
MODEL 6
REMARK VINA RESULT:      -5.7     17.846     19.863
REMARK  Name = 
REMARK  3 active torsions:
REMARK  status: ('A' for Active; 'I' for Inactive)
REMARK    1  A    between atoms: C_2  and  C_3
REMARK    2  A    between atoms: C_3  and  N_5
REMARK    3  A    between atoms: C_16  and  O_17
REMARK                            x       y       z     vdW  Elec       q    Type
REMARK                         _______ _______ _______ _____ _____    ______ ____
ROOT
ATOM      1  N   UNL     1      30.237  22.497  30.743  0.00  0.00    +0.000 NA
ATOM      2  C   UNL     1      29.123  22.683  29.953  0.00  0.00    +0.000 A 
ATOM      3  N   UNL     1      27.888  22.841  30.446  0.00  0.00    +0.000 NA
ATOM      4  C   UNL     1      26.806  23.022  29.662  0.00  0.00    +0.000 A 
ATOM      5  N   UNL     1      26.960  23.047  28.330  0.00  0.00    +0.000 NA
ATOM      6  C   UNL     1      28.157  22.898  27.747  0.00  0.00    +0.000 A 
ATOM      7  C   UNL     1      29.259  22.712  28.584  0.00  0.00    +0.000 A 
ATOM      8  N   UNL     1      30.315  22.591  27.756  0.00  0.00    +0.000 NA
ATOM      9  C   UNL     1      29.945  22.689  26.477  0.00  0.00    +0.000 A 
ATOM     10  C   UNL     1      30.670  22.626  25.322  0.00  0.00    +0.000 A 
ATOM     11  C   UNL     1      30.002  22.763  24.111  0.00  0.00    +0.000 A 
ATOM     12  C   UNL     1      28.641  22.960  24.054  0.00  0.00    +0.000 A 
ATOM     13  C   UNL     1      27.954  23.015  25.235  0.00  0.00    +0.000 A 
ATOM     14  C   UNL     1      28.590  22.882  26.443  0.00  0.00    +0.000 A 
ENDROOT
BRANCH   1  15
ATOM     15  C   UNL     1      30.129  22.457  32.290  0.00  0.00    +0.000 C 
ATOM     16  C   UNL     1      31.198  23.683  32.491  0.00  0.00    +0.000 C 
BRANCH  15  18
ATOM     17  C   UNL     1      32.358  21.860  31.537  0.00  0.00    +0.000 C 
ATOM     18  C   UNL     1      31.299  21.302  32.474  0.00  0.00    +0.000 C 
ENDBRANCH  15  18
ENDBRANCH   1  15
BRANCH  12  19
ATOM     19  O   UNL     1      27.973  23.097  22.845  0.00  0.00    +0.000 OA
ATOM     20  C   UNL     1      28.400  23.940  21.815  0.00  0.00    +0.000 C 
ENDBRANCH  12  19
TORSDOF 3
ENDMDL
MODEL 7
REMARK VINA RESULT:      -5.5     20.496     23.470
REMARK  Name = 
REMARK  3 active torsions:
REMARK  status: ('A' for Active; 'I' for Inactive)
REMARK    1  A    between atoms: C_2  and  C_3
REMARK    2  A    between atoms: C_3  and  N_5
REMARK    3  A    between atoms: C_16  and  O_17
REMARK                            x       y       z     vdW  Elec       q    Type
REMARK                         _______ _______ _______ _____ _____    ______ ____
ROOT
ATOM      1  N   UNL     1      33.521  -3.014  34.162  0.00  0.00    +0.000 NA
ATOM      2  C   UNL     1      32.861  -4.192  33.885  0.00  0.00    +0.000 A 
ATOM      3  N   UNL     1      32.051  -4.805  34.757  0.00  0.00    +0.000 NA
ATOM      4  C   UNL     1      31.411  -5.958  34.473  0.00  0.00    +0.000 A 
ATOM      5  N   UNL     1      31.585  -6.523  33.270  0.00  0.00    +0.000 NA
ATOM      6  C   UNL     1      32.375  -5.982  32.334  0.00  0.00    +0.000 A 
ATOM      7  C   UNL     1      33.025  -4.788  32.656  0.00  0.00    +0.000 A 
ATOM      8  N   UNL     1      33.740  -4.469  31.560  0.00  0.00    +0.000 NA
ATOM      9  C   UNL     1      33.579  -5.375  30.592  0.00  0.00    +0.000 A 
ATOM     10  C   UNL     1      34.104  -5.451  29.334  0.00  0.00    +0.000 A 
ATOM     11  C   UNL     1      33.750  -6.531  28.533  0.00  0.00    +0.000 A 
ATOM     12  C   UNL     1      32.891  -7.510  28.977  0.00  0.00    +0.000 A 
ATOM     13  C   UNL     1      32.389  -7.394  30.242  0.00  0.00    +0.000 A 
ATOM     14  C   UNL     1      32.723  -6.338  31.054  0.00  0.00    +0.000 A 
ENDROOT
BRANCH   1  15
ATOM     15  C   UNL     1      33.366  -2.308  35.534  0.00  0.00    +0.000 C 
ATOM     16  C   UNL     1      32.243  -1.255  34.972  0.00  0.00    +0.000 C 
BRANCH  15  18
ATOM     17  C   UNL     1      34.184  -0.681  33.930  0.00  0.00    +0.000 C 
ATOM     18  C   UNL     1      34.606  -1.245  35.278  0.00  0.00    +0.000 C 
ENDBRANCH  15  18
ENDBRANCH   1  15
BRANCH  12  19
ATOM     19  O   UNL     1      32.538  -8.588  28.176  0.00  0.00    +0.000 OA
ATOM     20  C   UNL     1      32.774  -9.922  28.523  0.00  0.00    +0.000 C 
ENDBRANCH  12  19
TORSDOF 3
ENDMDL
MODEL 8
REMARK VINA RESULT:      -5.5     22.094     23.773
REMARK  Name = 
REMARK  3 active torsions:
REMARK  status: ('A' for Active; 'I' for Inactive)
REMARK    1  A    between atoms: C_2  and  C_3
REMARK    2  A    between atoms: C_3  and  N_5
REMARK    3  A    between atoms: C_16  and  O_17
REMARK                            x       y       z     vdW  Elec       q    Type
REMARK                         _______ _______ _______ _____ _____    ______ ____
ROOT
ATOM      1  N   UNL     1      22.177   2.542  17.596  0.00  0.00    +0.000 NA
ATOM      2  C   UNL     1      23.525   2.284  17.460  0.00  0.00    +0.000 A 
ATOM      3  N   UNL     1      24.033   1.047  17.383  0.00  0.00    +0.000 NA
ATOM      4  C   UNL     1      25.353   0.807  17.250  0.00  0.00    +0.000 A 
ATOM      5  N   UNL     1      26.204   1.843  17.191  0.00  0.00    +0.000 NA
ATOM      6  C   UNL     1      25.787   3.114  17.259  0.00  0.00    +0.000 A 
ATOM      7  C   UNL     1      24.414   3.331  17.397  0.00  0.00    +0.000 A 
ATOM      8  N   UNL     1      24.271   4.670  17.440  0.00  0.00    +0.000 NA
ATOM      9  C   UNL     1      25.450   5.289  17.340  0.00  0.00    +0.000 A 
ATOM     10  C   UNL     1      25.773   6.616  17.338  0.00  0.00    +0.000 A 
ATOM     11  C   UNL     1      27.112   6.971  17.217  0.00  0.00    +0.000 A 
ATOM     12  C   UNL     1      28.104   6.025  17.099  0.00  0.00    +0.000 A 
ATOM     13  C   UNL     1      27.735   4.709  17.105  0.00  0.00    +0.000 A 
ATOM     14  C   UNL     1      26.421   4.331  17.224  0.00  0.00    +0.000 A 
ENDROOT
BRANCH   1  15
ATOM     15  C   UNL     1      21.140   1.391  17.672  0.00  0.00    +0.000 C 
ATOM     16  C   UNL     1      20.934   1.343  16.047  0.00  0.00    +0.000 C 
BRANCH  15  18
ATOM     17  C   UNL     1      18.794   1.629  17.096  0.00  0.00    +0.000 C 
ATOM     18  C   UNL     1      19.844   2.395  17.886  0.00  0.00    +0.000 C 
ENDBRANCH  15  18
ENDBRANCH   1  15
BRANCH  12  19
ATOM     19  O   UNL     1      29.440   6.380  16.977  0.00  0.00    +0.000 OA
ATOM     20  C   UNL     1      30.293   5.870  15.994  0.00  0.00    +0.000 C 
ENDBRANCH  12  19
TORSDOF 3
ENDMDL
MODEL 9
REMARK VINA RESULT:      -5.5      3.786      7.968
REMARK  Name = 
REMARK  3 active torsions:
REMARK  status: ('A' for Active; 'I' for Inactive)
REMARK    1  A    between atoms: C_2  and  C_3
REMARK    2  A    between atoms: C_3  and  N_5
REMARK    3  A    between atoms: C_16  and  O_17
REMARK                            x       y       z     vdW  Elec       q    Type
REMARK                         _______ _______ _______ _____ _____    ______ ____
ROOT
ATOM      1  N   UNL     1      18.704   9.928  36.147  0.00  0.00    +0.000 NA
ATOM      2  C   UNL     1      19.444   9.705  37.289  0.00  0.00    +0.000 A 
ATOM      3  N   UNL     1      18.897   9.414  38.476  0.00  0.00    +0.000 NA
ATOM      4  C   UNL     1      19.631   9.198  39.586  0.00  0.00    +0.000 A 
ATOM      5  N   UNL     1      20.968   9.275  39.511  0.00  0.00    +0.000 NA
ATOM      6  C   UNL     1      21.604   9.559  38.367  0.00  0.00    +0.000 A 
ATOM      7  C   UNL     1      20.816   9.779  37.234  0.00  0.00    +0.000 A 
ATOM      8  N   UNL     1      21.690  10.040  36.242  0.00  0.00    +0.000 NA
ATOM      9  C   UNL     1      22.951   9.998  36.680  0.00  0.00    +0.000 A 
ATOM     10  C   UNL     1      24.137  10.197  36.032  0.00  0.00    +0.000 A 
ATOM     11  C   UNL     1      25.316  10.086  36.760  0.00  0.00    +0.000 A 
ATOM     12  C   UNL     1      25.312   9.784  38.103  0.00  0.00    +0.000 A 
ATOM     13  C   UNL     1      24.103   9.594  38.711  0.00  0.00    +0.000 A 
ATOM     14  C   UNL     1      22.924   9.697  38.016  0.00  0.00    +0.000 A 
ENDROOT
BRANCH   1  15
ATOM     15  C   UNL     1      17.155   9.856  36.164  0.00  0.00    +0.000 C 
ATOM     16  C   UNL     1      17.037   9.989  34.535  0.00  0.00    +0.000 C 
BRANCH  15  18
ATOM     17  C   UNL     1      15.852  11.455  37.444  0.00  0.00    +0.000 C 
ATOM     18  C   UNL     1      16.950  11.481  36.392  0.00  0.00    +0.000 C 
ENDBRANCH  15  18
ENDBRANCH   1  15
BRANCH  12  19
ATOM     19  O   UNL     1      26.489   9.674  38.829  0.00  0.00    +0.000 OA
ATOM     20  C   UNL     1      27.571  10.549  38.691  0.00  0.00    +0.000 C 
ENDBRANCH  12  19
TORSDOF 3
ENDMDL
MODEL 10
REMARK VINA RESULT:      -5.4     21.367     22.425
REMARK  Name = 
REMARK  3 active torsions:
REMARK  status: ('A' for Active; 'I' for Inactive)
REMARK    1  A    between atoms: C_2  and  C_3
REMARK    2  A    between atoms: C_3  and  N_5
REMARK    3  A    between atoms: C_16  and  O_17
REMARK                            x       y       z     vdW  Elec       q    Type
REMARK                         _______ _______ _______ _____ _____    ______ ____
ROOT
ATOM      1  N   UNL     1      21.223  -7.439  25.050  0.00  0.00    +0.000 NA
ATOM      2  C   UNL     1      20.069  -6.900  25.577  0.00  0.00    +0.000 A 
ATOM      3  N   UNL     1      20.006  -5.674  26.112  0.00  0.00    +0.000 NA
ATOM      4  C   UNL     1      18.871  -5.158  26.625  0.00  0.00    +0.000 A 
ATOM      5  N   UNL     1      17.750  -5.894  26.603  0.00  0.00    +0.000 NA
ATOM      6  C   UNL     1      17.717  -7.130  26.088  0.00  0.00    +0.000 A 
ATOM      7  C   UNL     1      18.908  -7.638  25.564  0.00  0.00    +0.000 A 
ATOM      8  N   UNL     1      18.600  -8.872  25.121  0.00  0.00    +0.000 NA
ATOM      9  C   UNL     1      17.313  -9.159  25.331  0.00  0.00    +0.000 A 
ATOM     10  C   UNL     1      16.582 -10.276  25.048  0.00  0.00    +0.000 A 
ATOM     11  C   UNL     1      15.235 -10.290  25.390  0.00  0.00    +0.000 A 
ATOM     12  C   UNL     1      14.632  -9.215  26.001  0.00  0.00    +0.000 A 
ATOM     13  C   UNL     1      15.402  -8.118  26.267  0.00  0.00    +0.000 A 
ATOM     14  C   UNL     1      16.734  -8.078  25.940  0.00  0.00    +0.000 A 
ENDROOT
BRANCH   1  15
ATOM     15  C   UNL     1      22.554  -6.643  25.044  0.00  0.00    +0.000 C 
ATOM     16  C   UNL     1      22.312  -6.066  23.530  0.00  0.00    +0.000 C 
BRANCH  15  18
ATOM     17  C   UNL     1      24.571  -7.145  23.791  0.00  0.00    +0.000 C 
ATOM     18  C   UNL     1      23.465  -7.911  24.501  0.00  0.00    +0.000 C 
ENDBRANCH  15  18
ENDBRANCH   1  15
BRANCH  12  19
ATOM     19  O   UNL     1      13.287  -9.230  26.343  0.00  0.00    +0.000 OA
ATOM     20  C   UNL     1      12.266  -9.601  25.463  0.00  0.00    +0.000 C 
ENDBRANCH  12  19
TORSDOF 3
ENDMDL
