MODEL 1
REMARK VINA RESULT:      -7.9      0.000      0.000
REMARK  Name = 
REMARK  8 active torsions:
REMARK  status: ('A' for Active; 'I' for Inactive)
REMARK    1  A    between atoms: C_2  and  O_3
REMARK    2  A    between atoms: O_3  and  C_4
REMARK    3  A    between atoms: C_7  and  C_8
REMARK    4  A    between atoms: C_11  and  C_12
REMARK    5  A    between atoms: C_12  and  N_13
REMARK    6  A    between atoms: N_13  and  C_14
REMARK    7  A    between atoms: C_14  and  C_15
REMARK    8  A    between atoms: C_18  and  O_19
REMARK                            x       y       z     vdW  Elec       q    Type
REMARK                         _______ _______ _______ _____ _____    ______ ____
ROOT
ATOM      1  C   UNL     1      35.482  -1.732  16.144  0.00  0.00    +0.000 A 
ATOM      2  C   UNL     1      34.916  -0.978  17.127  0.00  0.00    +0.000 A 
ATOM      3  C   UNL     1      35.182   0.433  17.228  0.00  0.00    +0.000 A 
ATOM      4  C   UNL     1      36.013   1.029  16.315  0.00  0.00    +0.000 A 
ATOM      5  C   UNL     1      36.587   0.232  15.325  0.00  0.00    +0.000 A 
ATOM      6  C   UNL     1      37.437   0.899  14.433  0.00  0.00    +0.000 A 
ATOM      7  N   UNL     1      37.971   0.075  13.472  0.00  0.00    +0.000 NA
ATOM      8  C   UNL     1      37.739  -1.200  13.380  0.00  0.00    +0.000 A 
ATOM      9  C   UNL     1      36.908  -1.927  14.232  0.00  0.00    +0.000 A 
ATOM     10  C   UNL     1      36.335  -1.099  15.237  0.00  0.00    +0.000 A 
ENDROOT
BRANCH   1  14
ATOM     11  C   UNL     1      34.648  -5.890  15.523  0.00  0.00    +0.000 A 
ATOM     12  C   UNL     1      35.776  -5.517  16.159  0.00  0.00    +0.000 A 
ATOM     13  C   UNL     1      36.083  -4.155  16.378  0.00  0.00    +0.000 A 
ATOM     14  C   UNL     1      35.243  -3.178  15.942  0.00  0.00    +0.000 A 
ATOM     15  C   UNL     1      34.102  -3.573  15.296  0.00  0.00    +0.000 A 
ATOM     16  C   UNL     1      33.760  -4.913  15.063  0.00  0.00    +0.000 A 
BRANCH  11  17
ATOM     17  O   UNL     1      34.278  -7.237  15.290  0.00  0.00    +0.000 OA
BRANCH  17  19
ATOM     18  C   UNL     1      32.399  -8.017  16.534  0.00  0.00    +0.000 C 
ATOM     19  C   UNL     1      33.898  -8.140  16.270  0.00  0.00    +0.000 C 
ENDBRANCH  17  19
ENDBRANCH  11  17
ENDBRANCH   1  14
BRANCH   4  20
ATOM     20  C   UNL     1      36.222   2.516  16.231  0.00  0.00    +0.000 C 
BRANCH  20  21
ATOM     21  N   UNL     1      37.142   3.016  17.263  0.00  0.00    +0.000 NA
BRANCH  21  22
ATOM     22  C   UNL     1      37.669   4.222  16.743  0.00  0.00    +0.000 C 
BRANCH  22  23
ATOM     23  C   UNL     1      38.706   4.994  17.362  0.00  0.00    +0.000 A 
ATOM     24  C   UNL     1      39.736   5.499  16.462  0.00  0.00    +0.000 A 
ATOM     25  C   UNL     1      40.794   6.180  16.942  0.00  0.00    +0.000 A 
ATOM     26  C   UNL     1      40.985   6.450  18.312  0.00  0.00    +0.000 A 
ATOM     27  C   UNL     1      40.036   5.990  19.165  0.00  0.00    +0.000 A 
ATOM     28  C   UNL     1      38.920   5.272  18.650  0.00  0.00    +0.000 A 
BRANCH  26  29
ATOM     29  O   UNL     1      42.127   7.159  18.686  0.00  0.00    +0.000 OA
ATOM     30  C   UNL     1      43.385   6.880  18.041  0.00  0.00    +0.000 C 
ENDBRANCH  26  29
ENDBRANCH  22  23
ENDBRANCH  21  22
ENDBRANCH  20  21
ENDBRANCH   4  20
TORSDOF 8
ENDMDL
MODEL 2
REMARK VINA RESULT:      -7.5      3.250     11.748
REMARK  Name = 
REMARK  8 active torsions:
REMARK  status: ('A' for Active; 'I' for Inactive)
REMARK    1  A    between atoms: C_2  and  O_3
REMARK    2  A    between atoms: O_3  and  C_4
REMARK    3  A    between atoms: C_7  and  C_8
REMARK    4  A    between atoms: C_11  and  C_12
REMARK    5  A    between atoms: C_12  and  N_13
REMARK    6  A    between atoms: N_13  and  C_14
REMARK    7  A    between atoms: C_14  and  C_15
REMARK    8  A    between atoms: C_18  and  O_19
REMARK                            x       y       z     vdW  Elec       q    Type
REMARK                         _______ _______ _______ _____ _____    ______ ____
ROOT
ATOM      1  C   UNL     1      41.250   6.502  19.281  0.00  0.00    +0.000 A 
ATOM      2  C   UNL     1      39.960   6.138  19.521  0.00  0.00    +0.000 A 
ATOM      3  C   UNL     1      39.087   5.737  18.449  0.00  0.00    +0.000 A 
ATOM      4  C   UNL     1      39.565   5.714  17.165  0.00  0.00    +0.000 A 
ATOM      5  C   UNL     1      40.888   6.100  16.945  0.00  0.00    +0.000 A 
ATOM      6  C   UNL     1      41.310   6.068  15.609  0.00  0.00    +0.000 A 
ATOM      7  N   UNL     1      42.620   6.448  15.444  0.00  0.00    +0.000 NA
ATOM      8  C   UNL     1      43.410   6.816  16.408  0.00  0.00    +0.000 A 
ATOM      9  C   UNL     1      43.056   6.874  17.756  0.00  0.00    +0.000 A 
ATOM     10  C   UNL     1      41.704   6.481  17.960  0.00  0.00    +0.000 A 
ENDROOT
BRANCH   1  14
ATOM     11  C   UNL     1      44.073   7.504  22.345  0.00  0.00    +0.000 A 
ATOM     12  C   UNL     1      43.478   8.481  21.631  0.00  0.00    +0.000 A 
ATOM     13  C   UNL     1      42.546   8.185  20.613  0.00  0.00    +0.000 A 
ATOM     14  C   UNL     1      42.227   6.895  20.319  0.00  0.00    +0.000 A 
ATOM     15  C   UNL     1      42.841   5.914  21.052  0.00  0.00    +0.000 A 
ATOM     16  C   UNL     1      43.769   6.167  22.074  0.00  0.00    +0.000 A 
BRANCH  11  17
ATOM     17  O   UNL     1      45.002   7.738  23.388  0.00  0.00    +0.000 OA
BRANCH  17  19
ATOM     18  C   UNL     1      44.200   7.361  25.602  0.00  0.00    +0.000 C 
ATOM     19  C   UNL     1      44.713   8.377  24.584  0.00  0.00    +0.000 C 
ENDBRANCH  17  19
ENDBRANCH  11  17
ENDBRANCH   1  14
BRANCH   4  20
ATOM     20  C   UNL     1      38.793   5.154  16.002  0.00  0.00    +0.000 C 
BRANCH  20  21
ATOM     21  N   UNL     1      37.619   4.376  16.427  0.00  0.00    +0.000 NA
BRANCH  21  22
ATOM     22  C   UNL     1      37.593   3.244  15.579  0.00  0.00    +0.000 C 
BRANCH  22  23
ATOM     23  C   UNL     1      36.832   2.055  15.828  0.00  0.00    +0.000 A 
ATOM     24  C   UNL     1      35.631   2.235  16.635  0.00  0.00    +0.000 A 
ATOM     25  C   UNL     1      34.875   1.177  16.987  0.00  0.00    +0.000 A 
ATOM     26  C   UNL     1      35.176  -0.149  16.616  0.00  0.00    +0.000 A 
ATOM     27  C   UNL     1      36.289  -0.336  15.863  0.00  0.00    +0.000 A 
ATOM     28  C   UNL     1      37.082   0.787  15.493  0.00  0.00    +0.000 A 
BRANCH  26  29
ATOM     29  O   UNL     1      34.319  -1.160  17.050  0.00  0.00    +0.000 OA
ATOM     30  C   UNL     1      34.537  -2.517  16.616  0.00  0.00    +0.000 C 
ENDBRANCH  26  29
ENDBRANCH  22  23
ENDBRANCH  21  22
ENDBRANCH  20  21
ENDBRANCH   4  20
TORSDOF 8
ENDMDL
MODEL 3
REMARK VINA RESULT:      -7.4      3.621     10.349
REMARK  Name = 
REMARK  8 active torsions:
REMARK  status: ('A' for Active; 'I' for Inactive)
REMARK    1  A    between atoms: C_2  and  O_3
REMARK    2  A    between atoms: O_3  and  C_4
REMARK    3  A    between atoms: C_7  and  C_8
REMARK    4  A    between atoms: C_11  and  C_12
REMARK    5  A    between atoms: C_12  and  N_13
REMARK    6  A    between atoms: N_13  and  C_14
REMARK    7  A    between atoms: C_14  and  C_15
REMARK    8  A    between atoms: C_18  and  O_19
REMARK                            x       y       z     vdW  Elec       q    Type
REMARK                         _______ _______ _______ _____ _____    ______ ____
ROOT
ATOM      1  C   UNL     1      38.926   5.593  17.461  0.00  0.00    +0.000 A 
ATOM      2  C   UNL     1      38.410   4.341  17.605  0.00  0.00    +0.000 A 
ATOM      3  C   UNL     1      37.499   3.795  16.633  0.00  0.00    +0.000 A 
ATOM      4  C   UNL     1      37.152   4.545  15.540  0.00  0.00    +0.000 A 
ATOM      5  C   UNL     1      37.687   5.828  15.421  0.00  0.00    +0.000 A 
ATOM      6  C   UNL     1      37.281   6.547  14.289  0.00  0.00    +0.000 A 
ATOM      7  N   UNL     1      37.841   7.800  14.212  0.00  0.00    +0.000 NA
ATOM      8  C   UNL     1      38.659   8.299  15.090  0.00  0.00    +0.000 A 
ATOM      9  C   UNL     1      39.102   7.642  16.237  0.00  0.00    +0.000 A 
ATOM     10  C   UNL     1      38.542   6.339  16.344  0.00  0.00    +0.000 A 
ENDROOT
BRANCH   1  14
ATOM     11  C   UNL     1      41.833   7.361  20.067  0.00  0.00    +0.000 A 
ATOM     12  C   UNL     1      40.538   7.308  20.439  0.00  0.00    +0.000 A 
ATOM     13  C   UNL     1      39.554   6.735  19.603  0.00  0.00    +0.000 A 
ATOM     14  C   UNL     1      39.890   6.224  18.388  0.00  0.00    +0.000 A 
ATOM     15  C   UNL     1      41.210   6.287  18.024  0.00  0.00    +0.000 A 
ATOM     16  C   UNL     1      42.216   6.843  18.827  0.00  0.00    +0.000 A 
BRANCH  11  17
ATOM     17  O   UNL     1      42.866   7.906  20.869  0.00  0.00    +0.000 OA
BRANCH  17  19
ATOM     18  C   UNL     1      43.802   6.045  22.027  0.00  0.00    +0.000 C 
ATOM     19  C   UNL     1      44.064   7.276  21.162  0.00  0.00    +0.000 C 
ENDBRANCH  17  19
ENDBRANCH  11  17
ENDBRANCH   1  14
BRANCH   4  20
ATOM     20  C   UNL     1      36.346   4.010  14.388  0.00  0.00    +0.000 C 
BRANCH  20  21
ATOM     21  N   UNL     1      35.013   3.545  14.800  0.00  0.00    +0.000 NA
BRANCH  21  22
ATOM     22  C   UNL     1      35.021   2.146  14.587  0.00  0.00    +0.000 C 
BRANCH  22  23
ATOM     23  C   UNL     1      35.515   1.181  15.525  0.00  0.00    +0.000 A 
ATOM     24  C   UNL     1      34.909   1.226  16.851  0.00  0.00    +0.000 A 
ATOM     25  C   UNL     1      35.341   0.410  17.831  0.00  0.00    +0.000 A 
ATOM     26  C   UNL     1      36.383  -0.523  17.660  0.00  0.00    +0.000 A 
ATOM     27  C   UNL     1      36.958  -0.581  16.433  0.00  0.00    +0.000 A 
ATOM     28  C   UNL     1      36.495   0.283  15.401  0.00  0.00    +0.000 A 
BRANCH  26  29
ATOM     29  O   UNL     1      36.745  -1.307  18.756  0.00  0.00    +0.000 OA
ATOM     30  C   UNL     1      38.004  -2.010  18.747  0.00  0.00    +0.000 C 
ENDBRANCH  26  29
ENDBRANCH  22  23
ENDBRANCH  21  22
ENDBRANCH  20  21
ENDBRANCH   4  20
TORSDOF 8
ENDMDL
MODEL 4
REMARK VINA RESULT:      -7.3      7.398     12.305
REMARK  Name = 
REMARK  8 active torsions:
REMARK  status: ('A' for Active; 'I' for Inactive)
REMARK    1  A    between atoms: C_2  and  O_3
REMARK    2  A    between atoms: O_3  and  C_4
REMARK    3  A    between atoms: C_7  and  C_8
REMARK    4  A    between atoms: C_11  and  C_12
REMARK    5  A    between atoms: C_12  and  N_13
REMARK    6  A    between atoms: N_13  and  C_14
REMARK    7  A    between atoms: C_14  and  C_15
REMARK    8  A    between atoms: C_18  and  O_19
REMARK                            x       y       z     vdW  Elec       q    Type
REMARK                         _______ _______ _______ _____ _____    ______ ____
ROOT
ATOM      1  C   UNL     1      42.567   6.724  20.565  0.00  0.00    +0.000 A 
ATOM      2  C   UNL     1      43.269   5.750  21.208  0.00  0.00    +0.000 A 
ATOM      3  C   UNL     1      44.169   6.069  22.285  0.00  0.00    +0.000 A 
ATOM      4  C   UNL     1      44.316   7.374  22.676  0.00  0.00    +0.000 A 
ATOM      5  C   UNL     1      43.593   8.354  21.994  0.00  0.00    +0.000 A 
ATOM      6  C   UNL     1      43.800   9.668  22.433  0.00  0.00    +0.000 A 
ATOM      7  N   UNL     1      43.061  10.595  21.737  0.00  0.00    +0.000 NA
ATOM      8  C   UNL     1      42.251  10.313  20.761  0.00  0.00    +0.000 A 
ATOM      9  C   UNL     1      42.001   9.031  20.274  0.00  0.00    +0.000 A 
ATOM     10  C   UNL     1      42.749   8.047  20.976  0.00  0.00    +0.000 A 
ENDROOT
BRANCH   1  14
ATOM     11  C   UNL     1      39.662   5.991  17.501  0.00  0.00    +0.000 A 
ATOM     12  C   UNL     1      40.944   6.245  17.168  0.00  0.00    +0.000 A 
ATOM     13  C   UNL     1      41.925   6.493  18.153  0.00  0.00    +0.000 A 
ATOM     14  C   UNL     1      41.598   6.490  19.473  0.00  0.00    +0.000 A 
ATOM     15  C   UNL     1      40.291   6.233  19.795  0.00  0.00    +0.000 A 
ATOM     16  C   UNL     1      39.289   5.977  18.847  0.00  0.00    +0.000 A 
BRANCH  11  17
ATOM     17  O   UNL     1      38.638   5.718  16.561  0.00  0.00    +0.000 OA
BRANCH  17  19
ATOM     18  C   UNL     1      38.894   3.672  15.364  0.00  0.00    +0.000 C 
ATOM     19  C   UNL     1      38.056   4.478  16.355  0.00  0.00    +0.000 C 
ENDBRANCH  17  19
ENDBRANCH  11  17
ENDBRANCH   1  14
BRANCH   4  20
ATOM     20  C   UNL     1      45.097   7.793  23.891  0.00  0.00    +0.000 C 
BRANCH  20  21
ATOM     21  N   UNL     1      45.150   6.741  24.918  0.00  0.00    +0.000 NA
BRANCH  21  22
ATOM     22  C   UNL     1      44.056   7.000  25.777  0.00  0.00    +0.000 C 
BRANCH  22  23
ATOM     23  C   UNL     1      43.430   6.023  26.619  0.00  0.00    +0.000 A 
ATOM     24  C   UNL     1      42.530   6.554  27.635  0.00  0.00    +0.000 A 
ATOM     25  C   UNL     1      41.938   5.734  28.525  0.00  0.00    +0.000 A 
ATOM     26  C   UNL     1      42.136   4.339  28.544  0.00  0.00    +0.000 A 
ATOM     27  C   UNL     1      42.968   3.826  27.603  0.00  0.00    +0.000 A 
ATOM     28  C   UNL     1      43.589   4.699  26.666  0.00  0.00    +0.000 A 
BRANCH  26  29
ATOM     29  O   UNL     1      41.471   3.597  29.520  0.00  0.00    +0.000 OA
ATOM     30  C   UNL     1      40.657   4.271  30.500  0.00  0.00    +0.000 C 
ENDBRANCH  26  29
ENDBRANCH  22  23
ENDBRANCH  21  22
ENDBRANCH  20  21
ENDBRANCH   4  20
TORSDOF 8
ENDMDL
MODEL 5
REMARK VINA RESULT:      -7.3      3.354     10.708
REMARK  Name = 
REMARK  8 active torsions:
REMARK  status: ('A' for Active; 'I' for Inactive)
REMARK    1  A    between atoms: C_2  and  O_3
REMARK    2  A    between atoms: O_3  and  C_4
REMARK    3  A    between atoms: C_7  and  C_8
REMARK    4  A    between atoms: C_11  and  C_12
REMARK    5  A    between atoms: C_12  and  N_13
REMARK    6  A    between atoms: N_13  and  C_14
REMARK    7  A    between atoms: C_14  and  C_15
REMARK    8  A    between atoms: C_18  and  O_19
REMARK                            x       y       z     vdW  Elec       q    Type
REMARK                         _______ _______ _______ _____ _____    ______ ____
ROOT
ATOM      1  C   UNL     1      38.752   5.306  17.026  0.00  0.00    +0.000 A 
ATOM      2  C   UNL     1      37.910   4.238  16.962  0.00  0.00    +0.000 A 
ATOM      3  C   UNL     1      37.969   3.308  15.865  0.00  0.00    +0.000 A 
ATOM      4  C   UNL     1      38.893   3.497  14.871  0.00  0.00    +0.000 A 
ATOM      5  C   UNL     1      39.738   4.605  14.956  0.00  0.00    +0.000 A 
ATOM      6  C   UNL     1      40.650   4.748  13.902  0.00  0.00    +0.000 A 
ATOM      7  N   UNL     1      41.464   5.848  14.034  0.00  0.00    +0.000 NA
ATOM      8  C   UNL     1      41.411   6.692  15.020  0.00  0.00    +0.000 A 
ATOM      9  C   UNL     1      40.529   6.612  16.098  0.00  0.00    +0.000 A 
ATOM     10  C   UNL     1      39.674   5.480  15.992  0.00  0.00    +0.000 A 
ENDROOT
BRANCH   1  14
ATOM     11  C   UNL     1      38.777   8.260  20.130  0.00  0.00    +0.000 A 
ATOM     12  C   UNL     1      39.597   7.194  20.209  0.00  0.00    +0.000 A 
ATOM     13  C   UNL     1      39.612   6.201  19.205  0.00  0.00    +0.000 A 
ATOM     14  C   UNL     1      38.787   6.293  18.127  0.00  0.00    +0.000 A 
ATOM     15  C   UNL     1      37.958   7.382  18.063  0.00  0.00    +0.000 A 
ATOM     16  C   UNL     1      37.916   8.391  19.037  0.00  0.00    +0.000 A 
BRANCH  11  17
ATOM     17  O   UNL     1      38.729   9.296  21.096  0.00  0.00    +0.000 OA
BRANCH  17  19
ATOM     18  C   UNL     1      38.437  11.658  20.952  0.00  0.00    +0.000 C 
ATOM     19  C   UNL     1      39.423  10.493  21.015  0.00  0.00    +0.000 C 
ENDBRANCH  17  19
ENDBRANCH  11  17
ENDBRANCH   1  14
BRANCH   4  20
ATOM     20  C   UNL     1      39.150   2.499  13.775  0.00  0.00    +0.000 C 
BRANCH  20  21
ATOM     21  N   UNL     1      40.133   1.477  14.163  0.00  0.00    +0.000 NA
BRANCH  21  22
ATOM     22  C   UNL     1      39.559   0.241  13.782  0.00  0.00    +0.000 C 
BRANCH  22  23
ATOM     23  C   UNL     1      39.535  -0.936  14.600  0.00  0.00    +0.000 A 
ATOM     24  C   UNL     1      38.479  -0.981  15.604  0.00  0.00    +0.000 A 
ATOM     25  C   UNL     1      38.400  -2.008  16.473  0.00  0.00    +0.000 A 
ATOM     26  C   UNL     1      39.306  -3.087  16.480  0.00  0.00    +0.000 A 
ATOM     27  C   UNL     1      40.295  -3.064  15.551  0.00  0.00    +0.000 A 
ATOM     28  C   UNL     1      40.370  -1.977  14.636  0.00  0.00    +0.000 A 
BRANCH  26  29
ATOM     29  O   UNL     1      39.124  -4.087  17.436  0.00  0.00    +0.000 OA
ATOM     30  C   UNL     1      38.125  -5.105  17.224  0.00  0.00    +0.000 C 
ENDBRANCH  26  29
ENDBRANCH  22  23
ENDBRANCH  21  22
ENDBRANCH  20  21
ENDBRANCH   4  20
TORSDOF 8
ENDMDL
MODEL 6
REMARK VINA RESULT:      -7.1      3.003     10.744
REMARK  Name = 
REMARK  8 active torsions:
REMARK  status: ('A' for Active; 'I' for Inactive)
REMARK    1  A    between atoms: C_2  and  O_3
REMARK    2  A    between atoms: O_3  and  C_4
REMARK    3  A    between atoms: C_7  and  C_8
REMARK    4  A    between atoms: C_11  and  C_12
REMARK    5  A    between atoms: C_12  and  N_13
REMARK    6  A    between atoms: N_13  and  C_14
REMARK    7  A    between atoms: C_14  and  C_15
REMARK    8  A    between atoms: C_18  and  O_19
REMARK                            x       y       z     vdW  Elec       q    Type
REMARK                         _______ _______ _______ _____ _____    ______ ____
ROOT
ATOM      1  C   UNL     1      39.773   6.089  17.401  0.00  0.00    +0.000 A 
ATOM      2  C   UNL     1      39.381   4.891  16.887  0.00  0.00    +0.000 A 
ATOM      3  C   UNL     1      38.273   4.799  15.973  0.00  0.00    +0.000 A 
ATOM      4  C   UNL     1      37.605   5.939  15.609  0.00  0.00    +0.000 A 
ATOM      5  C   UNL     1      38.020   7.153  16.158  0.00  0.00    +0.000 A 
ATOM      6  C   UNL     1      37.287   8.277  15.755  0.00  0.00    +0.000 A 
ATOM      7  N   UNL     1      37.738   9.448  16.315  0.00  0.00    +0.000 NA
ATOM      8  C   UNL     1      38.735   9.535  17.145  0.00  0.00    +0.000 A 
ATOM      9  C   UNL     1      39.504   8.460  17.588  0.00  0.00    +0.000 A 
ATOM     10  C   UNL     1      39.064   7.231  17.022  0.00  0.00    +0.000 A 
ENDROOT
BRANCH   1  14
ATOM     11  C   UNL     1      42.991   6.670  20.171  0.00  0.00    +0.000 A 
ATOM     12  C   UNL     1      43.217   6.768  18.846  0.00  0.00    +0.000 A 
ATOM     13  C   UNL     1      42.179   6.579  17.906  0.00  0.00    +0.000 A 
ATOM     14  C   UNL     1      40.917   6.285  18.318  0.00  0.00    +0.000 A 
ATOM     15  C   UNL     1      40.704   6.188  19.668  0.00  0.00    +0.000 A 
ATOM     16  C   UNL     1      41.705   6.372  20.632  0.00  0.00    +0.000 A 
BRANCH  11  17
ATOM     17  O   UNL     1      43.985   6.865  21.161  0.00  0.00    +0.000 OA
BRANCH  17  19
ATOM     18  C   UNL     1      44.722   4.795  22.087  0.00  0.00    +0.000 C 
ATOM     19  C   UNL     1      44.078   6.155  22.348  0.00  0.00    +0.000 C 
ENDBRANCH  17  19
ENDBRANCH  11  17
ENDBRANCH   1  14
BRANCH   4  20
ATOM     20  C   UNL     1      36.548   5.975  14.539  0.00  0.00    +0.000 C 
BRANCH  20  21
ATOM     21  N   UNL     1      36.555   4.768  13.698  0.00  0.00    +0.000 NA
BRANCH  21  22
ATOM     22  C   UNL     1      35.419   4.026  14.099  0.00  0.00    +0.000 C 
BRANCH  22  23
ATOM     23  C   UNL     1      35.464   2.746  14.743  0.00  0.00    +0.000 A 
ATOM     24  C   UNL     1      34.867   2.690  16.072  0.00  0.00    +0.000 A 
ATOM     25  C   UNL     1      34.912   1.556  16.798  0.00  0.00    +0.000 A 
ATOM     26  C   UNL     1      35.522   0.369  16.344  0.00  0.00    +0.000 A 
ATOM     27  C   UNL     1      36.082   0.402  15.109  0.00  0.00    +0.000 A 
ATOM     28  C   UNL     1      36.029   1.603  14.347  0.00  0.00    +0.000 A 
BRANCH  26  29
ATOM     29  O   UNL     1      35.510  -0.738  17.193  0.00  0.00    +0.000 OA
ATOM     30  C   UNL     1      34.921  -1.975  16.746  0.00  0.00    +0.000 C 
ENDBRANCH  26  29
ENDBRANCH  22  23
ENDBRANCH  21  22
ENDBRANCH  20  21
ENDBRANCH   4  20
TORSDOF 8
ENDMDL
MODEL 7
REMARK VINA RESULT:      -7.1      3.255      5.083
REMARK  Name = 
REMARK  8 active torsions:
REMARK  status: ('A' for Active; 'I' for Inactive)
REMARK    1  A    between atoms: C_2  and  O_3
REMARK    2  A    between atoms: O_3  and  C_4
REMARK    3  A    between atoms: C_7  and  C_8
REMARK    4  A    between atoms: C_11  and  C_12
REMARK    5  A    between atoms: C_12  and  N_13
REMARK    6  A    between atoms: N_13  and  C_14
REMARK    7  A    between atoms: C_14  and  C_15
REMARK    8  A    between atoms: C_18  and  O_19
REMARK                            x       y       z     vdW  Elec       q    Type
REMARK                         _______ _______ _______ _____ _____    ______ ____
ROOT
ATOM      1  C   UNL     1      39.211   0.395  14.003  0.00  0.00    +0.000 A 
ATOM      2  C   UNL     1      39.697   1.666  14.015  0.00  0.00    +0.000 A 
ATOM      3  C   UNL     1      38.983   2.730  14.672  0.00  0.00    +0.000 A 
ATOM      4  C   UNL     1      37.797   2.456  15.301  0.00  0.00    +0.000 A 
ATOM      5  C   UNL     1      37.316   1.146  15.265  0.00  0.00    +0.000 A 
ATOM      6  C   UNL     1      36.093   0.937  15.915  0.00  0.00    +0.000 A 
ATOM      7  N   UNL     1      35.665  -0.369  15.859  0.00  0.00    +0.000 NA
ATOM      8  C   UNL     1      36.303  -1.330  15.263  0.00  0.00    +0.000 A 
ATOM      9  C   UNL     1      37.521  -1.192  14.597  0.00  0.00    +0.000 A 
ATOM     10  C   UNL     1      37.993   0.149  14.641  0.00  0.00    +0.000 A 
ENDROOT
BRANCH   1  14
ATOM     11  C   UNL     1      41.078  -2.959  12.095  0.00  0.00    +0.000 A 
ATOM     12  C   UNL     1      41.336  -2.691  13.391  0.00  0.00    +0.000 A 
ATOM     13  C   UNL     1      40.740  -1.592  14.049  0.00  0.00    +0.000 A 
ATOM     14  C   UNL     1      39.888  -0.766  13.384  0.00  0.00    +0.000 A 
ATOM     15  C   UNL     1      39.637  -1.050  12.067  0.00  0.00    +0.000 A 
ATOM     16  C   UNL     1      40.206  -2.133  11.380  0.00  0.00    +0.000 A 
BRANCH  11  17
ATOM     17  O   UNL     1      41.631  -4.054  11.387  0.00  0.00    +0.000 OA
BRANCH  17  19
ATOM     18  C   UNL     1      42.304  -5.496   9.612  0.00  0.00    +0.000 C 
ATOM     19  C   UNL     1      41.785  -4.117  10.011  0.00  0.00    +0.000 C 
ENDBRANCH  17  19
ENDBRANCH  11  17
ENDBRANCH   1  14
BRANCH   4  20
ATOM     20  C   UNL     1      37.060   3.452  16.154  0.00  0.00    +0.000 C 
BRANCH  20  21
ATOM     21  N   UNL     1      37.800   3.804  17.375  0.00  0.00    +0.000 NA
BRANCH  21  22
ATOM     22  C   UNL     1      38.441   5.032  17.084  0.00  0.00    +0.000 C 
BRANCH  22  23
ATOM     23  C   UNL     1      39.451   5.640  17.900  0.00  0.00    +0.000 A 
ATOM     24  C   UNL     1      40.703   5.951  17.220  0.00  0.00    +0.000 A 
ATOM     25  C   UNL     1      41.746   6.462  17.903  0.00  0.00    +0.000 A 
ATOM     26  C   UNL     1      41.712   6.728  19.286  0.00  0.00    +0.000 A 
ATOM     27  C   UNL     1      40.554   6.446  19.935  0.00  0.00    +0.000 A 
ATOM     28  C   UNL     1      39.456   5.908  19.208  0.00  0.00    +0.000 A 
BRANCH  26  29
ATOM     29  O   UNL     1      42.861   7.250  19.881  0.00  0.00    +0.000 OA
ATOM     30  C   UNL     1      44.152   6.978  19.302  0.00  0.00    +0.000 C 
ENDBRANCH  26  29
ENDBRANCH  22  23
ENDBRANCH  21  22
ENDBRANCH  20  21
ENDBRANCH   4  20
TORSDOF 8
ENDMDL
MODEL 8
REMARK VINA RESULT:      -7.1     24.955     27.560
REMARK  Name = 
REMARK  8 active torsions:
REMARK  status: ('A' for Active; 'I' for Inactive)
REMARK    1  A    between atoms: C_2  and  O_3
REMARK    2  A    between atoms: O_3  and  C_4
REMARK    3  A    between atoms: C_7  and  C_8
REMARK    4  A    between atoms: C_11  and  C_12
REMARK    5  A    between atoms: C_12  and  N_13
REMARK    6  A    between atoms: N_13  and  C_14
REMARK    7  A    between atoms: C_14  and  C_15
REMARK    8  A    between atoms: C_18  and  O_19
REMARK                            x       y       z     vdW  Elec       q    Type
REMARK                         _______ _______ _______ _____ _____    ______ ____
ROOT
ATOM      1  C   UNL     1       9.632   1.075  26.088  0.00  0.00    +0.000 A 
ATOM      2  C   UNL     1      10.046  -0.222  26.077  0.00  0.00    +0.000 A 
ATOM      3  C   UNL     1      11.394  -0.576  26.439  0.00  0.00    +0.000 A 
ATOM      4  C   UNL     1      12.272   0.409  26.808  0.00  0.00    +0.000 A 
ATOM      5  C   UNL     1      11.825   1.730  26.802  0.00  0.00    +0.000 A 
ATOM      6  C   UNL     1      12.776   2.689  27.176  0.00  0.00    +0.000 A 
ATOM      7  N   UNL     1      12.287   3.974  27.162  0.00  0.00    +0.000 NA
ATOM      8  C   UNL     1      11.073   4.298  26.831  0.00  0.00    +0.000 A 
ATOM      9  C   UNL     1      10.079   3.399  26.447  0.00  0.00    +0.000 A 
ATOM     10  C   UNL     1      10.554   2.058  26.456  0.00  0.00    +0.000 A 
ENDROOT
BRANCH   1  14
ATOM     11  C   UNL     1       5.699   2.386  25.004  0.00  0.00    +0.000 A 
ATOM     12  C   UNL     1       6.127   2.520  26.274  0.00  0.00    +0.000 A 
ATOM     13  C   UNL     1       7.416   2.096  26.666  0.00  0.00    +0.000 A 
ATOM     14  C   UNL     1       8.263   1.530  25.764  0.00  0.00    +0.000 A 
ATOM     15  C   UNL     1       7.812   1.400  24.477  0.00  0.00    +0.000 A 
ATOM     16  C   UNL     1       6.541   1.812  24.048  0.00  0.00    +0.000 A 
BRANCH  11  17
ATOM     17  O   UNL     1       4.425   2.807  24.548  0.00  0.00    +0.000 OA
BRANCH  17  19
ATOM     18  C   UNL     1       2.996   1.153  23.596  0.00  0.00    +0.000 C 
ATOM     19  C   UNL     1       3.832   2.409  23.360  0.00  0.00    +0.000 C 
ENDBRANCH  17  19
ENDBRANCH  11  17
ENDBRANCH   1  14
BRANCH   4  20
ATOM     20  C   UNL     1      13.643   0.133  27.363  0.00  0.00    +0.000 C 
BRANCH  20  21
ATOM     21  N   UNL     1      14.538  -0.485  26.373  0.00  0.00    +0.000 NA
BRANCH  21  22
ATOM     22  C   UNL     1      15.849  -0.165  26.802  0.00  0.00    +0.000 C 
BRANCH  22  23
ATOM     23  C   UNL     1      16.995  -0.099  25.945  0.00  0.00    +0.000 A 
ATOM     24  C   UNL     1      17.572  -1.383  25.566  0.00  0.00    +0.000 A 
ATOM     25  C   UNL     1      18.691  -1.440  24.817  0.00  0.00    +0.000 A 
ATOM     26  C   UNL     1      19.373  -0.296  24.356  0.00  0.00    +0.000 A 
ATOM     27  C   UNL     1      18.850   0.908  24.697  0.00  0.00    +0.000 A 
ATOM     28  C   UNL     1      17.667   0.960  25.486  0.00  0.00    +0.000 A 
BRANCH  26  29
ATOM     29  O   UNL     1      20.527  -0.486  23.595  0.00  0.00    +0.000 OA
ATOM     30  C   UNL     1      21.204   0.653  23.027  0.00  0.00    +0.000 C 
ENDBRANCH  26  29
ENDBRANCH  22  23
ENDBRANCH  21  22
ENDBRANCH  20  21
ENDBRANCH   4  20
TORSDOF 8
ENDMDL
MODEL 9
REMARK VINA RESULT:      -7.1      3.695      5.712
REMARK  Name = 
REMARK  8 active torsions:
REMARK  status: ('A' for Active; 'I' for Inactive)
REMARK    1  A    between atoms: C_2  and  O_3
REMARK    2  A    between atoms: O_3  and  C_4
REMARK    3  A    between atoms: C_7  and  C_8
REMARK    4  A    between atoms: C_11  and  C_12
REMARK    5  A    between atoms: C_12  and  N_13
REMARK    6  A    between atoms: N_13  and  C_14
REMARK    7  A    between atoms: C_14  and  C_15
REMARK    8  A    between atoms: C_18  and  O_19
REMARK                            x       y       z     vdW  Elec       q    Type
REMARK                         _______ _______ _______ _____ _____    ______ ____
ROOT
ATOM      1  C   UNL     1      38.977  -0.576  14.211  0.00  0.00    +0.000 A 
ATOM      2  C   UNL     1      38.384   0.405  13.476  0.00  0.00    +0.000 A 
ATOM      3  C   UNL     1      37.196   1.070  13.944  0.00  0.00    +0.000 A 
ATOM      4  C   UNL     1      36.657   0.715  15.152  0.00  0.00    +0.000 A 
ATOM      5  C   UNL     1      37.279  -0.300  15.881  0.00  0.00    +0.000 A 
ATOM      6  C   UNL     1      36.669  -0.625  17.100  0.00  0.00    +0.000 A 
ATOM      7  N   UNL     1      37.322  -1.623  17.784  0.00  0.00    +0.000 NA
ATOM      8  C   UNL     1      38.392  -2.229  17.364  0.00  0.00    +0.000 A 
ATOM      9  C   UNL     1      39.047  -1.958  16.163  0.00  0.00    +0.000 A 
ATOM     10  C   UNL     1      38.397  -0.925  15.432  0.00  0.00    +0.000 A 
ENDROOT
BRANCH   1  14
ATOM     11  C   UNL     1      42.478  -2.761  13.058  0.00  0.00    +0.000 A 
ATOM     12  C   UNL     1      42.592  -1.674  13.846  0.00  0.00    +0.000 A 
ATOM     13  C   UNL     1      41.459  -0.930  14.242  0.00  0.00    +0.000 A 
ATOM     14  C   UNL     1      40.214  -1.290  13.829  0.00  0.00    +0.000 A 
ATOM     15  C   UNL     1      40.116  -2.397  13.027  0.00  0.00    +0.000 A 
ATOM     16  C   UNL     1      41.215  -3.164  12.615  0.00  0.00    +0.000 A 
BRANCH  11  17
ATOM     17  O   UNL     1      43.574  -3.557  12.642  0.00  0.00    +0.000 OA
BRANCH  17  19
ATOM     18  C   UNL     1      44.229  -2.485  10.616  0.00  0.00    +0.000 C 
ATOM     19  C   UNL     1      44.677  -3.091  11.944  0.00  0.00    +0.000 C 
ENDBRANCH  17  19
ENDBRANCH  11  17
ENDBRANCH   1  14
BRANCH   4  20
ATOM     20  C   UNL     1      35.523   1.457  15.806  0.00  0.00    +0.000 C 
BRANCH  20  21
ATOM     21  N   UNL     1      35.733   2.913  15.813  0.00  0.00    +0.000 NA
BRANCH  21  22
ATOM     22  C   UNL     1      36.679   3.149  16.839  0.00  0.00    +0.000 C 
BRANCH  22  23
ATOM     23  C   UNL     1      37.857   3.953  16.693  0.00  0.00    +0.000 A 
ATOM     24  C   UNL     1      38.347   4.577  17.917  0.00  0.00    +0.000 A 
ATOM     25  C   UNL     1      39.408   5.407  17.887  0.00  0.00    +0.000 A 
ATOM     26  C   UNL     1      40.107   5.730  16.707  0.00  0.00    +0.000 A 
ATOM     27  C   UNL     1      39.666   5.157  15.558  0.00  0.00    +0.000 A 
ATOM     28  C   UNL     1      38.546   4.280  15.597  0.00  0.00    +0.000 A 
BRANCH  26  29
ATOM     29  O   UNL     1      41.185   6.609  16.805  0.00  0.00    +0.000 OA
ATOM     30  C   UNL     1      42.048   6.556  17.958  0.00  0.00    +0.000 C 
ENDBRANCH  26  29
ENDBRANCH  22  23
ENDBRANCH  21  22
ENDBRANCH  20  21
ENDBRANCH   4  20
TORSDOF 8
ENDMDL
MODEL 10
REMARK VINA RESULT:      -7.1     26.801     29.562
REMARK  Name = 
REMARK  8 active torsions:
REMARK  status: ('A' for Active; 'I' for Inactive)
REMARK    1  A    between atoms: C_2  and  O_3
REMARK    2  A    between atoms: O_3  and  C_4
REMARK    3  A    between atoms: C_7  and  C_8
REMARK    4  A    between atoms: C_11  and  C_12
REMARK    5  A    between atoms: C_12  and  N_13
REMARK    6  A    between atoms: N_13  and  C_14
REMARK    7  A    between atoms: C_14  and  C_15
REMARK    8  A    between atoms: C_18  and  O_19
REMARK                            x       y       z     vdW  Elec       q    Type
REMARK                         _______ _______ _______ _____ _____    ______ ____
ROOT
ATOM      1  C   UNL     1      25.678  15.684  36.859  0.00  0.00    +0.000 A 
ATOM      2  C   UNL     1      24.726  15.287  37.747  0.00  0.00    +0.000 A 
ATOM      3  C   UNL     1      25.084  14.792  39.050  0.00  0.00    +0.000 A 
ATOM      4  C   UNL     1      26.406  14.726  39.406  0.00  0.00    +0.000 A 
ATOM      5  C   UNL     1      27.362  15.130  38.473  0.00  0.00    +0.000 A 
ATOM      6  C   UNL     1      28.694  15.025  38.894  0.00  0.00    +0.000 A 
ATOM      7  N   UNL     1      29.598  15.441  37.945  0.00  0.00    +0.000 NA
ATOM      8  C   UNL     1      29.279  15.884  36.766  0.00  0.00    +0.000 A 
ATOM      9  C   UNL     1      27.978  16.012  36.283  0.00  0.00    +0.000 A 
ATOM     10  C   UNL     1      27.017  15.592  37.244  0.00  0.00    +0.000 A 
ENDROOT
BRANCH   1  14
ATOM     11  C   UNL     1      24.830  17.403  33.026  0.00  0.00    +0.000 A 
ATOM     12  C   UNL     1      25.125  16.091  33.125  0.00  0.00    +0.000 A 
ATOM     13  C   UNL     1      25.413  15.494  34.373  0.00  0.00    +0.000 A 
ATOM     14  C   UNL     1      25.405  16.235  35.513  0.00  0.00    +0.000 A 
ATOM     15  C   UNL     1      25.105  17.566  35.395  0.00  0.00    +0.000 A 
ATOM     16  C   UNL     1      24.810  18.196  34.176  0.00  0.00    +0.000 A 
BRANCH  11  17
ATOM     17  O   UNL     1      24.517  18.054  31.807  0.00  0.00    +0.000 OA
BRANCH  17  19
ATOM     18  C   UNL     1      22.831  19.731  31.630  0.00  0.00    +0.000 C 
ATOM     19  C   UNL     1      24.326  19.419  31.659  0.00  0.00    +0.000 C 
ENDBRANCH  17  19
ENDBRANCH  11  17
ENDBRANCH   1  14
BRANCH   4  20
ATOM     20  C   UNL     1      26.876  14.386  40.794  0.00  0.00    +0.000 C 
BRANCH  20  21
ATOM     21  N   UNL     1      26.103  13.291  41.399  0.00  0.00    +0.000 NA
BRANCH  21  22
ATOM     22  C   UNL     1      26.715  12.101  40.940  0.00  0.00    +0.000 C 
BRANCH  22  23
ATOM     23  C   UNL     1      26.553  10.812  41.547  0.00  0.00    +0.000 A 
ATOM     24  C   UNL     1      25.761  10.790  42.771  0.00  0.00    +0.000 A 
ATOM     25  C   UNL     1      25.599   9.646  43.463  0.00  0.00    +0.000 A 
ATOM     26  C   UNL     1      26.166   8.416  43.072  0.00  0.00    +0.000 A 
ATOM     27  C   UNL     1      26.905   8.417  41.934  0.00  0.00    +0.000 A 
ATOM     28  C   UNL     1      27.071   9.630  41.207  0.00  0.00    +0.000 A 
BRANCH  26  29
ATOM     29  O   UNL     1      25.931   7.302  43.877  0.00  0.00    +0.000 OA
ATOM     30  C   UNL     1      26.809   7.024  44.986  0.00  0.00    +0.000 C 
ENDBRANCH  26  29
ENDBRANCH  22  23
ENDBRANCH  21  22
ENDBRANCH  20  21
ENDBRANCH   4  20
TORSDOF 8
ENDMDL
