MODEL 1
REMARK VINA RESULT:      -7.8      0.000      0.000
REMARK  Name = 
REMARK  4 active torsions:
REMARK  status: ('A' for Active; 'I' for Inactive)
REMARK    1  A    between atoms: C_8  and  N_9
REMARK    2  A    between atoms: C_10  and  C_12
REMARK    3  A    between atoms: C_12  and  N_13
REMARK    4  A    between atoms: N_13  and  C_14
REMARK                            x       y       z     vdW  Elec       q    Type
REMARK                         _______ _______ _______ _____ _____    ______ ____
ROOT
ATOM      1  N   UNL     1      14.984  11.519  34.156  0.00  0.00    +0.000 NA
ATOM      2  C   UNL     1      16.134  11.663  34.981  0.00  0.00    +0.000 C 
ATOM      3  O   UNL     1      17.045  12.424  34.565  0.00  0.00    +0.000 OA
ENDROOT
BRANCH   1  11
ATOM      4  C   UNL     1      16.147  10.442  31.787  0.00  0.00    +0.000 C 
ATOM      5  C   UNL     1      15.415  11.745  31.734  0.00  0.00    +0.000 A 
ATOM      6  C   UNL     1      15.280  12.459  30.563  0.00  0.00    +0.000 A 
ATOM      7  C   UNL     1      14.610  13.650  30.517  0.00  0.00    +0.000 A 
ATOM      8  C   UNL     1      14.070  14.114  31.706  0.00  0.00    +0.000 A 
ATOM      9  C   UNL     1      14.195  13.416  32.883  0.00  0.00    +0.000 A 
ATOM     10  C   UNL     1      13.598  13.952  34.141  0.00  0.00    +0.000 C 
ATOM     11  C   UNL     1      14.876  12.213  32.913  0.00  0.00    +0.000 A 
ENDBRANCH   1  11
BRANCH   2  12
ATOM     12  C   UNL     1      16.337  10.994  36.273  0.00  0.00    +0.000 C 
BRANCH  12  13
ATOM     13  N   UNL     1      15.725  11.643  37.385  0.00  0.00    +0.000 NA
BRANCH  13  14
ATOM     14  C   UNL     1      14.405  11.316  37.794  0.00  0.00    +0.000 A 
ATOM     15  C   UNL     1      14.225  10.580  38.967  0.00  0.00    +0.000 A 
ATOM     16  C   UNL     1      12.953  10.249  39.383  0.00  0.00    +0.000 A 
ATOM     17  C   UNL     1      11.893  10.661  38.619  0.00  0.00    +0.000 A 
ATOM     18  C   UNL     1      12.043  11.394  37.447  0.00  0.00    +0.000 A 
ATOM     19  F   UNL     1      10.933  11.757  36.757  0.00  0.00    +0.000 F 
ATOM     20  C   UNL     1      13.324  11.716  37.044  0.00  0.00    +0.000 A 
ENDBRANCH  13  14
ENDBRANCH  12  13
ENDBRANCH   2  12
TORSDOF 4
ENDMDL
MODEL 2
REMARK VINA RESULT:      -7.2      3.252      4.231
REMARK  Name = 
REMARK  4 active torsions:
REMARK  status: ('A' for Active; 'I' for Inactive)
REMARK    1  A    between atoms: C_8  and  N_9
REMARK    2  A    between atoms: C_10  and  C_12
REMARK    3  A    between atoms: C_12  and  N_13
REMARK    4  A    between atoms: N_13  and  C_14
REMARK                            x       y       z     vdW  Elec       q    Type
REMARK                         _______ _______ _______ _____ _____    ______ ____
ROOT
ATOM      1  N   UNL     1      15.120  11.068  33.602  0.00  0.00    +0.000 NA
ATOM      2  C   UNL     1      16.494  10.943  33.949  0.00  0.00    +0.000 C 
ATOM      3  O   UNL     1      17.216  11.964  33.804  0.00  0.00    +0.000 OA
ENDROOT
BRANCH   1  11
ATOM      4  C   UNL     1      15.022  11.596  30.802  0.00  0.00    +0.000 C 
ATOM      5  C   UNL     1      14.516  12.615  31.772  0.00  0.00    +0.000 A 
ATOM      6  C   UNL     1      13.996  13.823  31.358  0.00  0.00    +0.000 A 
ATOM      7  C   UNL     1      13.535  14.753  32.247  0.00  0.00    +0.000 A 
ATOM      8  C   UNL     1      13.613  14.431  33.593  0.00  0.00    +0.000 A 
ATOM      9  C   UNL     1      14.129  13.232  34.024  0.00  0.00    +0.000 A 
ATOM     10  C   UNL     1      14.194  12.924  35.483  0.00  0.00    +0.000 C 
ATOM     11  C   UNL     1      14.591  12.301  33.112  0.00  0.00    +0.000 A 
ENDBRANCH   1  11
BRANCH   2  12
ATOM     12  C   UNL     1      17.129   9.721  34.460  0.00  0.00    +0.000 C 
BRANCH  12  13
ATOM     13  N   UNL     1      18.359   9.932  35.151  0.00  0.00    +0.000 NA
BRANCH  13  14
ATOM     14  C   UNL     1      18.421   9.905  36.569  0.00  0.00    +0.000 A 
ATOM     15  C   UNL     1      17.251  10.125  37.300  0.00  0.00    +0.000 A 
ATOM     16  C   UNL     1      17.287  10.104  38.678  0.00  0.00    +0.000 A 
ATOM     17  C   UNL     1      18.488   9.864  39.292  0.00  0.00    +0.000 A 
ATOM     18  C   UNL     1      19.668   9.642  38.590  0.00  0.00    +0.000 A 
ATOM     19  F   UNL     1      20.809   9.412  39.285  0.00  0.00    +0.000 F 
ATOM     20  C   UNL     1      19.614   9.667  37.210  0.00  0.00    +0.000 A 
ENDBRANCH  13  14
ENDBRANCH  12  13
ENDBRANCH   2  12
TORSDOF 4
ENDMDL
MODEL 3
REMARK VINA RESULT:      -6.9      3.698      5.163
REMARK  Name = 
REMARK  4 active torsions:
REMARK  status: ('A' for Active; 'I' for Inactive)
REMARK    1  A    between atoms: C_8  and  N_9
REMARK    2  A    between atoms: C_10  and  C_12
REMARK    3  A    between atoms: C_12  and  N_13
REMARK    4  A    between atoms: N_13  and  C_14
REMARK                            x       y       z     vdW  Elec       q    Type
REMARK                         _______ _______ _______ _____ _____    ______ ____
ROOT
ATOM      1  N   UNL     1      17.105   9.908  36.702  0.00  0.00    +0.000 NA
ATOM      2  C   UNL     1      18.233  10.385  37.426  0.00  0.00    +0.000 C 
ATOM      3  O   UNL     1      18.458  11.622  37.386  0.00  0.00    +0.000 OA
ENDROOT
BRANCH   1  11
ATOM      4  C   UNL     1      14.962  11.283  37.984  0.00  0.00    +0.000 C 
ATOM      5  C   UNL     1      15.219  11.495  36.527  0.00  0.00    +0.000 A 
ATOM      6  C   UNL     1      14.446  12.344  35.765  0.00  0.00    +0.000 A 
ATOM      7  C   UNL     1      14.683  12.536  34.432  0.00  0.00    +0.000 A 
ATOM      8  C   UNL     1      15.740  11.836  33.874  0.00  0.00    +0.000 A 
ATOM      9  C   UNL     1      16.522  10.985  34.618  0.00  0.00    +0.000 A 
ATOM     10  C   UNL     1      17.652  10.250  33.978  0.00  0.00    +0.000 C 
ATOM     11  C   UNL     1      16.270  10.801  35.965  0.00  0.00    +0.000 A 
ENDBRANCH   1  11
BRANCH   2  12
ATOM     12  C   UNL     1      19.149   9.548  38.213  0.00  0.00    +0.000 C 
BRANCH  12  13
ATOM     13  N   UNL     1      18.953   9.612  39.624  0.00  0.00    +0.000 NA
BRANCH  13  14
ATOM     14  C   UNL     1      17.896   8.904  40.254  0.00  0.00    +0.000 A 
ATOM     15  C   UNL     1      16.762   9.608  40.664  0.00  0.00    +0.000 A 
ATOM     16  C   UNL     1      15.723   8.942  41.278  0.00  0.00    +0.000 A 
ATOM     17  C   UNL     1      15.842   7.590  41.468  0.00  0.00    +0.000 A 
ATOM     18  C   UNL     1      16.959   6.863  41.071  0.00  0.00    +0.000 A 
ATOM     19  F   UNL     1      16.986   5.528  41.301  0.00  0.00    +0.000 F 
ATOM     20  C   UNL     1      17.991   7.547  40.457  0.00  0.00    +0.000 A 
ENDBRANCH  13  14
ENDBRANCH  12  13
ENDBRANCH   2  12
TORSDOF 4
ENDMDL
MODEL 4
REMARK VINA RESULT:      -6.8      3.614      4.974
REMARK  Name = 
REMARK  4 active torsions:
REMARK  status: ('A' for Active; 'I' for Inactive)
REMARK    1  A    between atoms: C_8  and  N_9
REMARK    2  A    between atoms: C_10  and  C_12
REMARK    3  A    between atoms: C_12  and  N_13
REMARK    4  A    between atoms: N_13  and  C_14
REMARK                            x       y       z     vdW  Elec       q    Type
REMARK                         _______ _______ _______ _____ _____    ______ ____
ROOT
ATOM      1  N   UNL     1      16.530  10.337  36.802  0.00  0.00    +0.000 NA
ATOM      2  C   UNL     1      17.729  10.754  37.444  0.00  0.00    +0.000 C 
ATOM      3  O   UNL     1      17.929  11.993  37.535  0.00  0.00    +0.000 OA
ENDROOT
BRANCH   1  11
ATOM      4  C   UNL     1      16.859  11.419  34.185  0.00  0.00    +0.000 C 
ATOM      5  C   UNL     1      15.703  11.848  35.030  0.00  0.00    +0.000 A 
ATOM      6  C   UNL     1      14.774  12.764  34.586  0.00  0.00    +0.000 A 
ATOM      7  C   UNL     1      13.718  13.155  35.361  0.00  0.00    +0.000 A 
ATOM      8  C   UNL     1      13.620  12.589  36.623  0.00  0.00    +0.000 A 
ATOM      9  C   UNL     1      14.537  11.675  37.083  0.00  0.00    +0.000 A 
ATOM     10  C   UNL     1      14.394  11.089  38.447  0.00  0.00    +0.000 C 
ATOM     11  C   UNL     1      15.599  11.289  36.286  0.00  0.00    +0.000 A 
ENDBRANCH   1  11
BRANCH   2  12
ATOM     12  C   UNL     1      18.745   9.853  38.006  0.00  0.00    +0.000 C 
BRANCH  12  13
ATOM     13  N   UNL     1      18.768   9.793  39.431  0.00  0.00    +0.000 NA
BRANCH  13  14
ATOM     14  C   UNL     1      17.848   8.984  40.149  0.00  0.00    +0.000 A 
ATOM     15  C   UNL     1      16.735   9.587  40.737  0.00  0.00    +0.000 A 
ATOM     16  C   UNL     1      15.828   8.821  41.440  0.00  0.00    +0.000 A 
ATOM     17  C   UNL     1      16.056   7.474  41.538  0.00  0.00    +0.000 A 
ATOM     18  C   UNL     1      17.156   6.847  40.962  0.00  0.00    +0.000 A 
ATOM     19  F   UNL     1      17.298   5.507  41.113  0.00  0.00    +0.000 F 
ATOM     20  C   UNL     1      18.054   7.629  40.262  0.00  0.00    +0.000 A 
ENDBRANCH  13  14
ENDBRANCH  12  13
ENDBRANCH   2  12
TORSDOF 4
ENDMDL
MODEL 5
REMARK VINA RESULT:      -6.6      2.867      4.309
REMARK  Name = 
REMARK  4 active torsions:
REMARK  status: ('A' for Active; 'I' for Inactive)
REMARK    1  A    between atoms: C_8  and  N_9
REMARK    2  A    between atoms: C_10  and  C_12
REMARK    3  A    between atoms: C_12  and  N_13
REMARK    4  A    between atoms: N_13  and  C_14
REMARK                            x       y       z     vdW  Elec       q    Type
REMARK                         _______ _______ _______ _____ _____    ______ ____
ROOT
ATOM      1  N   UNL     1      15.504  12.681  34.684  0.00  0.00    +0.000 NA
ATOM      2  C   UNL     1      14.775  12.082  35.748  0.00  0.00    +0.000 C 
ATOM      3  O   UNL     1      13.741  11.435  35.441  0.00  0.00    +0.000 OA
ENDROOT
BRANCH   1  11
ATOM      4  C   UNL     1      13.523  14.430  33.614  0.00  0.00    +0.000 C 
ATOM      5  C   UNL     1      14.120  13.364  32.753  0.00  0.00    +0.000 A 
ATOM      6  C   UNL     1      13.742  13.190  31.439  0.00  0.00    +0.000 A 
ATOM      7  C   UNL     1      14.290  12.213  30.654  0.00  0.00    +0.000 A 
ATOM      8  C   UNL     1      15.247  11.398  31.239  0.00  0.00    +0.000 A 
ATOM      9  C   UNL     1      15.635  11.557  32.547  0.00  0.00    +0.000 A 
ATOM     10  C   UNL     1      16.670  10.659  33.138  0.00  0.00    +0.000 C 
ATOM     11  C   UNL     1      15.072  12.550  33.328  0.00  0.00    +0.000 A 
ENDBRANCH   1  11
BRANCH   2  12
ATOM     12  C   UNL     1      15.138  12.159  37.170  0.00  0.00    +0.000 C 
BRANCH  12  13
ATOM     13  N   UNL     1      15.400  10.901  37.789  0.00  0.00    +0.000 NA
BRANCH  13  14
ATOM     14  C   UNL     1      16.722  10.395  37.897  0.00  0.00    +0.000 A 
ATOM     15  C   UNL     1      17.485  10.245  36.737  0.00  0.00    +0.000 A 
ATOM     16  C   UNL     1      18.771   9.755  36.818  0.00  0.00    +0.000 A 
ATOM     17  C   UNL     1      19.263   9.426  38.054  0.00  0.00    +0.000 A 
ATOM     18  C   UNL     1      18.526   9.565  39.225  0.00  0.00    +0.000 A 
ATOM     19  F   UNL     1      19.099   9.214  40.403  0.00  0.00    +0.000 F 
ATOM     20  C   UNL     1      17.240  10.058  39.126  0.00  0.00    +0.000 A 
ENDBRANCH  13  14
ENDBRANCH  12  13
ENDBRANCH   2  12
TORSDOF 4
ENDMDL
MODEL 6
REMARK VINA RESULT:      -6.4     28.312     31.058
REMARK  Name = 
REMARK  4 active torsions:
REMARK  status: ('A' for Active; 'I' for Inactive)
REMARK    1  A    between atoms: C_8  and  N_9
REMARK    2  A    between atoms: C_10  and  C_12
REMARK    3  A    between atoms: C_12  and  N_13
REMARK    4  A    between atoms: N_13  and  C_14
REMARK                            x       y       z     vdW  Elec       q    Type
REMARK                         _______ _______ _______ _____ _____    ______ ____
ROOT
ATOM      1  N   UNL     1      32.611  19.944  10.912  0.00  0.00    +0.000 NA
ATOM      2  C   UNL     1      31.923  21.066  11.452  0.00  0.00    +0.000 C 
ATOM      3  O   UNL     1      32.439  22.198  11.265  0.00  0.00    +0.000 OA
ENDROOT
BRANCH   1  11
ATOM      4  C   UNL     1      32.588  20.373   8.094  0.00  0.00    +0.000 C 
ATOM      5  C   UNL     1      33.888  20.315   8.830  0.00  0.00    +0.000 A 
ATOM      6  C   UNL     1      35.098  20.462   8.187  0.00  0.00    +0.000 A 
ATOM      7  C   UNL     1      36.286  20.408   8.862  0.00  0.00    +0.000 A 
ATOM      8  C   UNL     1      36.223  20.197  10.230  0.00  0.00    +0.000 A 
ATOM      9  C   UNL     1      35.026  20.047  10.888  0.00  0.00    +0.000 A 
ATOM     10  C   UNL     1      35.002  19.822  12.363  0.00  0.00    +0.000 C 
ATOM     11  C   UNL     1      33.833  20.104  10.191  0.00  0.00    +0.000 A 
ENDBRANCH   1  11
BRANCH   2  12
ATOM     12  C   UNL     1      30.663  21.004  12.205  0.00  0.00    +0.000 C 
BRANCH  12  13
ATOM     13  N   UNL     1      30.256  22.239  12.791  0.00  0.00    +0.000 NA
BRANCH  13  14
ATOM     14  C   UNL     1      28.918  22.702  12.678  0.00  0.00    +0.000 A 
ATOM     15  C   UNL     1      28.427  23.586  13.640  0.00  0.00    +0.000 A 
ATOM     16  C   UNL     1      27.130  24.049  13.551  0.00  0.00    +0.000 A 
ATOM     17  C   UNL     1      26.359  23.618  12.504  0.00  0.00    +0.000 A 
ATOM     18  C   UNL     1      26.823  22.738  11.532  0.00  0.00    +0.000 A 
ATOM     19  F   UNL     1      25.985  22.368  10.532  0.00  0.00    +0.000 F 
ATOM     20  C   UNL     1      28.123  22.284  11.637  0.00  0.00    +0.000 A 
ENDBRANCH  13  14
ENDBRANCH  12  13
ENDBRANCH   2  12
TORSDOF 4
ENDMDL
MODEL 7
REMARK VINA RESULT:      -6.1     21.472     24.195
REMARK  Name = 
REMARK  4 active torsions:
REMARK  status: ('A' for Active; 'I' for Inactive)
REMARK    1  A    between atoms: C_8  and  N_9
REMARK    2  A    between atoms: C_10  and  C_12
REMARK    3  A    between atoms: C_12  and  N_13
REMARK    4  A    between atoms: N_13  and  C_14
REMARK                            x       y       z     vdW  Elec       q    Type
REMARK                         _______ _______ _______ _____ _____    ______ ____
ROOT
ATOM      1  N   UNL     1      20.269  -8.884  26.018  0.00  0.00    +0.000 NA
ATOM      2  C   UNL     1      19.870  -9.672  24.904  0.00  0.00    +0.000 C 
ATOM      3  O   UNL     1      18.960  -9.207  24.170  0.00  0.00    +0.000 OA
ENDROOT
BRANCH   1  11
ATOM      4  C   UNL     1      17.891  -8.722  27.582  0.00  0.00    +0.000 C 
ATOM      5  C   UNL     1      18.509  -7.477  27.034  0.00  0.00    +0.000 A 
ATOM      6  C   UNL     1      17.964  -6.231  27.258  0.00  0.00    +0.000 A 
ATOM      7  C   UNL     1      18.531  -5.093  26.754  0.00  0.00    +0.000 A 
ATOM      8  C   UNL     1      19.686  -5.245  26.003  0.00  0.00    +0.000 A 
ATOM      9  C   UNL     1      20.243  -6.479  25.769  0.00  0.00    +0.000 A 
ATOM     10  C   UNL     1      21.488  -6.599  24.954  0.00  0.00    +0.000 C 
ATOM     11  C   UNL     1      19.658  -7.620  26.285  0.00  0.00    +0.000 A 
ENDBRANCH   1  11
BRANCH   2  12
ATOM     12  C   UNL     1      20.437 -10.980  24.547  0.00  0.00    +0.000 C 
BRANCH  12  13
ATOM     13  N   UNL     1      21.174 -10.998  23.326  0.00  0.00    +0.000 NA
BRANCH  13  14
ATOM     14  C   UNL     1      22.084  -9.958  22.999  0.00  0.00    +0.000 A 
ATOM     15  C   UNL     1      23.270  -9.845  23.729  0.00  0.00    +0.000 A 
ATOM     16  C   UNL     1      24.168  -8.843  23.430  0.00  0.00    +0.000 A 
ATOM     17  C   UNL     1      23.861  -7.979  22.412  0.00  0.00    +0.000 A 
ATOM     18  C   UNL     1      22.689  -8.068  21.669  0.00  0.00    +0.000 A 
ATOM     19  F   UNL     1      22.472  -7.167  20.680  0.00  0.00    +0.000 F 
ATOM     20  C   UNL     1      21.800  -9.078  21.982  0.00  0.00    +0.000 A 
ENDBRANCH  13  14
ENDBRANCH  12  13
ENDBRANCH   2  12
TORSDOF 4
ENDMDL
MODEL 8
REMARK VINA RESULT:      -6.1      5.108      7.475
REMARK  Name = 
REMARK  4 active torsions:
REMARK  status: ('A' for Active; 'I' for Inactive)
REMARK    1  A    between atoms: C_8  and  N_9
REMARK    2  A    between atoms: C_10  and  C_12
REMARK    3  A    between atoms: C_12  and  N_13
REMARK    4  A    between atoms: N_13  and  C_14
REMARK                            x       y       z     vdW  Elec       q    Type
REMARK                         _______ _______ _______ _____ _____    ______ ____
ROOT
ATOM      1  N   UNL     1      20.561  10.582  37.412  0.00  0.00    +0.000 NA
ATOM      2  C   UNL     1      19.982   9.692  38.359  0.00  0.00    +0.000 C 
ATOM      3  O   UNL     1      20.641   9.462  39.406  0.00  0.00    +0.000 OA
ENDROOT
BRANCH   1  11
ATOM      4  C   UNL     1      22.952   9.333  36.490  0.00  0.00    +0.000 C 
ATOM      5  C   UNL     1      23.025  10.631  37.228  0.00  0.00    +0.000 A 
ATOM      6  C   UNL     1      24.225  11.258  37.486  0.00  0.00    +0.000 A 
ATOM      7  C   UNL     1      24.289  12.445  38.161  0.00  0.00    +0.000 A 
ATOM      8  C   UNL     1      23.088  12.996  38.581  0.00  0.00    +0.000 A 
ATOM      9  C   UNL     1      21.883  12.385  38.333  0.00  0.00    +0.000 A 
ATOM     10  C   UNL     1      20.613  13.012  38.802  0.00  0.00    +0.000 C 
ATOM     11  C   UNL     1      21.834  11.184  37.649  0.00  0.00    +0.000 A 
ENDBRANCH   1  11
BRANCH   2  12
ATOM     12  C   UNL     1      18.682   9.025  38.207  0.00  0.00    +0.000 C 
BRANCH  12  13
ATOM     13  N   UNL     1      17.586   9.904  37.956  0.00  0.00    +0.000 NA
BRANCH  13  14
ATOM     14  C   UNL     1      17.193  10.230  36.631  0.00  0.00    +0.000 A 
ATOM     15  C   UNL     1      17.705   9.479  35.571  0.00  0.00    +0.000 A 
ATOM     16  C   UNL     1      17.338   9.779  34.276  0.00  0.00    +0.000 A 
ATOM     17  C   UNL     1      16.469  10.818  34.072  0.00  0.00    +0.000 A 
ATOM     18  C   UNL     1      15.944  11.582  35.109  0.00  0.00    +0.000 A 
ATOM     19  F   UNL     1      15.090  12.592  34.809  0.00  0.00    +0.000 F 
ATOM     20  C   UNL     1      16.322  11.269  36.400  0.00  0.00    +0.000 A 
ENDBRANCH  13  14
ENDBRANCH  12  13
ENDBRANCH   2  12
TORSDOF 4
ENDMDL
MODEL 9
REMARK VINA RESULT:      -6.0     28.570     31.768
REMARK  Name = 
REMARK  4 active torsions:
REMARK  status: ('A' for Active; 'I' for Inactive)
REMARK    1  A    between atoms: C_8  and  N_9
REMARK    2  A    between atoms: C_10  and  C_12
REMARK    3  A    between atoms: C_12  and  N_13
REMARK    4  A    between atoms: N_13  and  C_14
REMARK                            x       y       z     vdW  Elec       q    Type
REMARK                         _______ _______ _______ _____ _____    ______ ____
ROOT
ATOM      1  N   UNL     1      32.008  20.521   9.091  0.00  0.00    +0.000 NA
ATOM      2  C   UNL     1      31.335  21.493   9.884  0.00  0.00    +0.000 C 
ATOM      3  O   UNL     1      31.038  22.580   9.325  0.00  0.00    +0.000 OA
ENDROOT
BRANCH   1  11
ATOM      4  C   UNL     1      34.455  21.802   8.386  0.00  0.00    +0.000 C 
ATOM      5  C   UNL     1      33.493  21.391   7.318  0.00  0.00    +0.000 A 
ATOM      6  C   UNL     1      33.746  21.613   5.982  0.00  0.00    +0.000 A 
ATOM      7  C   UNL     1      32.864  21.237   5.007  0.00  0.00    +0.000 A 
ATOM      8  C   UNL     1      31.694  20.620   5.421  0.00  0.00    +0.000 A 
ATOM      9  C   UNL     1      31.424  20.391   6.749  0.00  0.00    +0.000 A 
ATOM     10  C   UNL     1      30.152  19.723   7.152  0.00  0.00    +0.000 C 
ATOM     11  C   UNL     1      32.327  20.777   7.723  0.00  0.00    +0.000 A 
ENDBRANCH   1  11
BRANCH   2  12
ATOM     12  C   UNL     1      30.964  21.323  11.295  0.00  0.00    +0.000 C 
BRANCH  12  13
ATOM     13  N   UNL     1      30.535  22.517  11.947  0.00  0.00    +0.000 NA
BRANCH  13  14
ATOM     14  C   UNL     1      29.160  22.759  12.210  0.00  0.00    +0.000 A 
ATOM     15  C   UNL     1      28.808  23.459  13.366  0.00  0.00    +0.000 A 
ATOM     16  C   UNL     1      27.480  23.705  13.643  0.00  0.00    +0.000 A 
ATOM     17  C   UNL     1      26.538  23.245  12.760  0.00  0.00    +0.000 A 
ATOM     18  C   UNL     1      26.860  22.545  11.603  0.00  0.00    +0.000 A 
ATOM     19  F   UNL     1      25.858  22.130  10.790  0.00  0.00    +0.000 F 
ATOM     20  C   UNL     1      28.195  22.308  11.341  0.00  0.00    +0.000 A 
ENDBRANCH  13  14
ENDBRANCH  12  13
ENDBRANCH   2  12
TORSDOF 4
ENDMDL
MODEL 10
REMARK VINA RESULT:      -5.8     21.704     24.746
REMARK  Name = 
REMARK  4 active torsions:
REMARK  status: ('A' for Active; 'I' for Inactive)
REMARK    1  A    between atoms: C_8  and  N_9
REMARK    2  A    between atoms: C_10  and  C_12
REMARK    3  A    between atoms: C_12  and  N_13
REMARK    4  A    between atoms: N_13  and  C_14
REMARK                            x       y       z     vdW  Elec       q    Type
REMARK                         _______ _______ _______ _____ _____    ______ ____
ROOT
ATOM      1  N   UNL     1      28.910  23.453  22.903  0.00  0.00    +0.000 NA
ATOM      2  C   UNL     1      29.113  24.812  22.533  0.00  0.00    +0.000 C 
ATOM      3  O   UNL     1      29.147  25.659  23.463  0.00  0.00    +0.000 OA
ENDROOT
BRANCH   1  11
ATOM      4  C   UNL     1      31.186  22.884  24.523  0.00  0.00    +0.000 C 
ATOM      5  C   UNL     1      29.812  22.789  25.106  0.00  0.00    +0.000 A 
ATOM      6  C   UNL     1      29.600  22.430  26.419  0.00  0.00    +0.000 A 
ATOM      7  C   UNL     1      28.342  22.344  26.950  0.00  0.00    +0.000 A 
ATOM      8  C   UNL     1      27.282  22.634  26.105  0.00  0.00    +0.000 A 
ATOM      9  C   UNL     1      27.475  22.994  24.793  0.00  0.00    +0.000 A 
ATOM     10  C   UNL     1      26.306  23.299  23.918  0.00  0.00    +0.000 C 
ATOM     11  C   UNL     1      28.753  23.076  24.272  0.00  0.00    +0.000 A 
ENDBRANCH   1  11
BRANCH   2  12
ATOM     12  C   UNL     1      29.286  25.297  21.158  0.00  0.00    +0.000 C 
BRANCH  12  13
ATOM     13  N   UNL     1      28.867  26.643  20.942  0.00  0.00    +0.000 NA
BRANCH  13  14
ATOM     14  C   UNL     1      29.563  27.497  20.045  0.00  0.00    +0.000 A 
ATOM     15  C   UNL     1      29.641  28.861  20.335  0.00  0.00    +0.000 A 
ATOM     16  C   UNL     1      30.310  29.709  19.478  0.00  0.00    +0.000 A 
ATOM     17  C   UNL     1      30.885  29.174  18.355  0.00  0.00    +0.000 A 
ATOM     18  C   UNL     1      30.823  27.820  18.042  0.00  0.00    +0.000 A 
ATOM     19  F   UNL     1      31.423  27.384  16.907  0.00  0.00    +0.000 F 
ATOM     20  C   UNL     1      30.148  26.985  18.911  0.00  0.00    +0.000 A 
ENDBRANCH  13  14
ENDBRANCH  12  13
ENDBRANCH   2  12
TORSDOF 4
ENDMDL
