MODEL 1
REMARK VINA RESULT:      -7.6      0.000      0.000
REMARK  Name = 
REMARK  3 active torsions:
REMARK  status: ('A' for Active; 'I' for Inactive)
REMARK    1  A    between atoms: C_7  and  N_8
REMARK    2  A    between atoms: N_8  and  N_9
REMARK    3  A    between atoms: C_10  and  C_12
REMARK                            x       y       z     vdW  Elec       q    Type
REMARK                         _______ _______ _______ _____ _____    ______ ____
ROOT
ATOM      1  N   UNL     1      14.400  12.330  35.134  0.00  0.00    +0.000 NA
ATOM      2  C   UNL     1      13.481  12.546  36.194  0.00  0.00    +0.000 C 
ATOM      3  O   UNL     1      12.674  13.490  36.127  0.00  0.00    +0.000 OA
ENDROOT
BRANCH   2   4
ATOM      4  C   UNL     1      13.489  11.665  37.355  0.00  0.00    +0.000 A 
ATOM      5  C   UNL     1      14.658  11.450  38.041  0.00  0.00    +0.000 A 
ATOM      6  C   UNL     1      14.653  10.613  39.137  0.00  0.00    +0.000 A 
ATOM      7  C   UNL     1      13.457   9.995  39.530  0.00  0.00    +0.000 A 
ATOM      8  C   UNL     1      12.286  10.207  38.847  0.00  0.00    +0.000 A 
ATOM      9  C   UNL     1      12.327  11.058  37.746  0.00  0.00    +0.000 A 
ATOM     10  O   UNL     1      11.157  11.310  37.013  0.00  0.00    +0.000 OA
ENDBRANCH   2   4
BRANCH   1  11
ATOM     11  N   UNL     1      14.383  13.162  34.043  0.00  0.00    +0.000 NA
BRANCH  11  18
ATOM     12  C   UNL     1      13.547  14.951  32.296  0.00  0.00    +0.000 C 
ATOM     13  C   UNL     1      13.860  13.559  31.527  0.00  0.00    +0.000 C 
ATOM     14  C   UNL     1      15.217  14.166  30.805  0.00  0.00    +0.000 C 
ATOM     15  C   UNL     1      15.825  13.000  30.069  0.00  0.00    +0.000 C 
ATOM     16  C   UNL     1      15.874  11.757  30.929  0.00  0.00    +0.000 C 
ATOM     17  C   UNL     1      15.585  12.055  32.355  0.00  0.00    +0.000 C 
ATOM     18  C   UNL     1      14.649  12.895  32.715  0.00  0.00    +0.000 C 
ENDBRANCH  11  18
ENDBRANCH   1  11
TORSDOF 3
ENDMDL
MODEL 2
REMARK VINA RESULT:      -7.3     28.160     30.484
REMARK  Name = 
REMARK  3 active torsions:
REMARK  status: ('A' for Active; 'I' for Inactive)
REMARK    1  A    between atoms: C_7  and  N_8
REMARK    2  A    between atoms: N_8  and  N_9
REMARK    3  A    between atoms: C_10  and  C_12
REMARK                            x       y       z     vdW  Elec       q    Type
REMARK                         _______ _______ _______ _____ _____    ______ ____
ROOT
ATOM      1  N   UNL     1      30.979  22.411  12.219  0.00  0.00    +0.000 NA
ATOM      2  C   UNL     1      31.460  21.083  12.358  0.00  0.00    +0.000 C 
ATOM      3  O   UNL     1      30.900  20.306  13.151  0.00  0.00    +0.000 OA
ENDROOT
BRANCH   2   4
ATOM      4  C   UNL     1      32.605  20.637  11.574  0.00  0.00    +0.000 A 
ATOM      5  C   UNL     1      33.818  20.443  12.186  0.00  0.00    +0.000 A 
ATOM      6  C   UNL     1      34.893  20.023  11.434  0.00  0.00    +0.000 A 
ATOM      7  C   UNL     1      34.731  19.801  10.058  0.00  0.00    +0.000 A 
ATOM      8  C   UNL     1      33.520  19.994   9.442  0.00  0.00    +0.000 A 
ATOM      9  C   UNL     1      32.456  20.418  10.232  0.00  0.00    +0.000 A 
ATOM     10  O   UNL     1      31.195  20.629   9.652  0.00  0.00    +0.000 OA
ENDBRANCH   2   4
BRANCH   1  11
ATOM     11  N   UNL     1      29.898  22.822  12.957  0.00  0.00    +0.000 NA
BRANCH  11  18
ATOM     12  C   UNL     1      28.359  24.470  14.322  0.00  0.00    +0.000 C 
ATOM     13  C   UNL     1      27.439  23.330  13.630  0.00  0.00    +0.000 C 
ATOM     14  C   UNL     1      26.808  24.389  12.528  0.00  0.00    +0.000 C 
ATOM     15  C   UNL     1      25.950  23.546  11.620  0.00  0.00    +0.000 C 
ATOM     16  C   UNL     1      26.662  22.283  11.187  0.00  0.00    +0.000 C 
ATOM     17  C   UNL     1      28.109  22.319  11.519  0.00  0.00    +0.000 C 
ATOM     18  C   UNL     1      28.552  22.798  12.654  0.00  0.00    +0.000 C 
ENDBRANCH  11  18
ENDBRANCH   1  11
TORSDOF 3
ENDMDL
MODEL 3
REMARK VINA RESULT:      -7.2      2.924      6.874
REMARK  Name = 
REMARK  3 active torsions:
REMARK  status: ('A' for Active; 'I' for Inactive)
REMARK    1  A    between atoms: C_7  and  N_8
REMARK    2  A    between atoms: N_8  and  N_9
REMARK    3  A    between atoms: C_10  and  C_12
REMARK                            x       y       z     vdW  Elec       q    Type
REMARK                         _______ _______ _______ _____ _____    ______ ____
ROOT
ATOM      1  N   UNL     1      16.877  11.601  34.227  0.00  0.00    +0.000 NA
ATOM      2  C   UNL     1      15.815  11.261  33.347  0.00  0.00    +0.000 C 
ATOM      3  O   UNL     1      15.462  10.074  33.238  0.00  0.00    +0.000 OA
ENDROOT
BRANCH   2   4
ATOM      4  C   UNL     1      15.147  12.303  32.576  0.00  0.00    +0.000 A 
ATOM      5  C   UNL     1      15.336  12.375  31.219  0.00  0.00    +0.000 A 
ATOM      6  C   UNL     1      14.699  13.366  30.502  0.00  0.00    +0.000 A 
ATOM      7  C   UNL     1      13.873  14.281  31.169  0.00  0.00    +0.000 A 
ATOM      8  C   UNL     1      13.682  14.213  32.526  0.00  0.00    +0.000 A 
ATOM      9  C   UNL     1      14.339  13.201  33.219  0.00  0.00    +0.000 A 
ATOM     10  O   UNL     1      14.177  13.085  34.608  0.00  0.00    +0.000 OA
ENDBRANCH   2   4
BRANCH   1  11
ATOM     11  N   UNL     1      17.497  10.615  34.952  0.00  0.00    +0.000 NA
BRANCH  11  18
ATOM     12  C   UNL     1      19.614   9.585  36.138  0.00  0.00    +0.000 C 
ATOM     13  C   UNL     1      18.291   9.229  37.002  0.00  0.00    +0.000 C 
ATOM     14  C   UNL     1      18.697  10.279  38.213  0.00  0.00    +0.000 C 
ATOM     15  C   UNL     1      17.530  10.250  39.166  0.00  0.00    +0.000 C 
ATOM     16  C   UNL     1      16.208  10.352  38.439  0.00  0.00    +0.000 C 
ATOM     17  C   UNL     1      16.383  10.741  37.017  0.00  0.00    +0.000 C 
ATOM     18  C   UNL     1      17.344  10.253  36.274  0.00  0.00    +0.000 C 
ENDBRANCH  11  18
ENDBRANCH   1  11
TORSDOF 3
ENDMDL
MODEL 4
REMARK VINA RESULT:      -7.2      3.386      6.949
REMARK  Name = 
REMARK  3 active torsions:
REMARK  status: ('A' for Active; 'I' for Inactive)
REMARK    1  A    between atoms: C_7  and  N_8
REMARK    2  A    between atoms: N_8  and  N_9
REMARK    3  A    between atoms: C_10  and  C_12
REMARK                            x       y       z     vdW  Elec       q    Type
REMARK                         _______ _______ _______ _____ _____    ______ ____
ROOT
ATOM      1  N   UNL     1      16.434  11.455  34.479  0.00  0.00    +0.000 NA
ATOM      2  C   UNL     1      15.398  11.250  33.530  0.00  0.00    +0.000 C 
ATOM      3  O   UNL     1      14.898  10.119  33.399  0.00  0.00    +0.000 OA
ENDROOT
BRANCH   2   4
ATOM      4  C   UNL     1      14.928  12.363  32.714  0.00  0.00    +0.000 A 
ATOM      5  C   UNL     1      14.084  13.299  33.258  0.00  0.00    +0.000 A 
ATOM      6  C   UNL     1      13.645  14.346  32.476  0.00  0.00    +0.000 A 
ATOM      7  C   UNL     1      14.066  14.437  31.141  0.00  0.00    +0.000 A 
ATOM      8  C   UNL     1      14.910  13.503  30.593  0.00  0.00    +0.000 A 
ATOM      9  C   UNL     1      15.334  12.459  31.411  0.00  0.00    +0.000 A 
ATOM     10  O   UNL     1      16.197  11.478  30.902  0.00  0.00    +0.000 OA
ENDBRANCH   2   4
BRANCH   1  11
ATOM     11  N   UNL     1      16.868  10.403  35.246  0.00  0.00    +0.000 NA
BRANCH  11  18
ATOM     12  C   UNL     1      15.995  10.910  37.681  0.00  0.00    +0.000 C 
ATOM     13  C   UNL     1      17.607  11.071  37.647  0.00  0.00    +0.000 C 
ATOM     14  C   UNL     1      17.847   9.687  38.520  0.00  0.00    +0.000 C 
ATOM     15  C   UNL     1      19.342   9.501  38.556  0.00  0.00    +0.000 C 
ATOM     16  C   UNL     1      19.967   9.696  37.192  0.00  0.00    +0.000 C 
ATOM     17  C   UNL     1      18.947   9.736  36.115  0.00  0.00    +0.000 C 
ATOM     18  C   UNL     1      17.808  10.366  36.255  0.00  0.00    +0.000 C 
ENDBRANCH  11  18
ENDBRANCH   1  11
TORSDOF 3
ENDMDL
MODEL 5
REMARK VINA RESULT:      -6.9     28.480     30.892
REMARK  Name = 
REMARK  3 active torsions:
REMARK  status: ('A' for Active; 'I' for Inactive)
REMARK    1  A    between atoms: C_7  and  N_8
REMARK    2  A    between atoms: N_8  and  N_9
REMARK    3  A    between atoms: C_10  and  C_12
REMARK                            x       y       z     vdW  Elec       q    Type
REMARK                         _______ _______ _______ _____ _____    ______ ____
ROOT
ATOM      1  N   UNL     1      30.966  22.934  11.408  0.00  0.00    +0.000 NA
ATOM      2  C   UNL     1      30.040  22.225  12.218  0.00  0.00    +0.000 C 
ATOM      3  O   UNL     1      30.430  21.261  12.899  0.00  0.00    +0.000 OA
ENDROOT
BRANCH   2   4
ATOM      4  C   UNL     1      28.640  22.630  12.247  0.00  0.00    +0.000 A 
ATOM      5  C   UNL     1      27.769  22.144  11.304  0.00  0.00    +0.000 A 
ATOM      6  C   UNL     1      26.448  22.535  11.341  0.00  0.00    +0.000 A 
ATOM      7  C   UNL     1      26.016  23.422  12.338  0.00  0.00    +0.000 A 
ATOM      8  C   UNL     1      26.883  23.910  13.284  0.00  0.00    +0.000 A 
ATOM      9  C   UNL     1      28.210  23.494  13.217  0.00  0.00    +0.000 A 
ATOM     10  O   UNL     1      29.138  23.963  14.159  0.00  0.00    +0.000 OA
ENDBRANCH   2   4
BRANCH   1  11
ATOM     11  N   UNL     1      32.283  22.549  11.390  0.00  0.00    +0.000 NA
BRANCH  11  18
ATOM     12  C   UNL     1      33.800  20.463  11.937  0.00  0.00    +0.000 C 
ATOM     13  C   UNL     1      34.328  21.166  10.575  0.00  0.00    +0.000 C 
ATOM     14  C   UNL     1      33.774  19.932   9.624  0.00  0.00    +0.000 C 
ATOM     15  C   UNL     1      34.036  20.380   8.209  0.00  0.00    +0.000 C 
ATOM     16  C   UNL     1      33.601  21.811   7.983  0.00  0.00    +0.000 C 
ATOM     17  C   UNL     1      32.774  22.325   9.103  0.00  0.00    +0.000 C 
ATOM     18  C   UNL     1      33.054  22.063  10.354  0.00  0.00    +0.000 C 
ENDBRANCH  11  18
ENDBRANCH   1  11
TORSDOF 3
ENDMDL
MODEL 6
REMARK VINA RESULT:      -6.8     28.113     30.786
REMARK  Name = 
REMARK  3 active torsions:
REMARK  status: ('A' for Active; 'I' for Inactive)
REMARK    1  A    between atoms: C_7  and  N_8
REMARK    2  A    between atoms: N_8  and  N_9
REMARK    3  A    between atoms: C_10  and  C_12
REMARK                            x       y       z     vdW  Elec       q    Type
REMARK                         _______ _______ _______ _____ _____    ______ ____
ROOT
ATOM      1  N   UNL     1      30.158  20.804  10.868  0.00  0.00    +0.000 NA
ATOM      2  C   UNL     1      29.655  22.132  10.867  0.00  0.00    +0.000 C 
ATOM      3  O   UNL     1      30.230  23.008  10.197  0.00  0.00    +0.000 OA
ENDROOT
BRANCH   2   4
ATOM      4  C   UNL     1      28.471  22.462  11.650  0.00  0.00    +0.000 A 
ATOM      5  C   UNL     1      27.223  22.198  11.145  0.00  0.00    +0.000 A 
ATOM      6  C   UNL     1      26.111  22.517  11.895  0.00  0.00    +0.000 A 
ATOM      7  C   UNL     1      26.273  23.104  13.159  0.00  0.00    +0.000 A 
ATOM      8  C   UNL     1      27.519  23.369  13.668  0.00  0.00    +0.000 A 
ATOM      9  C   UNL     1      28.620  23.035  12.884  0.00  0.00    +0.000 A 
ATOM     10  O   UNL     1      29.917  23.285  13.357  0.00  0.00    +0.000 OA
ENDBRANCH   2   4
BRANCH   1  11
ATOM     11  N   UNL     1      31.271  20.501  10.124  0.00  0.00    +0.000 NA
BRANCH  11  18
ATOM     12  C   UNL     1      33.098  20.713   8.236  0.00  0.00    +0.000 C 
ATOM     13  C   UNL     1      33.737  19.951   9.515  0.00  0.00    +0.000 C 
ATOM     14  C   UNL     1      34.675  21.249   9.926  0.00  0.00    +0.000 C 
ATOM     15  C   UNL     1      35.341  20.859  11.220  0.00  0.00    +0.000 C 
ATOM     16  C   UNL     1      34.359  20.251  12.197  0.00  0.00    +0.000 C 
ATOM     17  C   UNL     1      32.952  20.447  11.765  0.00  0.00    +0.000 C 
ATOM     18  C   UNL     1      32.582  20.322  10.516  0.00  0.00    +0.000 C 
ENDBRANCH  11  18
ENDBRANCH   1  11
TORSDOF 3
ENDMDL
MODEL 7
REMARK VINA RESULT:      -6.8     28.540     31.090
REMARK  Name = 
REMARK  3 active torsions:
REMARK  status: ('A' for Active; 'I' for Inactive)
REMARK    1  A    between atoms: C_7  and  N_8
REMARK    2  A    between atoms: N_8  and  N_9
REMARK    3  A    between atoms: C_10  and  C_12
REMARK                            x       y       z     vdW  Elec       q    Type
REMARK                         _______ _______ _______ _____ _____    ______ ____
ROOT
ATOM      1  N   UNL     1      30.336  21.102  11.266  0.00  0.00    +0.000 NA
ATOM      2  C   UNL     1      31.398  21.622  10.479  0.00  0.00    +0.000 C 
ATOM      3  O   UNL     1      31.213  22.643   9.794  0.00  0.00    +0.000 OA
ENDROOT
BRANCH   2   4
ATOM      4  C   UNL     1      32.695  20.958  10.479  0.00  0.00    +0.000 A 
ATOM      5  C   UNL     1      33.488  21.008  11.598  0.00  0.00    +0.000 A 
ATOM      6  C   UNL     1      34.714  20.377  11.584  0.00  0.00    +0.000 A 
ATOM      7  C   UNL     1      35.130  19.697  10.430  0.00  0.00    +0.000 A 
ATOM      8  C   UNL     1      34.340  19.645   9.309  0.00  0.00    +0.000 A 
ATOM      9  C   UNL     1      33.109  20.293   9.357  0.00  0.00    +0.000 A 
ATOM     10  O   UNL     1      32.262  20.269   8.238  0.00  0.00    +0.000 OA
ENDBRANCH   2   4
BRANCH   1  11
ATOM     11  N   UNL     1      29.119  21.736  11.264  0.00  0.00    +0.000 NA
BRANCH  11  18
ATOM     12  C   UNL     1      26.526  22.204  11.169  0.00  0.00    +0.000 C 
ATOM     13  C   UNL     1      27.280  23.495  11.796  0.00  0.00    +0.000 C 
ATOM     14  C   UNL     1      26.702  23.198  13.316  0.00  0.00    +0.000 C 
ATOM     15  C   UNL     1      27.361  24.229  14.195  0.00  0.00    +0.000 C 
ATOM     16  C   UNL     1      28.844  24.339  13.918  0.00  0.00    +0.000 C 
ATOM     17  C   UNL     1      29.336  23.223  13.071  0.00  0.00    +0.000 C 
ATOM     18  C   UNL     1      28.653  22.770  12.050  0.00  0.00    +0.000 C 
ENDBRANCH  11  18
ENDBRANCH   1  11
TORSDOF 3
ENDMDL
MODEL 8
REMARK VINA RESULT:      -6.7      3.309      6.763
REMARK  Name = 
REMARK  3 active torsions:
REMARK  status: ('A' for Active; 'I' for Inactive)
REMARK    1  A    between atoms: C_7  and  N_8
REMARK    2  A    between atoms: N_8  and  N_9
REMARK    3  A    between atoms: C_10  and  C_12
REMARK                            x       y       z     vdW  Elec       q    Type
REMARK                         _______ _______ _______ _____ _____    ______ ____
ROOT
ATOM      1  N   UNL     1      16.632  12.483  35.868  0.00  0.00    +0.000 NA
ATOM      2  C   UNL     1      15.287  12.221  35.494  0.00  0.00    +0.000 C 
ATOM      3  O   UNL     1      14.508  11.711  36.317  0.00  0.00    +0.000 OA
ENDROOT
BRANCH   2   4
ATOM      4  C   UNL     1      14.829  12.549  34.150  0.00  0.00    +0.000 A 
ATOM      5  C   UNL     1      14.098  13.691  33.937  0.00  0.00    +0.000 A 
ATOM      6  C   UNL     1      13.670  13.989  32.661  0.00  0.00    +0.000 A 
ATOM      7  C   UNL     1      13.986  13.123  31.605  0.00  0.00    +0.000 A 
ATOM      8  C   UNL     1      14.717  11.980  31.812  0.00  0.00    +0.000 A 
ATOM      9  C   UNL     1      15.133  11.710  33.112  0.00  0.00    +0.000 A 
ATOM     10  O   UNL     1      15.884  10.555  33.380  0.00  0.00    +0.000 OA
ENDBRANCH   2   4
BRANCH   1  11
ATOM     11  N   UNL     1      17.054  12.175  37.137  0.00  0.00    +0.000 NA
BRANCH  11  18
ATOM     12  C   UNL     1      19.359  13.021  38.096  0.00  0.00    +0.000 C 
ATOM     13  C   UNL     1      19.478  11.447  37.730  0.00  0.00    +0.000 C 
ATOM     14  C   UNL     1      19.510  10.994  39.320  0.00  0.00    +0.000 C 
ATOM     15  C   UNL     1      19.503   9.487  39.300  0.00  0.00    +0.000 C 
ATOM     16  C   UNL     1      18.467   8.943  38.341  0.00  0.00    +0.000 C 
ATOM     17  C   UNL     1      17.529   9.996  37.879  0.00  0.00    +0.000 C 
ATOM     18  C   UNL     1      17.932  11.203  37.571  0.00  0.00    +0.000 C 
ENDBRANCH  11  18
ENDBRANCH   1  11
TORSDOF 3
ENDMDL
MODEL 9
REMARK VINA RESULT:      -6.6     28.592     31.121
REMARK  Name = 
REMARK  3 active torsions:
REMARK  status: ('A' for Active; 'I' for Inactive)
REMARK    1  A    between atoms: C_7  and  N_8
REMARK    2  A    between atoms: N_8  and  N_9
REMARK    3  A    between atoms: C_10  and  C_12
REMARK                            x       y       z     vdW  Elec       q    Type
REMARK                         _______ _______ _______ _____ _____    ______ ____
ROOT
ATOM      1  N   UNL     1      31.409  22.827  11.545  0.00  0.00    +0.000 NA
ATOM      2  C   UNL     1      30.524  22.253  12.495  0.00  0.00    +0.000 C 
ATOM      3  O   UNL     1      30.885  21.261  13.151  0.00  0.00    +0.000 OA
ENDROOT
BRANCH   2   4
ATOM      4  C   UNL     1      29.199  22.827  12.694  0.00  0.00    +0.000 A 
ATOM      5  C   UNL     1      28.963  23.642  13.773  0.00  0.00    +0.000 A 
ATOM      6  C   UNL     1      27.705  24.177  13.951  0.00  0.00    +0.000 A 
ATOM      7  C   UNL     1      26.690  23.882  13.030  0.00  0.00    +0.000 A 
ATOM      8  C   UNL     1      26.922  23.068  11.949  0.00  0.00    +0.000 A 
ATOM      9  C   UNL     1      28.203  22.544  11.800  0.00  0.00    +0.000 A 
ATOM     10  O   UNL     1      28.493  21.707  10.712  0.00  0.00    +0.000 OA
ENDBRANCH   2   4
BRANCH   1  11
ATOM     11  N   UNL     1      32.657  22.284  11.366  0.00  0.00    +0.000 NA
BRANCH  11  18
ATOM     12  C   UNL     1      34.699  23.451  10.177  0.00  0.00    +0.000 C 
ATOM     13  C   UNL     1      34.067  22.338   9.183  0.00  0.00    +0.000 C 
ATOM     14  C   UNL     1      35.354  21.318   9.371  0.00  0.00    +0.000 C 
ATOM     15  C   UNL     1      34.982  20.072   8.610  0.00  0.00    +0.000 C 
ATOM     16  C   UNL     1      33.569  19.628   8.915  0.00  0.00    +0.000 C 
ATOM     17  C   UNL     1      33.001  20.344  10.085  0.00  0.00    +0.000 C 
ATOM     18  C   UNL     1      33.193  21.624  10.279  0.00  0.00    +0.000 C 
ENDBRANCH  11  18
ENDBRANCH   1  11
TORSDOF 3
ENDMDL
MODEL 10
REMARK VINA RESULT:      -6.6     28.526     31.257
REMARK  Name = 
REMARK  3 active torsions:
REMARK  status: ('A' for Active; 'I' for Inactive)
REMARK    1  A    between atoms: C_7  and  N_8
REMARK    2  A    between atoms: N_8  and  N_9
REMARK    3  A    between atoms: C_10  and  C_12
REMARK                            x       y       z     vdW  Elec       q    Type
REMARK                         _______ _______ _______ _____ _____    ______ ____
ROOT
ATOM      1  N   UNL     1      30.418  22.588  10.170  0.00  0.00    +0.000 NA
ATOM      2  C   UNL     1      29.894  21.971  11.337  0.00  0.00    +0.000 C 
ATOM      3  O   UNL     1      30.190  20.791  11.595  0.00  0.00    +0.000 OA
ENDROOT
BRANCH   2   4
ATOM      4  C   UNL     1      29.012  22.720  12.223  0.00  0.00    +0.000 A 
ATOM      5  C   UNL     1      29.539  23.420  13.279  0.00  0.00    +0.000 A 
ATOM      6  C   UNL     1      28.694  24.124  14.111  0.00  0.00    +0.000 A 
ATOM      7  C   UNL     1      27.314  24.113  13.865  0.00  0.00    +0.000 A 
ATOM      8  C   UNL     1      26.782  23.415  12.810  0.00  0.00    +0.000 A 
ATOM      9  C   UNL     1      27.663  22.715  11.990  0.00  0.00    +0.000 A 
ATOM     10  O   UNL     1      27.172  21.986  10.897  0.00  0.00    +0.000 OA
ENDBRANCH   2   4
BRANCH   1  11
ATOM     11  N   UNL     1      31.251  21.877   9.344  0.00  0.00    +0.000 NA
BRANCH  11  18
ATOM     12  C   UNL     1      32.810  22.598   7.344  0.00  0.00    +0.000 C 
ATOM     13  C   UNL     1      31.477  21.890   6.754  0.00  0.00    +0.000 C 
ATOM     14  C   UNL     1      32.299  20.531   6.298  0.00  0.00    +0.000 C 
ATOM     15  C   UNL     1      31.242  19.585   5.788  0.00  0.00    +0.000 C 
ATOM     16  C   UNL     1      30.052  19.517   6.720  0.00  0.00    +0.000 C 
ATOM     17  C   UNL     1      30.332  20.160   8.028  0.00  0.00    +0.000 C 
ATOM     18  C   UNL     1      30.999  21.282   8.124  0.00  0.00    +0.000 C 
ENDBRANCH  11  18
ENDBRANCH   1  11
TORSDOF 3
ENDMDL
