MODEL 1
REMARK VINA RESULT:      -8.0      0.000      0.000
REMARK  Name = 
REMARK  9 active torsions:
REMARK  status: ('A' for Active; 'I' for Inactive)
REMARK    1  A    between atoms: C_11  and  C_13
REMARK    2  A    between atoms: C_13  and  O_15
REMARK    3  A    between atoms: C_17  and  C_18
REMARK    4  A    between atoms: C_18  and  C_19
REMARK    5  A    between atoms: C_19  and  C_20
REMARK    6  A    between atoms: C_24  and  C_25
REMARK    7  A    between atoms: C_25  and  N_26
REMARK    8  A    between atoms: N_26  and  C_27
REMARK    9  A    between atoms: C_27  and  C_28
REMARK                            x       y       z     vdW  Elec       q    Type
REMARK                         _______ _______ _______ _____ _____    ______ ____
ROOT
ATOM      1  C   UNL     1      39.629  -2.557  12.404  0.00  0.00    +0.000 C 
ATOM      2  C   UNL     1      39.249  -1.978  13.522  0.00  0.00    +0.000 C 
ATOM      3  C   UNL     1      40.117  -1.803  14.703  0.00  0.00    +0.000 C 
ATOM      4  C   UNL     1      39.530  -2.545  15.854  0.00  0.00    +0.000 C 
ATOM      5  C   UNL     1      38.144  -1.728  16.126  0.00  0.00    +0.000 C 
ATOM      6  C   UNL     1      37.328  -2.423  14.898  0.00  0.00    +0.000 C 
ATOM      7  C   UNL     1      37.730  -3.773  14.683  0.00  0.00    +0.000 C 
ATOM      8  C   UNL     1      35.887  -2.073  15.017  0.00  0.00    +0.000 C 
ATOM      9  C   UNL     1      35.285  -2.897  16.149  0.00  0.00    +0.000 C 
ATOM     10  C   UNL     1      36.080  -2.500  17.362  0.00  0.00    +0.000 C 
ATOM     11  C   UNL     1      37.545  -2.711  17.267  0.00  0.00    +0.000 C 
ATOM     12  C   UNL     1      38.152  -2.057  18.528  0.00  0.00    +0.000 C 
ATOM     13  C   UNL     1      37.754  -1.528  13.623  0.00  0.00    +0.000 C 
ENDROOT
BRANCH  11  14
ATOM     14  C   UNL     1      38.021  -4.048  17.165  0.00  0.00    +0.000 C 
ATOM     15  O   UNL     1      39.208  -4.228  17.538  0.00  0.00    +0.000 OA
BRANCH  14  16
ATOM     16  O   UNL     1      37.320  -5.135  16.711  0.00  0.00    +0.000 OA
ATOM     17  C   UNL     1      37.391  -6.416  17.261  0.00  0.00    +0.000 C 
ENDBRANCH  14  16
ENDBRANCH  11  14
BRANCH  13  18
ATOM     18  C   UNL     1      37.768  -0.105  14.251  0.00  0.00    +0.000 C 
BRANCH  18  19
ATOM     19  C   UNL     1      36.782   0.856  13.888  0.00  0.00    +0.000 C 
BRANCH  19  20
ATOM     20  C   UNL     1      36.034   1.634  14.797  0.00  0.00    +0.000 A 
ATOM     21  C   UNL     1      35.264   1.178  15.893  0.00  0.00    +0.000 A 
ATOM     22  C   UNL     1      34.746   2.239  16.496  0.00  0.00    +0.000 A 
ATOM     23  O   UNL     1      35.108   3.340  15.855  0.00  0.00    +0.000 OA
ATOM     24  C   UNL     1      35.873   2.968  14.840  0.00  0.00    +0.000 A 
BRANCH  24  25
ATOM     25  C   UNL     1      36.512   3.919  13.848  0.00  0.00    +0.000 C 
BRANCH  25  26
ATOM     26  N   UNL     1      37.361   4.632  14.820  0.00  0.00    +0.000 NA
BRANCH  26  27
ATOM     27  C   UNL     1      38.677   4.045  14.785  0.00  0.00    +0.000 C 
BRANCH  27  28
ATOM     28  C   UNL     1      39.104   4.708  16.137  0.00  0.00    +0.000 A 
ATOM     29  C   UNL     1      40.056   5.574  16.229  0.00  0.00    +0.000 A 
ATOM     30  C   UNL     1      40.478   6.240  17.365  0.00  0.00    +0.000 A 
ATOM     31  C   UNL     1      39.663   5.808  18.505  0.00  0.00    +0.000 A 
ATOM     32  C   UNL     1      38.714   4.911  18.381  0.00  0.00    +0.000 A 
ATOM     33  C   UNL     1      38.286   4.217  17.193  0.00  0.00    +0.000 A 
ENDBRANCH  27  28
ENDBRANCH  26  27
ENDBRANCH  25  26
ENDBRANCH  24  25
ENDBRANCH  19  20
ENDBRANCH  18  19
ENDBRANCH  13  18
TORSDOF 9
ENDMDL
MODEL 2
REMARK VINA RESULT:      -7.7      2.598      5.837
REMARK  Name = 
REMARK  9 active torsions:
REMARK  status: ('A' for Active; 'I' for Inactive)
REMARK    1  A    between atoms: C_11  and  C_13
REMARK    2  A    between atoms: C_13  and  O_15
REMARK    3  A    between atoms: C_17  and  C_18
REMARK    4  A    between atoms: C_18  and  C_19
REMARK    5  A    between atoms: C_19  and  C_20
REMARK    6  A    between atoms: C_24  and  C_25
REMARK    7  A    between atoms: C_25  and  N_26
REMARK    8  A    between atoms: N_26  and  C_27
REMARK    9  A    between atoms: C_27  and  C_28
REMARK                            x       y       z     vdW  Elec       q    Type
REMARK                         _______ _______ _______ _____ _____    ______ ____
ROOT
ATOM      1  C   UNL     1      36.517   0.515  11.935  0.00  0.00    +0.000 C 
ATOM      2  C   UNL     1      37.695   0.716  12.486  0.00  0.00    +0.000 C 
ATOM      3  C   UNL     1      38.878   1.215  11.758  0.00  0.00    +0.000 C 
ATOM      4  C   UNL     1      39.950   0.181  11.804  0.00  0.00    +0.000 C 
ATOM      5  C   UNL     1      40.323   0.134  13.391  0.00  0.00    +0.000 C 
ATOM      6  C   UNL     1      39.037  -0.777  13.810  0.00  0.00    +0.000 C 
ATOM      7  C   UNL     1      38.675  -1.698  12.785  0.00  0.00    +0.000 C 
ATOM      8  C   UNL     1      39.208  -1.237  15.214  0.00  0.00    +0.000 C 
ATOM      9  C   UNL     1      40.252  -2.347  15.232  0.00  0.00    +0.000 C 
ATOM     10  C   UNL     1      41.492  -1.699  14.679  0.00  0.00    +0.000 C 
ATOM     11  C   UNL     1      41.359  -1.111  13.323  0.00  0.00    +0.000 C 
ATOM     12  C   UNL     1      42.676  -0.347  13.061  0.00  0.00    +0.000 C 
ATOM     13  C   UNL     1      37.859   0.313  13.989  0.00  0.00    +0.000 C 
ENDROOT
BRANCH  11  14
ATOM     14  C   UNL     1      41.110  -1.992  12.235  0.00  0.00    +0.000 C 
ATOM     15  O   UNL     1      40.953  -3.200  12.545  0.00  0.00    +0.000 OA
BRANCH  14  16
ATOM     16  O   UNL     1      41.025  -1.654  10.910  0.00  0.00    +0.000 OA
ATOM     17  C   UNL     1      40.943  -2.567   9.857  0.00  0.00    +0.000 C 
ENDBRANCH  14  16
ENDBRANCH  11  14
BRANCH  13  18
ATOM     18  C   UNL     1      38.635   1.478  14.669  0.00  0.00    +0.000 C 
BRANCH  18  19
ATOM     19  C   UNL     1      37.940   2.462  15.429  0.00  0.00    +0.000 C 
BRANCH  19  20
ATOM     20  C   UNL     1      36.536   2.573  15.521  0.00  0.00    +0.000 A 
ATOM     21  C   UNL     1      35.669   3.293  14.667  0.00  0.00    +0.000 A 
ATOM     22  C   UNL     1      34.429   3.112  15.098  0.00  0.00    +0.000 A 
ATOM     23  O   UNL     1      34.437   2.348  16.179  0.00  0.00    +0.000 OA
ATOM     24  C   UNL     1      35.700   2.035  16.427  0.00  0.00    +0.000 A 
BRANCH  24  25
ATOM     25  C   UNL     1      36.163   1.162  17.576  0.00  0.00    +0.000 C 
BRANCH  25  26
ATOM     26  N   UNL     1      35.858  -0.132  16.939  0.00  0.00    +0.000 NA
BRANCH  26  27
ATOM     27  C   UNL     1      36.050  -1.173  17.918  0.00  0.00    +0.000 C 
BRANCH  27  28
ATOM     28  C   UNL     1      36.220  -2.285  16.831  0.00  0.00    +0.000 A 
ATOM     29  C   UNL     1      35.666  -2.225  15.667  0.00  0.00    +0.000 A 
ATOM     30  C   UNL     1      35.787  -3.133  14.632  0.00  0.00    +0.000 A 
ATOM     31  C   UNL     1      36.670  -4.226  15.053  0.00  0.00    +0.000 A 
ATOM     32  C   UNL     1      37.203  -4.267  16.251  0.00  0.00    +0.000 A 
ATOM     33  C   UNL     1      37.064  -3.318  17.327  0.00  0.00    +0.000 A 
ENDBRANCH  27  28
ENDBRANCH  26  27
ENDBRANCH  25  26
ENDBRANCH  24  25
ENDBRANCH  19  20
ENDBRANCH  18  19
ENDBRANCH  13  18
TORSDOF 9
ENDMDL
MODEL 3
REMARK VINA RESULT:      -7.7      2.610      4.571
REMARK  Name = 
REMARK  9 active torsions:
REMARK  status: ('A' for Active; 'I' for Inactive)
REMARK    1  A    between atoms: C_11  and  C_13
REMARK    2  A    between atoms: C_13  and  O_15
REMARK    3  A    between atoms: C_17  and  C_18
REMARK    4  A    between atoms: C_18  and  C_19
REMARK    5  A    between atoms: C_19  and  C_20
REMARK    6  A    between atoms: C_24  and  C_25
REMARK    7  A    between atoms: C_25  and  N_26
REMARK    8  A    between atoms: N_26  and  C_27
REMARK    9  A    between atoms: C_27  and  C_28
REMARK                            x       y       z     vdW  Elec       q    Type
REMARK                         _______ _______ _______ _____ _____    ______ ____
ROOT
ATOM      1  C   UNL     1      39.343  -2.905  16.217  0.00  0.00    +0.000 C 
ATOM      2  C   UNL     1      38.985  -2.218  15.152  0.00  0.00    +0.000 C 
ATOM      3  C   UNL     1      38.696  -2.820  13.836  0.00  0.00    +0.000 C 
ATOM      4  C   UNL     1      39.667  -2.291  12.835  0.00  0.00    +0.000 C 
ATOM      5  C   UNL     1      39.267  -0.711  12.763  0.00  0.00    +0.000 C 
ATOM      6  C   UNL     1      40.037  -0.307  14.142  0.00  0.00    +0.000 C 
ATOM      7  C   UNL     1      41.211  -1.088  14.349  0.00  0.00    +0.000 C 
ATOM      8  C   UNL     1      40.087   1.175  14.251  0.00  0.00    +0.000 C 
ATOM      9  C   UNL     1      41.138   1.694  13.276  0.00  0.00    +0.000 C 
ATOM     10  C   UNL     1      40.658   1.227  11.929  0.00  0.00    +0.000 C 
ATOM     11  C   UNL     1      40.471  -0.238  11.786  0.00  0.00    +0.000 C 
ATOM     12  C   UNL     1      39.798  -0.447  10.411  0.00  0.00    +0.000 C 
ATOM     13  C   UNL     1      38.952  -0.660  15.284  0.00  0.00    +0.000 C 
ENDROOT
BRANCH  11  14
ATOM     14  C   UNL     1      41.623  -1.068  11.869  0.00  0.00    +0.000 C 
ATOM     15  O   UNL     1      42.685  -0.484  12.204  0.00  0.00    +0.000 OA
BRANCH  14  16
ATOM     16  O   UNL     1      41.681  -2.415  11.626  0.00  0.00    +0.000 OA
ATOM     17  C   UNL     1      42.854  -3.172  11.603  0.00  0.00    +0.000 C 
ENDBRANCH  14  16
ENDBRANCH  11  14
BRANCH  13  18
ATOM     18  C   UNL     1      37.637  -0.193  14.596  0.00  0.00    +0.000 C 
BRANCH  18  19
ATOM     19  C   UNL     1      36.382  -0.354  15.252  0.00  0.00    +0.000 C 
BRANCH  19  20
ATOM     20  C   UNL     1      36.168  -0.209  16.640  0.00  0.00    +0.000 A 
ATOM     21  C   UNL     1      36.244  -1.211  17.634  0.00  0.00    +0.000 A 
ATOM     22  C   UNL     1      35.995  -0.643  18.805  0.00  0.00    +0.000 A 
ATOM     23  O   UNL     1      35.743   0.645  18.633  0.00  0.00    +0.000 OA
ATOM     24  C   UNL     1      35.844   0.895  17.337  0.00  0.00    +0.000 A 
BRANCH  24  25
ATOM     25  C   UNL     1      35.640   2.255  16.701  0.00  0.00    +0.000 C 
BRANCH  25  26
ATOM     26  N   UNL     1      36.982   2.786  17.004  0.00  0.00    +0.000 NA
BRANCH  26  27
ATOM     27  C   UNL     1      37.520   3.366  15.799  0.00  0.00    +0.000 C 
BRANCH  27  28
ATOM     28  C   UNL     1      38.444   4.355  16.584  0.00  0.00    +0.000 A 
ATOM     29  C   UNL     1      38.323   4.582  17.848  0.00  0.00    +0.000 A 
ATOM     30  C   UNL     1      39.110   5.404  18.633  0.00  0.00    +0.000 A 
ATOM     31  C   UNL     1      40.149   6.014  17.797  0.00  0.00    +0.000 A 
ATOM     32  C   UNL     1      40.234   5.777  16.509  0.00  0.00    +0.000 A 
ATOM     33  C   UNL     1      39.402   4.925  15.698  0.00  0.00    +0.000 A 
ENDBRANCH  27  28
ENDBRANCH  26  27
ENDBRANCH  25  26
ENDBRANCH  24  25
ENDBRANCH  19  20
ENDBRANCH  18  19
ENDBRANCH  13  18
TORSDOF 9
ENDMDL
MODEL 4
REMARK VINA RESULT:      -7.7      1.354      2.100
REMARK  Name = 
REMARK  9 active torsions:
REMARK  status: ('A' for Active; 'I' for Inactive)
REMARK    1  A    between atoms: C_11  and  C_13
REMARK    2  A    between atoms: C_13  and  O_15
REMARK    3  A    between atoms: C_17  and  C_18
REMARK    4  A    between atoms: C_18  and  C_19
REMARK    5  A    between atoms: C_19  and  C_20
REMARK    6  A    between atoms: C_24  and  C_25
REMARK    7  A    between atoms: C_25  and  N_26
REMARK    8  A    between atoms: N_26  and  C_27
REMARK    9  A    between atoms: C_27  and  C_28
REMARK                            x       y       z     vdW  Elec       q    Type
REMARK                         _______ _______ _______ _____ _____    ______ ____
ROOT
ATOM      1  C   UNL     1      39.229  -1.963  12.574  0.00  0.00    +0.000 C 
ATOM      2  C   UNL     1      39.193  -1.503  13.806  0.00  0.00    +0.000 C 
ATOM      3  C   UNL     1      39.990  -2.052  14.921  0.00  0.00    +0.000 C 
ATOM      4  C   UNL     1      39.068  -2.577  15.967  0.00  0.00    +0.000 C 
ATOM      5  C   UNL     1      38.333  -1.220  16.498  0.00  0.00    +0.000 C 
ATOM      6  C   UNL     1      37.302  -1.117  15.240  0.00  0.00    +0.000 C 
ATOM      7  C   UNL     1      36.919  -2.401  14.754  0.00  0.00    +0.000 C 
ATOM      8  C   UNL     1      36.273  -0.086  15.542  0.00  0.00    +0.000 C 
ATOM      9  C   UNL     1      35.295  -0.666  16.556  0.00  0.00    +0.000 C 
ATOM     10  C   UNL     1      36.149  -1.000  17.748  0.00  0.00    +0.000 C 
ATOM     11  C   UNL     1      37.272  -1.935  17.492  0.00  0.00    +0.000 C 
ATOM     12  C   UNL     1      38.104  -1.966  18.793  0.00  0.00    +0.000 C 
ATOM     13  C   UNL     1      38.173  -0.357  14.113  0.00  0.00    +0.000 C 
ENDROOT
BRANCH  11  14
ATOM     14  C   UNL     1      36.956  -3.269  17.113  0.00  0.00    +0.000 C 
ATOM     15  O   UNL     1      35.739  -3.491  16.886  0.00  0.00    +0.000 OA
BRANCH  14  16
ATOM     16  O   UNL     1      37.834  -4.311  16.972  0.00  0.00    +0.000 OA
ATOM     17  C   UNL     1      37.476  -5.660  16.948  0.00  0.00    +0.000 C 
ENDBRANCH  14  16
ENDBRANCH  11  14
BRANCH  13  18
ATOM     18  C   UNL     1      38.936   0.684  14.981  0.00  0.00    +0.000 C 
BRANCH  18  19
ATOM     19  C   UNL     1      39.052   2.037  14.551  0.00  0.00    +0.000 C 
BRANCH  19  20
ATOM     20  C   UNL     1      37.969   2.916  14.337  0.00  0.00    +0.000 A 
ATOM     21  C   UNL     1      37.375   3.270  13.103  0.00  0.00    +0.000 A 
ATOM     22  C   UNL     1      36.375   4.102  13.356  0.00  0.00    +0.000 A 
ATOM     23  O   UNL     1      36.297   4.326  14.658  0.00  0.00    +0.000 OA
ATOM     24  C   UNL     1      37.255   3.618  15.235  0.00  0.00    +0.000 A 
BRANCH  24  25
ATOM     25  C   UNL     1      37.519   3.577  16.727  0.00  0.00    +0.000 C 
BRANCH  25  26
ATOM     26  N   UNL     1      38.752   4.384  16.704  0.00  0.00    +0.000 NA
BRANCH  26  27
ATOM     27  C   UNL     1      38.398   5.756  16.969  0.00  0.00    +0.000 C 
BRANCH  27  28
ATOM     28  C   UNL     1      39.690   6.016  17.814  0.00  0.00    +0.000 A 
ATOM     29  C   UNL     1      40.852   6.208  17.287  0.00  0.00    +0.000 A 
ATOM     30  C   UNL     1      42.037   6.483  17.943  0.00  0.00    +0.000 A 
ATOM     31  C   UNL     1      41.786   6.527  19.387  0.00  0.00    +0.000 A 
ATOM     32  C   UNL     1      40.595   6.309  19.893  0.00  0.00    +0.000 A 
ATOM     33  C   UNL     1      39.367   6.015  19.200  0.00  0.00    +0.000 A 
ENDBRANCH  27  28
ENDBRANCH  26  27
ENDBRANCH  25  26
ENDBRANCH  24  25
ENDBRANCH  19  20
ENDBRANCH  18  19
ENDBRANCH  13  18
TORSDOF 9
ENDMDL
MODEL 5
REMARK VINA RESULT:      -7.7      2.565      4.940
REMARK  Name = 
REMARK  9 active torsions:
REMARK  status: ('A' for Active; 'I' for Inactive)
REMARK    1  A    between atoms: C_11  and  C_13
REMARK    2  A    between atoms: C_13  and  O_15
REMARK    3  A    between atoms: C_17  and  C_18
REMARK    4  A    between atoms: C_18  and  C_19
REMARK    5  A    between atoms: C_19  and  C_20
REMARK    6  A    between atoms: C_24  and  C_25
REMARK    7  A    between atoms: C_25  and  N_26
REMARK    8  A    between atoms: N_26  and  C_27
REMARK    9  A    between atoms: C_27  and  C_28
REMARK                            x       y       z     vdW  Elec       q    Type
REMARK                         _______ _______ _______ _____ _____    ______ ____
ROOT
ATOM      1  C   UNL     1      38.814  -3.778  16.163  0.00  0.00    +0.000 C 
ATOM      2  C   UNL     1      38.689  -2.854  15.236  0.00  0.00    +0.000 C 
ATOM      3  C   UNL     1      38.127  -3.095  13.893  0.00  0.00    +0.000 C 
ATOM      4  C   UNL     1      39.172  -2.813  12.869  0.00  0.00    +0.000 C 
ATOM      5  C   UNL     1      39.399  -1.206  13.035  0.00  0.00    +0.000 C 
ATOM      6  C   UNL     1      40.335  -1.332  14.364  0.00  0.00    +0.000 C 
ATOM      7  C   UNL     1      41.133  -2.513  14.347  0.00  0.00    +0.000 C 
ATOM      8  C   UNL     1      40.950  -0.009  14.649  0.00  0.00    +0.000 C 
ATOM      9  C   UNL     1      42.067   0.230  13.640  0.00  0.00    +0.000 C 
ATOM     10  C   UNL     1      41.377   0.187  12.304  0.00  0.00    +0.000 C 
ATOM     11  C   UNL     1      40.641  -1.065  12.002  0.00  0.00    +0.000 C 
ATOM     12  C   UNL     1      39.869  -0.797  10.691  0.00  0.00    +0.000 C 
ATOM     13  C   UNL     1      39.257  -1.432  15.562  0.00  0.00    +0.000 C 
ENDROOT
BRANCH  11  14
ATOM     14  C   UNL     1      41.394  -2.264  11.859  0.00  0.00    +0.000 C 
ATOM     15  O   UNL     1      40.828  -3.181  11.212  0.00  0.00    +0.000 OA
BRANCH  14  16
ATOM     16  O   UNL     1      42.651  -2.504  12.347  0.00  0.00    +0.000 OA
ATOM     17  C   UNL     1      43.820  -2.492  11.582  0.00  0.00    +0.000 C 
ENDBRANCH  14  16
ENDBRANCH  11  14
BRANCH  13  18
ATOM     18  C   UNL     1      38.184  -0.414  15.080  0.00  0.00    +0.000 C 
BRANCH  18  19
ATOM     19  C   UNL     1      36.849  -0.484  15.572  0.00  0.00    +0.000 C 
BRANCH  19  20
ATOM     20  C   UNL     1      36.474  -0.336  16.925  0.00  0.00    +0.000 A 
ATOM     21  C   UNL     1      36.954  -1.064  18.037  0.00  0.00    +0.000 A 
ATOM     22  C   UNL     1      36.358  -0.590  19.123  0.00  0.00    +0.000 A 
ATOM     23  O   UNL     1      35.514   0.373  18.785  0.00  0.00    +0.000 OA
ATOM     24  C   UNL     1      35.587   0.515  17.471  0.00  0.00    +0.000 A 
BRANCH  24  25
ATOM     25  C   UNL     1      34.789   1.521  16.666  0.00  0.00    +0.000 C 
BRANCH  25  26
ATOM     26  N   UNL     1      35.828   2.567  16.626  0.00  0.00    +0.000 NA
BRANCH  26  27
ATOM     27  C   UNL     1      35.509   3.478  15.555  0.00  0.00    +0.000 C 
BRANCH  27  28
ATOM     28  C   UNL     1      36.841   3.183  14.790  0.00  0.00    +0.000 A 
ATOM     29  C   UNL     1      36.877   2.753  13.574  0.00  0.00    +0.000 A 
ATOM     30  C   UNL     1      37.997   2.501  12.804  0.00  0.00    +0.000 A 
ATOM     31  C   UNL     1      39.197   2.800  13.593  0.00  0.00    +0.000 A 
ATOM     32  C   UNL     1      39.127   3.218  14.834  0.00  0.00    +0.000 A 
ATOM     33  C   UNL     1      37.953   3.470  15.631  0.00  0.00    +0.000 A 
ENDBRANCH  27  28
ENDBRANCH  26  27
ENDBRANCH  25  26
ENDBRANCH  24  25
ENDBRANCH  19  20
ENDBRANCH  18  19
ENDBRANCH  13  18
TORSDOF 9
ENDMDL
MODEL 6
REMARK VINA RESULT:      -7.5      3.484      9.726
REMARK  Name = 
REMARK  9 active torsions:
REMARK  status: ('A' for Active; 'I' for Inactive)
REMARK    1  A    between atoms: C_11  and  C_13
REMARK    2  A    between atoms: C_13  and  O_15
REMARK    3  A    between atoms: C_17  and  C_18
REMARK    4  A    between atoms: C_18  and  C_19
REMARK    5  A    between atoms: C_19  and  C_20
REMARK    6  A    between atoms: C_24  and  C_25
REMARK    7  A    between atoms: C_25  and  N_26
REMARK    8  A    between atoms: N_26  and  C_27
REMARK    9  A    between atoms: C_27  and  C_28
REMARK                            x       y       z     vdW  Elec       q    Type
REMARK                         _______ _______ _______ _____ _____    ______ ____
ROOT
ATOM      1  C   UNL     1      37.534   8.552  18.451  0.00  0.00    +0.000 C 
ATOM      2  C   UNL     1      38.421   7.678  18.876  0.00  0.00    +0.000 C 
ATOM      3  C   UNL     1      38.836   7.536  20.285  0.00  0.00    +0.000 C 
ATOM      4  C   UNL     1      40.293   7.831  20.396  0.00  0.00    +0.000 C 
ATOM      5  C   UNL     1      40.962   6.607  19.550  0.00  0.00    +0.000 C 
ATOM      6  C   UNL     1      40.654   7.259  18.089  0.00  0.00    +0.000 C 
ATOM      7  C   UNL     1      40.720   8.683  18.112  0.00  0.00    +0.000 C 
ATOM      8  C   UNL     1      41.386   6.486  17.050  0.00  0.00    +0.000 C 
ATOM      9  C   UNL     1      42.862   6.857  17.127  0.00  0.00    +0.000 C 
ATOM     10  C   UNL     1      43.269   6.479  18.525  0.00  0.00    +0.000 C 
ATOM     11  C   UNL     1      42.497   7.126  19.615  0.00  0.00    +0.000 C 
ATOM     12  C   UNL     1      42.955   6.443  20.922  0.00  0.00    +0.000 C 
ATOM     13  C   UNL     1      39.134   6.799  17.796  0.00  0.00    +0.000 C 
ENDROOT
BRANCH  11  14
ATOM     14  C   UNL     1      42.608   8.536  19.765  0.00  0.00    +0.000 C 
ATOM     15  O   UNL     1      42.300   8.983  20.899  0.00  0.00    +0.000 OA
BRANCH  14  16
ATOM     16  O   UNL     1      43.015   9.432  18.811  0.00  0.00    +0.000 OA
ATOM     17  C   UNL     1      43.971  10.430  19.009  0.00  0.00    +0.000 C 
ENDBRANCH  14  16
ENDBRANCH  11  14
BRANCH  13  18
ATOM     18  C   UNL     1      39.151   5.348  18.357  0.00  0.00    +0.000 C 
BRANCH  18  19
ATOM     19  C   UNL     1      38.205   4.386  17.902  0.00  0.00    +0.000 C 
BRANCH  19  20
ATOM     20  C   UNL     1      38.131   3.880  16.586  0.00  0.00    +0.000 A 
ATOM     21  C   UNL     1      39.022   4.128  15.516  0.00  0.00    +0.000 A 
ATOM     22  C   UNL     1      38.597   3.440  14.465  0.00  0.00    +0.000 A 
ATOM     23  O   UNL     1      37.488   2.788  14.775  0.00  0.00    +0.000 OA
ATOM     24  C   UNL     1      37.215   3.060  16.042  0.00  0.00    +0.000 A 
BRANCH  24  25
ATOM     25  C   UNL     1      36.028   2.509  16.807  0.00  0.00    +0.000 C 
BRANCH  25  26
ATOM     26  N   UNL     1      36.475   1.103  16.821  0.00  0.00    +0.000 NA
BRANCH  26  27
ATOM     27  C   UNL     1      35.981   0.486  18.027  0.00  0.00    +0.000 C 
BRANCH  27  28
ATOM     28  C   UNL     1      36.954  -0.733  17.905  0.00  0.00    +0.000 A 
ATOM     29  C   UNL     1      37.475  -1.112  16.786  0.00  0.00    +0.000 A 
ATOM     30  C   UNL     1      38.370  -2.146  16.584  0.00  0.00    +0.000 A 
ATOM     31  C   UNL     1      38.661  -2.786  17.871  0.00  0.00    +0.000 A 
ATOM     32  C   UNL     1      38.101  -2.389  18.989  0.00  0.00    +0.000 A 
ATOM     33  C   UNL     1      37.162  -1.314  19.188  0.00  0.00    +0.000 A 
ENDBRANCH  27  28
ENDBRANCH  26  27
ENDBRANCH  25  26
ENDBRANCH  24  25
ENDBRANCH  19  20
ENDBRANCH  18  19
ENDBRANCH  13  18
TORSDOF 9
ENDMDL
MODEL 7
REMARK VINA RESULT:      -7.5      2.477      4.079
REMARK  Name = 
REMARK  9 active torsions:
REMARK  status: ('A' for Active; 'I' for Inactive)
REMARK    1  A    between atoms: C_11  and  C_13
REMARK    2  A    between atoms: C_13  and  O_15
REMARK    3  A    between atoms: C_17  and  C_18
REMARK    4  A    between atoms: C_18  and  C_19
REMARK    5  A    between atoms: C_19  and  C_20
REMARK    6  A    between atoms: C_24  and  C_25
REMARK    7  A    between atoms: C_25  and  N_26
REMARK    8  A    between atoms: N_26  and  C_27
REMARK    9  A    between atoms: C_27  and  C_28
REMARK                            x       y       z     vdW  Elec       q    Type
REMARK                         _______ _______ _______ _____ _____    ______ ____
ROOT
ATOM      1  C   UNL     1      41.674  -2.165  14.595  0.00  0.00    +0.000 C 
ATOM      2  C   UNL     1      40.465  -1.703  14.362  0.00  0.00    +0.000 C 
ATOM      3  C   UNL     1      39.922  -0.463  14.949  0.00  0.00    +0.000 C 
ATOM      4  C   UNL     1      38.738  -0.799  15.789  0.00  0.00    +0.000 C 
ATOM      5  C   UNL     1      37.667  -1.339  14.683  0.00  0.00    +0.000 C 
ATOM      6  C   UNL     1      38.341  -2.817  14.543  0.00  0.00    +0.000 C 
ATOM      7  C   UNL     1      38.903  -3.268  15.773  0.00  0.00    +0.000 C 
ATOM      8  C   UNL     1      37.427  -3.694  13.765  0.00  0.00    +0.000 C 
ATOM      9  C   UNL     1      36.261  -4.090  14.662  0.00  0.00    +0.000 C 
ATOM     10  C   UNL     1      35.624  -2.782  15.044  0.00  0.00    +0.000 C 
ATOM     11  C   UNL     1      36.515  -1.808  15.722  0.00  0.00    +0.000 C 
ATOM     12  C   UNL     1      35.705  -0.497  15.832  0.00  0.00    +0.000 C 
ATOM     13  C   UNL     1      39.524  -2.580  13.470  0.00  0.00    +0.000 C 
ENDROOT
BRANCH  11  14
ATOM     14  C   UNL     1      37.021  -2.149  17.008  0.00  0.00    +0.000 C 
ATOM     15  O   UNL     1      36.789  -3.327  17.382  0.00  0.00    +0.000 OA
BRANCH  14  16
ATOM     16  O   UNL     1      37.724  -1.333  17.854  0.00  0.00    +0.000 OA
ATOM     17  C   UNL     1      37.638  -1.365  19.247  0.00  0.00    +0.000 C 
ENDBRANCH  14  16
ENDBRANCH  11  14
BRANCH  13  18
ATOM     18  C   UNL     1      38.830  -1.603  12.477  0.00  0.00    +0.000 C 
BRANCH  18  19
ATOM     19  C   UNL     1      39.523  -1.132  11.325  0.00  0.00    +0.000 C 
BRANCH  19  20
ATOM     20  C   UNL     1      40.107   0.147  11.196  0.00  0.00    +0.000 A 
ATOM     21  C   UNL     1      41.436   0.522  11.498  0.00  0.00    +0.000 A 
ATOM     22  C   UNL     1      41.572   1.809  11.211  0.00  0.00    +0.000 A 
ATOM     23  O   UNL     1      40.422   2.292  10.768  0.00  0.00    +0.000 OA
ATOM     24  C   UNL     1      39.552   1.294  10.767  0.00  0.00    +0.000 A 
BRANCH  24  25
ATOM     25  C   UNL     1      38.107   1.408  10.322  0.00  0.00    +0.000 C 
BRANCH  25  26
ATOM     26  N   UNL     1      37.651   2.249  11.445  0.00  0.00    +0.000 NA
BRANCH  26  27
ATOM     27  C   UNL     1      36.868   1.428  12.334  0.00  0.00    +0.000 C 
BRANCH  27  28
ATOM     28  C   UNL     1      37.286   2.248  13.599  0.00  0.00    +0.000 A 
ATOM     29  C   UNL     1      38.515   2.469  13.924  0.00  0.00    +0.000 A 
ATOM     30  C   UNL     1      38.981   3.210  14.993  0.00  0.00    +0.000 A 
ATOM     31  C   UNL     1      37.838   3.733  15.749  0.00  0.00    +0.000 A 
ATOM     32  C   UNL     1      36.599   3.474  15.403  0.00  0.00    +0.000 A 
ATOM     33  C   UNL     1      36.124   2.694  14.289  0.00  0.00    +0.000 A 
ENDBRANCH  27  28
ENDBRANCH  26  27
ENDBRANCH  25  26
ENDBRANCH  24  25
ENDBRANCH  19  20
ENDBRANCH  18  19
ENDBRANCH  13  18
TORSDOF 9
ENDMDL
MODEL 8
REMARK VINA RESULT:      -7.4      2.804      5.565
REMARK  Name = 
REMARK  9 active torsions:
REMARK  status: ('A' for Active; 'I' for Inactive)
REMARK    1  A    between atoms: C_11  and  C_13
REMARK    2  A    between atoms: C_13  and  O_15
REMARK    3  A    between atoms: C_17  and  C_18
REMARK    4  A    between atoms: C_18  and  C_19
REMARK    5  A    between atoms: C_19  and  C_20
REMARK    6  A    between atoms: C_24  and  C_25
REMARK    7  A    between atoms: C_25  and  N_26
REMARK    8  A    between atoms: N_26  and  C_27
REMARK    9  A    between atoms: C_27  and  C_28
REMARK                            x       y       z     vdW  Elec       q    Type
REMARK                         _______ _______ _______ _____ _____    ______ ____
ROOT
ATOM      1  C   UNL     1      36.823   0.259  13.497  0.00  0.00    +0.000 C 
ATOM      2  C   UNL     1      37.879  -0.356  13.983  0.00  0.00    +0.000 C 
ATOM      3  C   UNL     1      38.845   0.262  14.912  0.00  0.00    +0.000 C 
ATOM      4  C   UNL     1      40.188   0.298  14.266  0.00  0.00    +0.000 C 
ATOM      5  C   UNL     1      40.558  -1.286  14.140  0.00  0.00    +0.000 C 
ATOM      6  C   UNL     1      39.622  -1.545  12.830  0.00  0.00    +0.000 C 
ATOM      7  C   UNL     1      39.567  -0.405  11.977  0.00  0.00    +0.000 C 
ATOM      8  C   UNL     1      39.930  -2.890  12.275  0.00  0.00    +0.000 C 
ATOM      9  C   UNL     1      41.270  -2.817  11.553  0.00  0.00    +0.000 C 
ATOM     10  C   UNL     1      42.244  -2.391  12.617  0.00  0.00    +0.000 C 
ATOM     11  C   UNL     1      41.932  -1.111  13.298  0.00  0.00    +0.000 C 
ATOM     12  C   UNL     1      42.943  -0.991  14.460  0.00  0.00    +0.000 C 
ATOM     13  C   UNL     1      38.162  -1.807  13.469  0.00  0.00    +0.000 C 
ENDROOT
BRANCH  11  14
ATOM     14  C   UNL     1      41.971   0.083  12.525  0.00  0.00    +0.000 C 
ATOM     15  O   UNL     1      42.126   1.144  13.181  0.00  0.00    +0.000 OA
BRANCH  14  16
ATOM     16  O   UNL     1      41.862   0.181  11.164  0.00  0.00    +0.000 OA
ATOM     17  C   UNL     1      42.858   0.669  10.316  0.00  0.00    +0.000 C 
ENDBRANCH  14  16
ENDBRANCH  11  14
BRANCH  13  18
ATOM     18  C   UNL     1      38.535  -2.648  14.723  0.00  0.00    +0.000 C 
BRANCH  18  19
ATOM     19  C   UNL     1      37.542  -2.988  15.686  0.00  0.00    +0.000 C 
BRANCH  19  20
ATOM     20  C   UNL     1      37.492  -2.494  17.008  0.00  0.00    +0.000 A 
ATOM     21  C   UNL     1      38.368  -2.797  18.075  0.00  0.00    +0.000 A 
ATOM     22  C   UNL     1      37.976  -2.101  19.134  0.00  0.00    +0.000 A 
ATOM     23  O   UNL     1      36.900  -1.393  18.830  0.00  0.00    +0.000 OA
ATOM     24  C   UNL     1      36.615  -1.637  17.560  0.00  0.00    +0.000 A 
BRANCH  24  25
ATOM     25  C   UNL     1      35.457  -1.021  16.801  0.00  0.00    +0.000 C 
BRANCH  25  26
ATOM     26  N   UNL     1      35.881   0.383  16.958  0.00  0.00    +0.000 NA
BRANCH  26  27
ATOM     27  C   UNL     1      34.700   1.209  16.995  0.00  0.00    +0.000 C 
BRANCH  27  28
ATOM     28  C   UNL     1      35.375   2.363  16.183  0.00  0.00    +0.000 A 
ATOM     29  C   UNL     1      34.832   2.907  15.146  0.00  0.00    +0.000 A 
ATOM     30  C   UNL     1      35.329   3.952  14.390  0.00  0.00    +0.000 A 
ATOM     31  C   UNL     1      36.617   4.378  14.947  0.00  0.00    +0.000 A 
ATOM     32  C   UNL     1      37.150   3.791  15.992  0.00  0.00    +0.000 A 
ATOM     33  C   UNL     1      36.628   2.697  16.770  0.00  0.00    +0.000 A 
ENDBRANCH  27  28
ENDBRANCH  26  27
ENDBRANCH  25  26
ENDBRANCH  24  25
ENDBRANCH  19  20
ENDBRANCH  18  19
ENDBRANCH  13  18
TORSDOF 9
ENDMDL
MODEL 9
REMARK VINA RESULT:      -7.3      2.940      9.149
REMARK  Name = 
REMARK  9 active torsions:
REMARK  status: ('A' for Active; 'I' for Inactive)
REMARK    1  A    between atoms: C_11  and  C_13
REMARK    2  A    between atoms: C_13  and  O_15
REMARK    3  A    between atoms: C_17  and  C_18
REMARK    4  A    between atoms: C_18  and  C_19
REMARK    5  A    between atoms: C_19  and  C_20
REMARK    6  A    between atoms: C_24  and  C_25
REMARK    7  A    between atoms: C_25  and  N_26
REMARK    8  A    between atoms: N_26  and  C_27
REMARK    9  A    between atoms: C_27  and  C_28
REMARK                            x       y       z     vdW  Elec       q    Type
REMARK                         _______ _______ _______ _____ _____    ______ ____
ROOT
ATOM      1  C   UNL     1      40.158   6.117  14.627  0.00  0.00    +0.000 C 
ATOM      2  C   UNL     1      39.314   6.197  15.634  0.00  0.00    +0.000 C 
ATOM      3  C   UNL     1      38.117   7.060  15.647  0.00  0.00    +0.000 C 
ATOM      4  C   UNL     1      38.246   8.054  16.750  0.00  0.00    +0.000 C 
ATOM      5  C   UNL     1      38.198   7.110  18.080  0.00  0.00    +0.000 C 
ATOM      6  C   UNL     1      39.748   6.619  17.961  0.00  0.00    +0.000 C 
ATOM      7  C   UNL     1      40.591   7.633  17.419  0.00  0.00    +0.000 C 
ATOM      8  C   UNL     1      40.127   5.910  19.212  0.00  0.00    +0.000 C 
ATOM      9  C   UNL     1      40.329   6.948  20.310  0.00  0.00    +0.000 C 
ATOM     10  C   UNL     1      38.999   7.640  20.417  0.00  0.00    +0.000 C 
ATOM     11  C   UNL     1      38.501   8.271  19.169  0.00  0.00    +0.000 C 
ATOM     12  C   UNL     1      37.059   8.734  19.474  0.00  0.00    +0.000 C 
ATOM     13  C   UNL     1      39.663   5.384  16.924  0.00  0.00    +0.000 C 
ENDROOT
BRANCH  11  14
ATOM     14  C   UNL     1      39.236   9.366  18.636  0.00  0.00    +0.000 C 
ATOM     15  O   UNL     1      38.603  10.100  17.835  0.00  0.00    +0.000 OA
BRANCH  14  16
ATOM     16  O   UNL     1      40.538   9.689  18.911  0.00  0.00    +0.000 OA
ATOM     17  C   UNL     1      41.029  10.991  19.030  0.00  0.00    +0.000 C 
ENDBRANCH  14  16
ENDBRANCH  11  14
BRANCH  13  18
ATOM     18  C   UNL     1      38.340   4.705  17.382  0.00  0.00    +0.000 C 
BRANCH  18  19
ATOM     19  C   UNL     1      37.920   3.475  16.799  0.00  0.00    +0.000 C 
BRANCH  19  20
ATOM     20  C   UNL     1      36.679   3.263  16.159  0.00  0.00    +0.000 A 
ATOM     21  C   UNL     1      36.094   4.040  15.133  0.00  0.00    +0.000 A 
ATOM     22  C   UNL     1      34.940   3.477  14.804  0.00  0.00    +0.000 A 
ATOM     23  O   UNL     1      34.731   2.409  15.558  0.00  0.00    +0.000 OA
ATOM     24  C   UNL     1      35.773   2.292  16.367  0.00  0.00    +0.000 A 
BRANCH  24  25
ATOM     25  C   UNL     1      35.947   1.192  17.395  0.00  0.00    +0.000 C 
BRANCH  25  26
ATOM     26  N   UNL     1      36.498   0.182  16.471  0.00  0.00    +0.000 NA
BRANCH  26  27
ATOM     27  C   UNL     1      36.748  -1.024  17.220  0.00  0.00    +0.000 C 
BRANCH  27  28
ATOM     28  C   UNL     1      38.019  -1.384  16.381  0.00  0.00    +0.000 A 
ATOM     29  C   UNL     1      38.532  -0.592  15.501  0.00  0.00    +0.000 A 
ATOM     30  C   UNL     1      39.668  -0.804  14.742  0.00  0.00    +0.000 A 
ATOM     31  C   UNL     1      40.238  -2.110  15.085  0.00  0.00    +0.000 A 
ATOM     32  C   UNL     1      39.681  -2.901  15.972  0.00  0.00    +0.000 A 
ATOM     33  C   UNL     1      38.491  -2.675  16.753  0.00  0.00    +0.000 A 
ENDBRANCH  27  28
ENDBRANCH  26  27
ENDBRANCH  25  26
ENDBRANCH  24  25
ENDBRANCH  19  20
ENDBRANCH  18  19
ENDBRANCH  13  18
TORSDOF 9
ENDMDL
MODEL 10
REMARK VINA RESULT:      -7.3      2.885      5.209
REMARK  Name = 
REMARK  9 active torsions:
REMARK  status: ('A' for Active; 'I' for Inactive)
REMARK    1  A    between atoms: C_11  and  C_13
REMARK    2  A    between atoms: C_13  and  O_15
REMARK    3  A    between atoms: C_17  and  C_18
REMARK    4  A    between atoms: C_18  and  C_19
REMARK    5  A    between atoms: C_19  and  C_20
REMARK    6  A    between atoms: C_24  and  C_25
REMARK    7  A    between atoms: C_25  and  N_26
REMARK    8  A    between atoms: N_26  and  C_27
REMARK    9  A    between atoms: C_27  and  C_28
REMARK                            x       y       z     vdW  Elec       q    Type
REMARK                         _______ _______ _______ _____ _____    ______ ____
ROOT
ATOM      1  C   UNL     1      39.416   1.771  14.692  0.00  0.00    +0.000 C 
ATOM      2  C   UNL     1      38.274   1.126  14.589  0.00  0.00    +0.000 C 
ATOM      3  C   UNL     1      37.083   1.412  15.412  0.00  0.00    +0.000 C 
ATOM      4  C   UNL     1      36.746   0.203  16.217  0.00  0.00    +0.000 C 
ATOM      5  C   UNL     1      36.314  -0.872  15.068  0.00  0.00    +0.000 C 
ATOM      6  C   UNL     1      37.843  -1.239  14.636  0.00  0.00    +0.000 C 
ATOM      7  C   UNL     1      38.740  -1.182  15.742  0.00  0.00    +0.000 C 
ATOM      8  C   UNL     1      37.820  -2.426  13.742  0.00  0.00    +0.000 C 
ATOM      9  C   UNL     1      37.550  -3.663  14.591  0.00  0.00    +0.000 C 
ATOM     10  C   UNL     1      36.215  -3.392  15.228  0.00  0.00    +0.000 C 
ATOM     11  C   UNL     1      36.132  -2.154  16.042  0.00  0.00    +0.000 C 
ATOM     12  C   UNL     1      34.642  -1.993  16.419  0.00  0.00    +0.000 C 
ATOM     13  C   UNL     1      38.216  -0.072  13.584  0.00  0.00    +0.000 C 
ENDROOT
BRANCH  11  14
ATOM     14  C   UNL     1      36.919  -2.079  17.225  0.00  0.00    +0.000 C 
ATOM     15  O   UNL     1      36.567  -1.200  18.052  0.00  0.00    +0.000 OA
BRANCH  14  16
ATOM     16  O   UNL     1      37.998  -2.862  17.541  0.00  0.00    +0.000 OA
ATOM     17  C   UNL     1      38.538  -2.997  18.822  0.00  0.00    +0.000 C 
ENDBRANCH  14  16
ENDBRANCH  11  14
BRANCH  13  18
ATOM     18  C   UNL     1      36.873   0.071  12.812  0.00  0.00    +0.000 C 
BRANCH  18  19
ATOM     19  C   UNL     1      36.832   0.726  11.548  0.00  0.00    +0.000 C 
BRANCH  19  20
ATOM     20  C   UNL     1      37.660   1.805  11.167  0.00  0.00    +0.000 A 
ATOM     21  C   UNL     1      37.563   3.154  11.578  0.00  0.00    +0.000 A 
ATOM     22  C   UNL     1      38.549   3.827  11.002  0.00  0.00    +0.000 A 
ATOM     23  O   UNL     1      39.258   3.014  10.235  0.00  0.00    +0.000 OA
ATOM     24  C   UNL     1      38.717   1.810  10.336  0.00  0.00    +0.000 A 
BRANCH  24  25
ATOM     25  C   UNL     1      39.226   0.572   9.623  0.00  0.00    +0.000 C 
BRANCH  25  26
ATOM     26  N   UNL     1      40.218   0.185  10.644  0.00  0.00    +0.000 NA
BRANCH  26  27
ATOM     27  C   UNL     1      40.503  -1.219  10.485  0.00  0.00    +0.000 C 
BRANCH  27  28
ATOM     28  C   UNL     1      41.129  -1.342  11.914  0.00  0.00    +0.000 A 
ATOM     29  C   UNL     1      41.646  -0.344  12.547  0.00  0.00    +0.000 A 
ATOM     30  C   UNL     1      42.185  -0.344  13.819  0.00  0.00    +0.000 A 
ATOM     31  C   UNL     1      42.090  -1.696  14.380  0.00  0.00    +0.000 A 
ATOM     32  C   UNL     1      41.576  -2.695  13.703  0.00  0.00    +0.000 A 
ATOM     33  C   UNL     1      41.023  -2.686  12.372  0.00  0.00    +0.000 A 
ENDBRANCH  27  28
ENDBRANCH  26  27
ENDBRANCH  25  26
ENDBRANCH  24  25
ENDBRANCH  19  20
ENDBRANCH  18  19
ENDBRANCH  13  18
TORSDOF 9
ENDMDL
