MODEL 1
REMARK VINA RESULT:      -6.1      0.000      0.000
REMARK  Name = 
REMARK  2 active torsions:
REMARK  status: ('A' for Active; 'I' for Inactive)
REMARK    1  A    between atoms: C_7  and  C_8
REMARK    2  A    between atoms: N_10  and  C_11
REMARK                            x       y       z     vdW  Elec       q    Type
REMARK                         _______ _______ _______ _____ _____    ______ ____
ROOT
ATOM      1  C   UNL     1      33.631  -1.611  36.707  0.00  0.00    +0.000 C 
ATOM      2  C   UNL     1      33.119  -0.149  36.197  0.00  0.00    +0.000 C 
ATOM      3  C   UNL     1      34.358   0.657  36.955  0.00  0.00    +0.000 C 
ATOM      4  C   UNL     1      34.022   2.031  36.497  0.00  0.00    +0.000 C 
ATOM      5  O   UNL     1      33.825   3.002  37.256  0.00  0.00    +0.000 OA
ATOM      6  C   UNL     1      33.906   2.272  35.056  0.00  0.00    +0.000 A 
ATOM      7  C   UNL     1      33.782   3.351  34.249  0.00  0.00    +0.000 A 
ATOM      8  C   UNL     1      33.664   2.915  32.931  0.00  0.00    +0.000 A 
ATOM      9  N   UNL     1      33.726   1.577  33.005  0.00  0.00    +0.000 NA
ATOM     10  C   UNL     1      33.872   1.134  34.251  0.00  0.00    +0.000 A 
ATOM     11  C   UNL     1      33.976  -0.245  34.782  0.00  0.00    +0.000 C 
ENDROOT
BRANCH   7  12
ATOM     12  C   UNL     1      33.837   4.755  34.635  0.00  0.00    +0.000 C 
ATOM     13  O   UNL     1      32.969   5.597  34.285  0.00  0.00    +0.000 OA
ATOM     14  N   UNL     1      34.901   5.293  35.441  0.00  0.00    +0.000 NA
BRANCH  14  15
ATOM     15  C   UNL     1      35.027   6.625  35.817  0.00  0.00    +0.000 A 
ATOM     16  C   UNL     1      34.257   7.163  36.805  0.00  0.00    +0.000 A 
ATOM     17  C   UNL     1      34.373   8.500  37.210  0.00  0.00    +0.000 A 
ATOM     18  C   UNL     1      35.307   9.312  36.579  0.00  0.00    +0.000 A 
ATOM     19  C   UNL     1      36.072   8.776  35.592  0.00  0.00    +0.000 A 
ATOM     20  C   UNL     1      35.943   7.450  35.208  0.00  0.00    +0.000 A 
ENDBRANCH  14  15
ENDBRANCH   7  12
TORSDOF 2
ENDMDL
MODEL 2
REMARK VINA RESULT:      -6.0     21.259     24.736
REMARK  Name = 
REMARK  2 active torsions:
REMARK  status: ('A' for Active; 'I' for Inactive)
REMARK    1  A    between atoms: C_7  and  C_8
REMARK    2  A    between atoms: N_10  and  C_11
REMARK                            x       y       z     vdW  Elec       q    Type
REMARK                         _______ _______ _______ _____ _____    ______ ____
ROOT
ATOM      1  C   UNL     1      28.569  28.382  20.810  0.00  0.00    +0.000 C 
ATOM      2  C   UNL     1      28.797  27.412  22.101  0.00  0.00    +0.000 C 
ATOM      3  C   UNL     1      27.168  27.250  22.388  0.00  0.00    +0.000 C 
ATOM      4  C   UNL     1      27.254  26.310  23.538  0.00  0.00    +0.000 C 
ATOM      5  O   UNL     1      26.747  26.517  24.660  0.00  0.00    +0.000 OA
ATOM      6  C   UNL     1      27.986  25.055  23.353  0.00  0.00    +0.000 A 
ATOM      7  C   UNL     1      28.160  23.909  24.051  0.00  0.00    +0.000 A 
ATOM      8  C   UNL     1      29.037  23.084  23.351  0.00  0.00    +0.000 A 
ATOM      9  N   UNL     1      29.355  23.779  22.248  0.00  0.00    +0.000 NA
ATOM     10  C   UNL     1      28.755  24.965  22.192  0.00  0.00    +0.000 A 
ATOM     11  C   UNL     1      28.824  26.038  21.174  0.00  0.00    +0.000 C 
ENDROOT
BRANCH   7  12
ATOM     12  C   UNL     1      27.501  23.521  25.292  0.00  0.00    +0.000 C 
ATOM     13  O   UNL     1      26.400  22.910  25.322  0.00  0.00    +0.000 OA
ATOM     14  N   UNL     1      28.055  23.818  26.586  0.00  0.00    +0.000 NA
BRANCH  14  15
ATOM     15  C   UNL     1      27.464  23.503  27.804  0.00  0.00    +0.000 A 
ATOM     16  C   UNL     1      27.810  22.381  28.494  0.00  0.00    +0.000 A 
ATOM     17  C   UNL     1      27.236  22.046  29.729  0.00  0.00    +0.000 A 
ATOM     18  C   UNL     1      26.275  22.890  30.271  0.00  0.00    +0.000 A 
ATOM     19  C   UNL     1      25.928  24.008  29.580  0.00  0.00    +0.000 A 
ATOM     20  C   UNL     1      26.509  24.321  28.360  0.00  0.00    +0.000 A 
ENDBRANCH  14  15
ENDBRANCH   7  12
TORSDOF 2
ENDMDL
MODEL 3
REMARK VINA RESULT:      -5.9     32.365     33.766
REMARK  Name = 
REMARK  2 active torsions:
REMARK  status: ('A' for Active; 'I' for Inactive)
REMARK    1  A    between atoms: C_7  and  C_8
REMARK    2  A    between atoms: N_10  and  C_11
REMARK                            x       y       z     vdW  Elec       q    Type
REMARK                         _______ _______ _______ _____ _____    ______ ____
ROOT
ATOM      1  C   UNL     1       6.133  22.163  16.596  0.00  0.00    +0.000 C 
ATOM      2  C   UNL     1       7.650  21.919  17.142  0.00  0.00    +0.000 C 
ATOM      3  C   UNL     1       7.470  22.982  18.407  0.00  0.00    +0.000 C 
ATOM      4  C   UNL     1       8.807  22.791  19.029  0.00  0.00    +0.000 C 
ATOM      5  O   UNL     1       9.621  23.711  19.253  0.00  0.00    +0.000 OA
ATOM      6  C   UNL     1       9.210  21.433  19.403  0.00  0.00    +0.000 A 
ATOM      7  C   UNL     1      10.220  20.868  20.104  0.00  0.00    +0.000 A 
ATOM      8  C   UNL     1      10.076  19.483  20.063  0.00  0.00    +0.000 A 
ATOM      9  N   UNL     1       8.970  19.274  19.332  0.00  0.00    +0.000 NA
ATOM     10  C   UNL     1       8.407  20.404  18.910  0.00  0.00    +0.000 A 
ATOM     11  C   UNL     1       7.198  20.635  18.087  0.00  0.00    +0.000 C 
ENDROOT
BRANCH   7  12
ATOM     12  C   UNL     1      11.263  21.551  20.859  0.00  0.00    +0.000 C 
ATOM     13  O   UNL     1      11.234  21.672  22.112  0.00  0.00    +0.000 OA
ATOM     14  N   UNL     1      12.406  22.152  20.226  0.00  0.00    +0.000 NA
BRANCH  14  15
ATOM     15  C   UNL     1      13.417  22.842  20.885  0.00  0.00    +0.000 A 
ATOM     16  C   UNL     1      14.594  22.239  21.212  0.00  0.00    +0.000 A 
ATOM     17  C   UNL     1      15.634  22.915  21.866  0.00  0.00    +0.000 A 
ATOM     18  C   UNL     1      15.457  24.253  22.197  0.00  0.00    +0.000 A 
ATOM     19  C   UNL     1      14.282  24.853  21.874  0.00  0.00    +0.000 A 
ATOM     20  C   UNL     1      13.267  24.166  21.225  0.00  0.00    +0.000 A 
ENDBRANCH  14  15
ENDBRANCH   7  12
TORSDOF 2
ENDMDL
MODEL 4
REMARK VINA RESULT:      -5.8     17.317     18.824
REMARK  Name = 
REMARK  2 active torsions:
REMARK  status: ('A' for Active; 'I' for Inactive)
REMARK    1  A    between atoms: C_7  and  C_8
REMARK    2  A    between atoms: N_10  and  C_11
REMARK                            x       y       z     vdW  Elec       q    Type
REMARK                         _______ _______ _______ _____ _____    ______ ____
ROOT
ATOM      1  C   UNL     1      14.934  12.923  35.719  0.00  0.00    +0.000 C 
ATOM      2  C   UNL     1      15.980  12.411  36.861  0.00  0.00    +0.000 C 
ATOM      3  C   UNL     1      15.033  11.114  37.285  0.00  0.00    +0.000 C 
ATOM      4  C   UNL     1      15.939  10.521  38.305  0.00  0.00    +0.000 C 
ATOM      5  O   UNL     1      15.615  10.285  39.488  0.00  0.00    +0.000 OA
ATOM      6  C   UNL     1      17.310  10.192  37.906  0.00  0.00    +0.000 A 
ATOM      7  C   UNL     1      18.355   9.526  38.447  0.00  0.00    +0.000 A 
ATOM      8  C   UNL     1      19.438   9.603  37.574  0.00  0.00    +0.000 A 
ATOM      9  N   UNL     1      18.989  10.320  36.532  0.00  0.00    +0.000 NA
ATOM     10  C   UNL     1      17.722  10.700  36.673  0.00  0.00    +0.000 A 
ATOM     11  C   UNL     1      16.845  11.495  35.784  0.00  0.00    +0.000 C 
ENDROOT
BRANCH   7  12
ATOM     12  C   UNL     1      18.373   8.769  39.693  0.00  0.00    +0.000 C 
ATOM     13  O   UNL     1      18.424   9.316  40.825  0.00  0.00    +0.000 OA
ATOM     14  N   UNL     1      18.347   7.331  39.723  0.00  0.00    +0.000 NA
BRANCH  14  15
ATOM     15  C   UNL     1      18.392   6.552  40.873  0.00  0.00    +0.000 A 
ATOM     16  C   UNL     1      19.575   6.136  41.405  0.00  0.00    +0.000 A 
ATOM     17  C   UNL     1      19.649   5.359  42.569  0.00  0.00    +0.000 A 
ATOM     18  C   UNL     1      18.470   4.995  43.206  0.00  0.00    +0.000 A 
ATOM     19  C   UNL     1      17.289   5.407  42.674  0.00  0.00    +0.000 A 
ATOM     20  C   UNL     1      17.239   6.177  41.521  0.00  0.00    +0.000 A 
ENDBRANCH  14  15
ENDBRANCH   7  12
TORSDOF 2
ENDMDL
MODEL 5
REMARK VINA RESULT:      -5.7     15.216     16.431
REMARK  Name = 
REMARK  2 active torsions:
REMARK  status: ('A' for Active; 'I' for Inactive)
REMARK    1  A    between atoms: C_7  and  C_8
REMARK    2  A    between atoms: N_10  and  C_11
REMARK                            x       y       z     vdW  Elec       q    Type
REMARK                         _______ _______ _______ _____ _____    ______ ____
ROOT
ATOM      1  C   UNL     1      15.661   8.601  42.282  0.00  0.00    +0.000 C 
ATOM      2  C   UNL     1      16.798   9.406  41.435  0.00  0.00    +0.000 C 
ATOM      3  C   UNL     1      17.483   8.012  40.844  0.00  0.00    +0.000 C 
ATOM      4  C   UNL     1      18.522   8.640  39.985  0.00  0.00    +0.000 C 
ATOM      5  O   UNL     1      19.746   8.406  40.069  0.00  0.00    +0.000 OA
ATOM      6  C   UNL     1      18.091   9.605  38.971  0.00  0.00    +0.000 A 
ATOM      7  C   UNL     1      18.661  10.252  37.928  0.00  0.00    +0.000 A 
ATOM      8  C   UNL     1      17.718  11.105  37.358  0.00  0.00    +0.000 A 
ATOM      9  N   UNL     1      16.608  10.928  38.091  0.00  0.00    +0.000 NA
ATOM     10  C   UNL     1      16.770  10.042  39.070  0.00  0.00    +0.000 A 
ATOM     11  C   UNL     1      15.825   9.555  40.102  0.00  0.00    +0.000 C 
ENDROOT
BRANCH   7  12
ATOM     12  C   UNL     1      20.007  10.066  37.400  0.00  0.00    +0.000 C 
ATOM     13  O   UNL     1      20.236   9.558  36.272  0.00  0.00    +0.000 OA
ATOM     14  N   UNL     1      21.184  10.440  38.139  0.00  0.00    +0.000 NA
BRANCH  14  15
ATOM     15  C   UNL     1      22.493  10.261  37.706  0.00  0.00    +0.000 A 
ATOM     16  C   UNL     1      23.088  11.144  36.856  0.00  0.00    +0.000 A 
ATOM     17  C   UNL     1      24.410  10.993  36.413  0.00  0.00    +0.000 A 
ATOM     18  C   UNL     1      25.142   9.898  36.856  0.00  0.00    +0.000 A 
ATOM     19  C   UNL     1      24.547   9.016  37.701  0.00  0.00    +0.000 A 
ATOM     20  C   UNL     1      23.238   9.186  38.128  0.00  0.00    +0.000 A 
ENDBRANCH  14  15
ENDBRANCH   7  12
TORSDOF 2
ENDMDL
MODEL 6
REMARK VINA RESULT:      -5.5     19.651     22.033
REMARK  Name = 
REMARK  2 active torsions:
REMARK  status: ('A' for Active; 'I' for Inactive)
REMARK    1  A    between atoms: C_7  and  C_8
REMARK    2  A    between atoms: N_10  and  C_11
REMARK                            x       y       z     vdW  Elec       q    Type
REMARK                         _______ _______ _______ _____ _____    ______ ____
ROOT
ATOM      1  C   UNL     1      24.008   2.298  18.526  0.00  0.00    +0.000 C 
ATOM      2  C   UNL     1      25.204   3.017  17.681  0.00  0.00    +0.000 C 
ATOM      3  C   UNL     1      24.149   3.918  16.767  0.00  0.00    +0.000 C 
ATOM      4  C   UNL     1      25.156   4.679  15.980  0.00  0.00    +0.000 C 
ATOM      5  O   UNL     1      25.205   4.708  14.733  0.00  0.00    +0.000 OA
ATOM      6  C   UNL     1      26.167   5.448  16.710  0.00  0.00    +0.000 A 
ATOM      7  C   UNL     1      27.117   6.361  16.401  0.00  0.00    +0.000 A 
ATOM      8  C   UNL     1      27.816   6.693  17.559  0.00  0.00    +0.000 A 
ATOM      9  N   UNL     1      27.247   5.957  18.526  0.00  0.00    +0.000 NA
ATOM     10  C   UNL     1      26.254   5.194  18.079  0.00  0.00    +0.000 A 
ATOM     11  C   UNL     1      25.371   4.238  18.788  0.00  0.00    +0.000 C 
ENDROOT
BRANCH   7  12
ATOM     12  C   UNL     1      27.356   6.983  15.104  0.00  0.00    +0.000 C 
ATOM     13  O   UNL     1      26.672   7.946  14.670  0.00  0.00    +0.000 OA
ATOM     14  N   UNL     1      28.392   6.534  14.212  0.00  0.00    +0.000 NA
BRANCH  14  15
ATOM     15  C   UNL     1      28.652   7.064  12.954  0.00  0.00    +0.000 A 
ATOM     16  C   UNL     1      29.692   7.918  12.742  0.00  0.00    +0.000 A 
ATOM     17  C   UNL     1      29.982   8.458  11.480  0.00  0.00    +0.000 A 
ATOM     18  C   UNL     1      29.176   8.110  10.403  0.00  0.00    +0.000 A 
ATOM     19  C   UNL     1      28.137   7.260  10.616  0.00  0.00    +0.000 A 
ATOM     20  C   UNL     1      27.869   6.737  11.872  0.00  0.00    +0.000 A 
ENDBRANCH  14  15
ENDBRANCH   7  12
TORSDOF 2
ENDMDL
MODEL 7
REMARK VINA RESULT:      -5.5     18.887     21.837
REMARK  Name = 
REMARK  2 active torsions:
REMARK  status: ('A' for Active; 'I' for Inactive)
REMARK    1  A    between atoms: C_7  and  C_8
REMARK    2  A    between atoms: N_10  and  C_11
REMARK                            x       y       z     vdW  Elec       q    Type
REMARK                         _______ _______ _______ _____ _____    ______ ____
ROOT
ATOM      1  C   UNL     1      31.822  21.572  32.701  0.00  0.00    +0.000 C 
ATOM      2  C   UNL     1      31.426  21.589  31.119  0.00  0.00    +0.000 C 
ATOM      3  C   UNL     1      30.194  22.681  31.340  0.00  0.00    +0.000 C 
ATOM      4  C   UNL     1      29.787  22.823  29.917  0.00  0.00    +0.000 C 
ATOM      5  O   UNL     1      28.631  22.626  29.488  0.00  0.00    +0.000 OA
ATOM      6  C   UNL     1      30.807  23.217  28.941  0.00  0.00    +0.000 A 
ATOM      7  C   UNL     1      30.826  23.597  27.643  0.00  0.00    +0.000 A 
ATOM      8  C   UNL     1      32.149  23.798  27.253  0.00  0.00    +0.000 A 
ATOM      9  N   UNL     1      32.874  23.528  28.349  0.00  0.00    +0.000 NA
ATOM     10  C   UNL     1      32.126  23.177  29.391  0.00  0.00    +0.000 A 
ATOM     11  C   UNL     1      32.506  22.797  30.772  0.00  0.00    +0.000 C 
ENDROOT
BRANCH   7  12
ATOM     12  C   UNL     1      29.681  23.846  26.776  0.00  0.00    +0.000 C 
ATOM     13  O   UNL     1      29.055  24.938  26.765  0.00  0.00    +0.000 OA
ATOM     14  N   UNL     1      29.168  22.853  25.870  0.00  0.00    +0.000 NA
BRANCH  14  15
ATOM     15  C   UNL     1      28.064  23.017  25.042  0.00  0.00    +0.000 A 
ATOM     16  C   UNL     1      26.795  22.829  25.500  0.00  0.00    +0.000 A 
ATOM     17  C   UNL     1      25.665  22.998  24.688  0.00  0.00    +0.000 A 
ATOM     18  C   UNL     1      25.844  23.369  23.362  0.00  0.00    +0.000 A 
ATOM     19  C   UNL     1      27.110  23.554  22.904  0.00  0.00    +0.000 A 
ATOM     20  C   UNL     1      28.215  23.383  23.725  0.00  0.00    +0.000 A 
ENDBRANCH  14  15
ENDBRANCH   7  12
TORSDOF 2
ENDMDL
MODEL 8
REMARK VINA RESULT:      -5.5     22.165     24.658
REMARK  Name = 
REMARK  2 active torsions:
REMARK  status: ('A' for Active; 'I' for Inactive)
REMARK    1  A    between atoms: C_7  and  C_8
REMARK    2  A    between atoms: N_10  and  C_11
REMARK                            x       y       z     vdW  Elec       q    Type
REMARK                         _______ _______ _______ _____ _____    ______ ____
ROOT
ATOM      1  C   UNL     1      23.888  27.691  31.658  0.00  0.00    +0.000 C 
ATOM      2  C   UNL     1      23.951  26.571  30.473  0.00  0.00    +0.000 C 
ATOM      3  C   UNL     1      24.991  27.474  29.543  0.00  0.00    +0.000 C 
ATOM      4  C   UNL     1      25.174  26.499  28.434  0.00  0.00    +0.000 C 
ATOM      5  O   UNL     1      24.953  26.748  27.230  0.00  0.00    +0.000 OA
ATOM      6  C   UNL     1      25.639  25.150  28.766  0.00  0.00    +0.000 A 
ATOM      7  C   UNL     1      26.068  24.065  28.082  0.00  0.00    +0.000 A 
ATOM      8  C   UNL     1      26.329  23.038  28.986  0.00  0.00    +0.000 A 
ATOM      9  N   UNL     1      26.043  23.559  30.189  0.00  0.00    +0.000 NA
ATOM     10  C   UNL     1      25.627  24.820  30.122  0.00  0.00    +0.000 A 
ATOM     11  C   UNL     1      25.208  25.760  31.186  0.00  0.00    +0.000 C 
ENDROOT
BRANCH   7  12
ATOM     12  C   UNL     1      26.311  23.962  26.648  0.00  0.00    +0.000 C 
ATOM     13  O   UNL     1      25.574  23.297  25.875  0.00  0.00    +0.000 OA
ATOM     14  N   UNL     1      27.425  24.607  26.005  0.00  0.00    +0.000 NA
BRANCH  14  15
ATOM     15  C   UNL     1      27.728  24.524  24.652  0.00  0.00    +0.000 A 
ATOM     16  C   UNL     1      28.600  23.593  24.173  0.00  0.00    +0.000 A 
ATOM     17  C   UNL     1      28.915  23.481  22.812  0.00  0.00    +0.000 A 
ATOM     18  C   UNL     1      28.317  24.354  21.913  0.00  0.00    +0.000 A 
ATOM     19  C   UNL     1      27.449  25.285  22.391  0.00  0.00    +0.000 A 
ATOM     20  C   UNL     1      27.150  25.378  23.742  0.00  0.00    +0.000 A 
ENDBRANCH  14  15
ENDBRANCH   7  12
TORSDOF 2
ENDMDL
MODEL 9
REMARK VINA RESULT:      -5.5     18.754     22.461
REMARK  Name = 
REMARK  2 active torsions:
REMARK  status: ('A' for Active; 'I' for Inactive)
REMARK    1  A    between atoms: C_7  and  C_8
REMARK    2  A    between atoms: N_10  and  C_11
REMARK                            x       y       z     vdW  Elec       q    Type
REMARK                         _______ _______ _______ _____ _____    ______ ____
ROOT
ATOM      1  C   UNL     1      26.807  26.851  23.456  0.00  0.00    +0.000 C 
ATOM      2  C   UNL     1      28.028  26.286  24.378  0.00  0.00    +0.000 C 
ATOM      3  C   UNL     1      27.086  25.105  25.072  0.00  0.00    +0.000 C 
ATOM      4  C   UNL     1      28.138  24.468  25.909  0.00  0.00    +0.000 C 
ATOM      5  O   UNL     1      28.060  24.312  27.145  0.00  0.00    +0.000 OA
ATOM      6  C   UNL     1      29.356  23.992  25.247  0.00  0.00    +0.000 A 
ATOM      7  C   UNL     1      30.432  23.248  25.593  0.00  0.00    +0.000 A 
ATOM      8  C   UNL     1      31.302  23.185  24.506  0.00  0.00    +0.000 A 
ATOM      9  N   UNL     1      30.700  23.900  23.543  0.00  0.00    +0.000 NA
ATOM     10  C   UNL     1      29.532  24.407  23.927  0.00  0.00    +0.000 A 
ATOM     11  C   UNL     1      28.555  25.248  23.199  0.00  0.00    +0.000 C 
ENDROOT
BRANCH   7  12
ATOM     12  C   UNL     1      30.655  22.544  26.850  0.00  0.00    +0.000 C 
ATOM     13  O   UNL     1      30.175  21.406  27.092  0.00  0.00    +0.000 OA
ATOM     14  N   UNL     1      31.435  23.105  27.920  0.00  0.00    +0.000 NA
BRANCH  14  15
ATOM     15  C   UNL     1      31.659  22.500  29.151  0.00  0.00    +0.000 A 
ATOM     16  C   UNL     1      30.749  22.582  30.161  0.00  0.00    +0.000 A 
ATOM     17  C   UNL     1      30.946  21.972  31.409  0.00  0.00    +0.000 A 
ATOM     18  C   UNL     1      32.118  21.258  31.626  0.00  0.00    +0.000 A 
ATOM     19  C   UNL     1      33.028  21.180  30.619  0.00  0.00    +0.000 A 
ATOM     20  C   UNL     1      32.812  21.789  29.392  0.00  0.00    +0.000 A 
ENDBRANCH  14  15
ENDBRANCH   7  12
TORSDOF 2
ENDMDL
MODEL 10
REMARK VINA RESULT:      -5.5     19.537     22.358
REMARK  Name = 
REMARK  2 active torsions:
REMARK  status: ('A' for Active; 'I' for Inactive)
REMARK    1  A    between atoms: C_7  and  C_8
REMARK    2  A    between atoms: N_10  and  C_11
REMARK                            x       y       z     vdW  Elec       q    Type
REMARK                         _______ _______ _______ _____ _____    ______ ____
ROOT
ATOM      1  C   UNL     1      33.148  22.171  31.108  0.00  0.00    +0.000 C 
ATOM      2  C   UNL     1      32.139  22.985  30.119  0.00  0.00    +0.000 C 
ATOM      3  C   UNL     1      32.164  21.798  28.957  0.00  0.00    +0.000 C 
ATOM      4  C   UNL     1      31.204  22.419  28.006  0.00  0.00    +0.000 C 
ATOM      5  O   UNL     1      31.452  22.660  26.806  0.00  0.00    +0.000 OA
ATOM      6  C   UNL     1      29.874  22.783  28.503  0.00  0.00    +0.000 A 
ATOM      7  C   UNL     1      28.706  23.200  27.963  0.00  0.00    +0.000 A 
ATOM      8  C   UNL     1      27.795  23.437  28.989  0.00  0.00    +0.000 A 
ATOM      9  N   UNL     1      28.464  23.146  30.116  0.00  0.00    +0.000 NA
ATOM     10  C   UNL     1      29.712  22.748  29.888  0.00  0.00    +0.000 A 
ATOM     11  C   UNL     1      30.785  22.341  30.824  0.00  0.00    +0.000 C 
ENDROOT
BRANCH   7  12
ATOM     12  C   UNL     1      28.379  23.320  26.547  0.00  0.00    +0.000 C 
ATOM     13  O   UNL     1      27.692  22.468  25.927  0.00  0.00    +0.000 OA
ATOM     14  N   UNL     1      28.830  24.424  25.742  0.00  0.00    +0.000 NA
BRANCH  14  15
ATOM     15  C   UNL     1      28.580  24.583  24.385  0.00  0.00    +0.000 A 
ATOM     16  C   UNL     1      29.492  24.210  23.444  0.00  0.00    +0.000 A 
ATOM     17  C   UNL     1      29.259  24.350  22.068  0.00  0.00    +0.000 A 
ATOM     18  C   UNL     1      28.051  24.891  21.646  0.00  0.00    +0.000 A 
ATOM     19  C   UNL     1      27.143  25.265  22.584  0.00  0.00    +0.000 A 
ATOM     20  C   UNL     1      27.392  25.117  23.941  0.00  0.00    +0.000 A 
ENDBRANCH  14  15
ENDBRANCH   7  12
TORSDOF 2
ENDMDL
