MODEL 1
REMARK VINA RESULT:      -5.7      0.000      0.000
REMARK  Name = 
REMARK  3 active torsions:
REMARK  status: ('A' for Active; 'I' for Inactive)
REMARK    1  A    between atoms: O_2  and  C_3
REMARK    2  A    between atoms: C_9  and  N_10
REMARK    3  A    between atoms: C_18  and  C_19
REMARK                            x       y       z     vdW  Elec       q    Type
REMARK                         _______ _______ _______ _____ _____    ______ ____
ROOT
ATOM      1  N   UNL     1      18.446   9.510  39.514  0.00  0.00    +0.000 NA
ATOM      2  C   UNL     1      18.158   8.289  40.177  0.00  0.00    +0.000 A 
ATOM      3  N   UNL     1      18.872   7.189  39.889  0.00  0.00    +0.000 NA
ATOM      4  C   UNL     1      18.665   5.992  40.468  0.00  0.00    +0.000 A 
ATOM      5  C   UNL     1      19.475   4.800  40.123  0.00  0.00    +0.000 C 
ATOM      6  C   UNL     1      17.676   5.841  41.419  0.00  0.00    +0.000 A 
ATOM      7  C   UNL     1      16.919   6.933  41.750  0.00  0.00    +0.000 A 
ATOM      8  C   UNL     1      15.839   6.819  42.771  0.00  0.00    +0.000 C 
ATOM      9  C   UNL     1      17.166   8.159  41.122  0.00  0.00    +0.000 A 
ENDROOT
BRANCH   1  16
ATOM     10  C   UNL     1      19.169   9.587  37.197  0.00  0.00    +0.000 A 
ATOM     11  C   UNL     1      20.171   9.695  36.257  0.00  0.00    +0.000 A 
ATOM     12  C   UNL     1      21.495   9.839  36.638  0.00  0.00    +0.000 A 
ATOM     13  C   UNL     1      21.827   9.876  37.976  0.00  0.00    +0.000 A 
ATOM     14 CL   UNL     1      23.513  10.060  38.464  0.00  0.00    +0.000 Cl
ATOM     15  C   UNL     1      20.813   9.767  38.896  0.00  0.00    +0.000 A 
ATOM     16  C   UNL     1      19.476   9.621  38.541  0.00  0.00    +0.000 A 
BRANCH  10  18
ATOM     17  C   UNL     1      17.473   9.235  35.468  0.00  0.00    +0.000 C 
ATOM     18  O   UNL     1      17.854   9.444  36.794  0.00  0.00    +0.000 OA
ENDBRANCH  10  18
ENDBRANCH   1  16
BRANCH   9  19
ATOM     19  C   UNL     1      16.360   9.306  41.480  0.00  0.00    +0.000 C 
ATOM     20  N   UNL     1      15.191   9.651  40.744  0.00  0.00    +0.000 NA
ATOM     21  O   UNL     1      16.664  10.032  42.445  0.00  0.00    +0.000 OA
ENDBRANCH   9  19
TORSDOF 3
ENDMDL
MODEL 2
REMARK VINA RESULT:      -5.7      3.255      6.379
REMARK  Name = 
REMARK  3 active torsions:
REMARK  status: ('A' for Active; 'I' for Inactive)
REMARK    1  A    between atoms: O_2  and  C_3
REMARK    2  A    between atoms: C_9  and  N_10
REMARK    3  A    between atoms: C_18  and  C_19
REMARK                            x       y       z     vdW  Elec       q    Type
REMARK                         _______ _______ _______ _____ _____    ______ ____
ROOT
ATOM      1  N   UNL     1      17.673   9.571  40.249  0.00  0.00    +0.000 NA
ATOM      2  C   UNL     1      16.811  10.153  39.284  0.00  0.00    +0.000 A 
ATOM      3  N   UNL     1      15.488  10.195  39.509  0.00  0.00    +0.000 NA
ATOM      4  C   UNL     1      14.601  10.726  38.648  0.00  0.00    +0.000 A 
ATOM      5  C   UNL     1      13.147  10.753  38.933  0.00  0.00    +0.000 C 
ATOM      6  C   UNL     1      15.030  11.271  37.455  0.00  0.00    +0.000 A 
ATOM      7  C   UNL     1      16.371  11.255  37.176  0.00  0.00    +0.000 A 
ATOM      8  C   UNL     1      16.883  11.831  35.900  0.00  0.00    +0.000 C 
ATOM      9  C   UNL     1      17.259  10.691  38.099  0.00  0.00    +0.000 A 
ENDROOT
BRANCH   1  16
ATOM     10  C   UNL     1      17.120   7.654  41.634  0.00  0.00    +0.000 A 
ATOM     11  C   UNL     1      16.649   7.126  42.817  0.00  0.00    +0.000 A 
ATOM     12  C   UNL     1      16.237   7.949  43.852  0.00  0.00    +0.000 A 
ATOM     13  C   UNL     1      16.294   9.319  43.709  0.00  0.00    +0.000 A 
ATOM     14 CL   UNL     1      15.769  10.369  45.027  0.00  0.00    +0.000 Cl
ATOM     15  C   UNL     1      16.767   9.824  42.522  0.00  0.00    +0.000 A 
ATOM     16  C   UNL     1      17.187   9.021  41.467  0.00  0.00    +0.000 A 
BRANCH  10  18
ATOM     17  C   UNL     1      18.325   5.688  40.816  0.00  0.00    +0.000 C 
ATOM     18  O   UNL     1      17.528   6.814  40.614  0.00  0.00    +0.000 OA
ENDBRANCH  10  18
ENDBRANCH   1  16
BRANCH   9  19
ATOM     19  C   UNL     1      18.674  10.679  37.794  0.00  0.00    +0.000 C 
ATOM     20  N   UNL     1      19.273   9.596  37.089  0.00  0.00    +0.000 NA
ATOM     21  O   UNL     1      19.416  11.617  38.140  0.00  0.00    +0.000 OA
ENDBRANCH   9  19
TORSDOF 3
ENDMDL
MODEL 3
REMARK VINA RESULT:      -5.7      3.867      6.873
REMARK  Name = 
REMARK  3 active torsions:
REMARK  status: ('A' for Active; 'I' for Inactive)
REMARK    1  A    between atoms: O_2  and  C_3
REMARK    2  A    between atoms: C_9  and  N_10
REMARK    3  A    between atoms: C_18  and  C_19
REMARK                            x       y       z     vdW  Elec       q    Type
REMARK                         _______ _______ _______ _____ _____    ______ ____
ROOT
ATOM      1  N   UNL     1      19.054  10.736  37.626  0.00  0.00    +0.000 NA
ATOM      2  C   UNL     1      19.981  11.729  38.035  0.00  0.00    +0.000 A 
ATOM      3  N   UNL     1      19.538  12.927  38.447  0.00  0.00    +0.000 NA
ATOM      4  C   UNL     1      20.347  13.923  38.850  0.00  0.00    +0.000 A 
ATOM      5  C   UNL     1      19.819  15.234  39.299  0.00  0.00    +0.000 C 
ATOM      6  C   UNL     1      21.716  13.749  38.858  0.00  0.00    +0.000 A 
ATOM      7  C   UNL     1      22.221  12.544  38.447  0.00  0.00    +0.000 A 
ATOM      8  C   UNL     1      23.692  12.307  38.438  0.00  0.00    +0.000 C 
ATOM      9  C   UNL     1      21.344  11.534  38.035  0.00  0.00    +0.000 A 
ENDROOT
BRANCH   1  16
ATOM     10  C   UNL     1      16.863  10.404  38.621  0.00  0.00    +0.000 A 
ATOM     11  C   UNL     1      15.502  10.623  38.625  0.00  0.00    +0.000 A 
ATOM     12  C   UNL     1      14.902  11.399  37.647  0.00  0.00    +0.000 A 
ATOM     13  C   UNL     1      15.667  11.965  36.649  0.00  0.00    +0.000 A 
ATOM     14 CL   UNL     1      14.904  12.954  35.402  0.00  0.00    +0.000 Cl
ATOM     15  C   UNL     1      17.021  11.734  36.665  0.00  0.00    +0.000 A 
ATOM     16  C   UNL     1      17.649  10.959  37.634  0.00  0.00    +0.000 A 
BRANCH  10  18
ATOM     17  C   UNL     1      16.902   9.475  40.885  0.00  0.00    +0.000 C 
ATOM     18  O   UNL     1      17.442   9.627  39.608  0.00  0.00    +0.000 OA
ENDBRANCH  10  18
ENDBRANCH   1  16
BRANCH   9  19
ATOM     19  C   UNL     1      21.888  10.265  37.602  0.00  0.00    +0.000 C 
ATOM     20  N   UNL     1      22.202  10.018  36.235  0.00  0.00    +0.000 NA
ATOM     21  O   UNL     1      22.099   9.344  38.414  0.00  0.00    +0.000 OA
ENDBRANCH   9  19
TORSDOF 3
ENDMDL
MODEL 4
REMARK VINA RESULT:      -5.6     20.108     22.431
REMARK  Name = 
REMARK  3 active torsions:
REMARK  status: ('A' for Active; 'I' for Inactive)
REMARK    1  A    between atoms: O_2  and  C_3
REMARK    2  A    between atoms: C_9  and  N_10
REMARK    3  A    between atoms: C_18  and  C_19
REMARK                            x       y       z     vdW  Elec       q    Type
REMARK                         _______ _______ _______ _____ _____    ______ ____
ROOT
ATOM      1  N   UNL     1      19.739  -9.776  26.776  0.00  0.00    +0.000 NA
ATOM      2  C   UNL     1      20.049  -8.461  26.342  0.00  0.00    +0.000 A 
ATOM      3  N   UNL     1      19.214  -7.449  26.629  0.00  0.00    +0.000 NA
ATOM      4  C   UNL     1      19.431  -6.175  26.257  0.00  0.00    +0.000 A 
ATOM      5  C   UNL     1      18.484  -5.085  26.593  0.00  0.00    +0.000 C 
ATOM      6  C   UNL     1      20.562  -5.841  25.540  0.00  0.00    +0.000 A 
ATOM      7  C   UNL     1      21.448  -6.836  25.222  0.00  0.00    +0.000 A 
ATOM      8  C   UNL     1      22.684  -6.527  24.449  0.00  0.00    +0.000 C 
ATOM      9  C   UNL     1      21.184  -8.150  25.628  0.00  0.00    +0.000 A 
ENDROOT
BRANCH   1  16
ATOM     10  C   UNL     1      17.437 -10.543  26.868  0.00  0.00    +0.000 A 
ATOM     11  C   UNL     1      16.297 -10.831  27.588  0.00  0.00    +0.000 A 
ATOM     12  C   UNL     1      16.258 -10.658  28.962  0.00  0.00    +0.000 A 
ATOM     13  C   UNL     1      17.370 -10.190  29.630  0.00  0.00    +0.000 A 
ATOM     14 CL   UNL     1      17.322  -9.968  31.380  0.00  0.00    +0.000 Cl
ATOM     15  C   UNL     1      18.495  -9.909  28.893  0.00  0.00    +0.000 A 
ATOM     16  C   UNL     1      18.561 -10.074  27.514  0.00  0.00    +0.000 A 
BRANCH  10  18
ATOM     17  C   UNL     1      16.945  -9.794  24.591  0.00  0.00    +0.000 C 
ATOM     18  O   UNL     1      17.454 -10.724  25.498  0.00  0.00    +0.000 OA
ENDBRANCH  10  18
ENDBRANCH   1  16
BRANCH   9  19
ATOM     19  C   UNL     1      22.127  -9.193  25.286  0.00  0.00    +0.000 C 
ATOM     20  N   UNL     1      22.035  -9.903  24.055  0.00  0.00    +0.000 NA
ATOM     21  O   UNL     1      23.051  -9.505  26.060  0.00  0.00    +0.000 OA
ENDBRANCH   9  19
TORSDOF 3
ENDMDL
MODEL 5
REMARK VINA RESULT:      -5.5     20.079     22.501
REMARK  Name = 
REMARK  3 active torsions:
REMARK  status: ('A' for Active; 'I' for Inactive)
REMARK    1  A    between atoms: O_2  and  C_3
REMARK    2  A    between atoms: C_9  and  N_10
REMARK    3  A    between atoms: C_18  and  C_19
REMARK                            x       y       z     vdW  Elec       q    Type
REMARK                         _______ _______ _______ _____ _____    ______ ____
ROOT
ATOM      1  N   UNL     1      19.682  -9.820  26.652  0.00  0.00    +0.000 NA
ATOM      2  C   UNL     1      20.016  -8.496  26.266  0.00  0.00    +0.000 A 
ATOM      3  N   UNL     1      19.186  -7.484  26.565  0.00  0.00    +0.000 NA
ATOM      4  C   UNL     1      19.424  -6.201  26.237  0.00  0.00    +0.000 A 
ATOM      5  C   UNL     1      18.482  -5.111  26.586  0.00  0.00    +0.000 C 
ATOM      6  C   UNL     1      20.575  -5.859  25.556  0.00  0.00    +0.000 A 
ATOM      7  C   UNL     1      21.457  -6.854  25.228  0.00  0.00    +0.000 A 
ATOM      8  C   UNL     1      22.714  -6.535  24.493  0.00  0.00    +0.000 C 
ATOM      9  C   UNL     1      21.169  -8.176  25.587  0.00  0.00    +0.000 A 
ENDROOT
BRANCH   1  16
ATOM     10  C   UNL     1      18.455 -10.086  28.732  0.00  0.00    +0.000 A 
ATOM     11  C   UNL     1      17.292 -10.385  29.407  0.00  0.00    +0.000 A 
ATOM     12  C   UNL     1      16.138 -10.730  28.723  0.00  0.00    +0.000 A 
ATOM     13  C   UNL     1      16.141 -10.778  27.345  0.00  0.00    +0.000 A 
ATOM     14 CL   UNL     1      14.672 -11.218  26.471  0.00  0.00    +0.000 Cl
ATOM     15  C   UNL     1      17.312 -10.476  26.691  0.00  0.00    +0.000 A 
ATOM     16  C   UNL     1      18.484 -10.127  27.353  0.00  0.00    +0.000 A 
BRANCH  10  18
ATOM     17  C   UNL     1      19.666  -9.726  30.828  0.00  0.00    +0.000 C 
ATOM     18  O   UNL     1      19.595  -9.743  29.434  0.00  0.00    +0.000 OA
ENDBRANCH  10  18
ENDBRANCH   1  16
BRANCH   9  19
ATOM     19  C   UNL     1      22.109  -9.220  25.235  0.00  0.00    +0.000 C 
ATOM     20  N   UNL     1      22.001  -9.931  24.005  0.00  0.00    +0.000 NA
ATOM     21  O   UNL     1      23.043  -9.531  25.997  0.00  0.00    +0.000 OA
ENDBRANCH   9  19
TORSDOF 3
ENDMDL
MODEL 6
REMARK VINA RESULT:      -5.4     23.313     24.398
REMARK  Name = 
REMARK  3 active torsions:
REMARK  status: ('A' for Active; 'I' for Inactive)
REMARK    1  A    between atoms: O_2  and  C_3
REMARK    2  A    between atoms: C_9  and  N_10
REMARK    3  A    between atoms: C_18  and  C_19
REMARK                            x       y       z     vdW  Elec       q    Type
REMARK                         _______ _______ _______ _____ _____    ______ ____
ROOT
ATOM      1  N   UNL     1      24.578   4.159  16.807  0.00  0.00    +0.000 NA
ATOM      2  C   UNL     1      24.878   2.776  16.900  0.00  0.00    +0.000 A 
ATOM      3  N   UNL     1      26.155   2.366  16.855  0.00  0.00    +0.000 NA
ATOM      4  C   UNL     1      26.528   1.076  16.936  0.00  0.00    +0.000 A 
ATOM      5  C   UNL     1      27.951   0.662  16.882  0.00  0.00    +0.000 C 
ATOM      6  C   UNL     1      25.578   0.084  17.074  0.00  0.00    +0.000 A 
ATOM      7  C   UNL     1      24.259   0.449  17.127  0.00  0.00    +0.000 A 
ATOM      8  C   UNL     1      23.196  -0.586  17.275  0.00  0.00    +0.000 C 
ATOM      9  C   UNL     1      23.915   1.802  17.038  0.00  0.00    +0.000 A 
ENDROOT
BRANCH   1  16
ATOM     10  C   UNL     1      25.983   5.566  15.412  0.00  0.00    +0.000 A 
ATOM     11  C   UNL     1      26.964   6.524  15.280  0.00  0.00    +0.000 A 
ATOM     12  C   UNL     1      27.569   7.084  16.393  0.00  0.00    +0.000 A 
ATOM     13  C   UNL     1      27.193   6.683  17.658  0.00  0.00    +0.000 A 
ATOM     14 CL   UNL     1      27.963   7.395  19.077  0.00  0.00    +0.000 Cl
ATOM     15  C   UNL     1      26.213   5.726  17.766  0.00  0.00    +0.000 A 
ATOM     16  C   UNL     1      25.589   5.148  16.666  0.00  0.00    +0.000 A 
BRANCH  10  18
ATOM     17  C   UNL     1      26.034   4.119  13.438  0.00  0.00    +0.000 C 
ATOM     18  O   UNL     1      25.391   5.021  14.287  0.00  0.00    +0.000 OA
ENDBRANCH  10  18
ENDBRANCH   1  16
BRANCH   9  19
ATOM     19  C   UNL     1      22.518   2.176  17.094  0.00  0.00    +0.000 C 
ATOM     20  N   UNL     1      21.719   2.243  15.917  0.00  0.00    +0.000 NA
ATOM     21  O   UNL     1      21.967   2.453  18.176  0.00  0.00    +0.000 OA
ENDBRANCH   9  19
TORSDOF 3
ENDMDL
MODEL 7
REMARK VINA RESULT:      -5.4      2.897      6.184
REMARK  Name = 
REMARK  3 active torsions:
REMARK  status: ('A' for Active; 'I' for Inactive)
REMARK    1  A    between atoms: O_2  and  C_3
REMARK    2  A    between atoms: C_9  and  N_10
REMARK    3  A    between atoms: C_18  and  C_19
REMARK                            x       y       z     vdW  Elec       q    Type
REMARK                         _______ _______ _______ _____ _____    ______ ____
ROOT
ATOM      1  N   UNL     1      19.879   8.802  40.404  0.00  0.00    +0.000 NA
ATOM      2  C   UNL     1      19.950   9.177  39.038  0.00  0.00    +0.000 A 
ATOM      3  N   UNL     1      18.826   9.253  38.307  0.00  0.00    +0.000 NA
ATOM      4  C   UNL     1      18.803   9.599  37.008  0.00  0.00    +0.000 A 
ATOM      5  C   UNL     1      17.540   9.671  36.234  0.00  0.00    +0.000 C 
ATOM      6  C   UNL     1      19.976   9.904  36.347  0.00  0.00    +0.000 A 
ATOM      7  C   UNL     1      21.151   9.844  37.048  0.00  0.00    +0.000 A 
ATOM      8  C   UNL     1      22.445  10.164  36.379  0.00  0.00    +0.000 C 
ATOM      9  C   UNL     1      21.131   9.477  38.398  0.00  0.00    +0.000 A 
ENDROOT
BRANCH   1  16
ATOM     10  C   UNL     1      18.033   7.281  40.827  0.00  0.00    +0.000 A 
ATOM     11  C   UNL     1      16.839   6.990  41.451  0.00  0.00    +0.000 A 
ATOM     12  C   UNL     1      16.236   7.902  42.301  0.00  0.00    +0.000 A 
ATOM     13  C   UNL     1      16.831   9.124  42.535  0.00  0.00    +0.000 A 
ATOM     14 CL   UNL     1      16.065  10.289  43.618  0.00  0.00    +0.000 Cl
ATOM     15  C   UNL     1      18.021   9.394  41.903  0.00  0.00    +0.000 A 
ATOM     16  C   UNL     1      18.647   8.496  41.045  0.00  0.00    +0.000 A 
BRANCH  10  18
ATOM     17  C   UNL     1      19.254   5.198  40.432  0.00  0.00    +0.000 C 
ATOM     18  O   UNL     1      18.617   6.355  39.983  0.00  0.00    +0.000 OA
ENDBRANCH  10  18
ENDBRANCH   1  16
BRANCH   9  19
ATOM     19  C   UNL     1      22.379   9.417  39.128  0.00  0.00    +0.000 C 
ATOM     20  N   UNL     1      22.893  10.554  39.816  0.00  0.00    +0.000 NA
ATOM     21  O   UNL     1      23.047   8.367  39.178  0.00  0.00    +0.000 OA
ENDBRANCH   9  19
TORSDOF 3
ENDMDL
MODEL 8
REMARK VINA RESULT:      -5.3      4.097      7.162
REMARK  Name = 
REMARK  3 active torsions:
REMARK  status: ('A' for Active; 'I' for Inactive)
REMARK    1  A    between atoms: O_2  and  C_3
REMARK    2  A    between atoms: C_9  and  N_10
REMARK    3  A    between atoms: C_18  and  C_19
REMARK                            x       y       z     vdW  Elec       q    Type
REMARK                         _______ _______ _______ _____ _____    ______ ____
ROOT
ATOM      1  N   UNL     1      20.848  12.413  39.038  0.00  0.00    +0.000 NA
ATOM      2  C   UNL     1      22.092  12.215  38.386  0.00  0.00    +0.000 A 
ATOM      3  N   UNL     1      22.292  11.108  37.654  0.00  0.00    +0.000 NA
ATOM      4  C   UNL     1      23.440  10.841  37.004  0.00  0.00    +0.000 A 
ATOM      5  C   UNL     1      23.623   9.605  36.205  0.00  0.00    +0.000 C 
ATOM      6  C   UNL     1      24.496  11.727  37.063  0.00  0.00    +0.000 A 
ATOM      7  C   UNL     1      24.343  12.874  37.796  0.00  0.00    +0.000 A 
ATOM      8  C   UNL     1      25.455  13.862  37.891  0.00  0.00    +0.000 C 
ATOM      9  C   UNL     1      23.133  13.112  38.458  0.00  0.00    +0.000 A 
ENDROOT
BRANCH   1  16
ATOM     10  C   UNL     1      19.688  10.445  39.864  0.00  0.00    +0.000 A 
ATOM     11  C   UNL     1      18.656   9.536  39.773  0.00  0.00    +0.000 A 
ATOM     12  C   UNL     1      17.704   9.635  38.773  0.00  0.00    +0.000 A 
ATOM     13  C   UNL     1      17.779  10.654  37.847  0.00  0.00    +0.000 A 
ATOM     14 CL   UNL     1      16.567  10.781  36.570  0.00  0.00    +0.000 Cl
ATOM     15  C   UNL     1      18.816  11.549  37.955  0.00  0.00    +0.000 A 
ATOM     16  C   UNL     1      19.785  11.473  38.950  0.00  0.00    +0.000 A 
BRANCH  10  18
ATOM     17  C   UNL     1      20.339  10.534  42.221  0.00  0.00    +0.000 C 
ATOM     18  O   UNL     1      20.627  10.329  40.872  0.00  0.00    +0.000 OA
ENDBRANCH  10  18
ENDBRANCH   1  16
BRANCH   9  19
ATOM     19  C   UNL     1      22.983  14.328  39.230  0.00  0.00    +0.000 C 
ATOM     20  N   UNL     1      23.321  14.376  40.612  0.00  0.00    +0.000 NA
ATOM     21  O   UNL     1      22.551  15.373  38.709  0.00  0.00    +0.000 OA
ENDBRANCH   9  19
TORSDOF 3
ENDMDL
MODEL 9
REMARK VINA RESULT:      -5.3      2.521      5.669
REMARK  Name = 
REMARK  3 active torsions:
REMARK  status: ('A' for Active; 'I' for Inactive)
REMARK    1  A    between atoms: O_2  and  C_3
REMARK    2  A    between atoms: C_9  and  N_10
REMARK    3  A    between atoms: C_18  and  C_19
REMARK                            x       y       z     vdW  Elec       q    Type
REMARK                         _______ _______ _______ _____ _____    ______ ____
ROOT
ATOM      1  N   UNL     1      18.491   7.626  39.378  0.00  0.00    +0.000 NA
ATOM      2  C   UNL     1      19.178   8.824  39.701  0.00  0.00    +0.000 A 
ATOM      3  N   UNL     1      19.821   8.928  40.875  0.00  0.00    +0.000 NA
ATOM      4  C   UNL     1      20.496  10.026  41.261  0.00  0.00    +0.000 A 
ATOM      5  C   UNL     1      21.194  10.103  42.567  0.00  0.00    +0.000 C 
ATOM      6  C   UNL     1      20.559  11.131  40.436  0.00  0.00    +0.000 A 
ATOM      7  C   UNL     1      19.920  11.076  39.226  0.00  0.00    +0.000 A 
ATOM      8  C   UNL     1      19.959  12.243  38.300  0.00  0.00    +0.000 C 
ATOM      9  C   UNL     1      19.228   9.915  38.863  0.00  0.00    +0.000 A 
ENDROOT
BRANCH   1  16
ATOM     10  C   UNL     1      17.455   6.407  41.206  0.00  0.00    +0.000 A 
ATOM     11  C   UNL     1      17.423   5.324  42.058  0.00  0.00    +0.000 A 
ATOM     12  C   UNL     1      18.380   4.326  41.981  0.00  0.00    +0.000 A 
ATOM     13  C   UNL     1      19.387   4.407  41.043  0.00  0.00    +0.000 A 
ATOM     14 CL   UNL     1      20.609   3.138  40.943  0.00  0.00    +0.000 Cl
ATOM     15  C   UNL     1      19.401   5.496  40.203  0.00  0.00    +0.000 A 
ATOM     16  C   UNL     1      18.452   6.511  40.259  0.00  0.00    +0.000 A 
BRANCH  10  18
ATOM     17  C   UNL     1      15.838   7.721  42.488  0.00  0.00    +0.000 C 
ATOM     18  O   UNL     1      16.489   7.391  41.299  0.00  0.00    +0.000 OA
ENDBRANCH  10  18
ENDBRANCH   1  16
BRANCH   9  19
ATOM     19  C   UNL     1      18.557   9.868  37.582  0.00  0.00    +0.000 C 
ATOM     20  N   UNL     1      17.186  10.227  37.449  0.00  0.00    +0.000 NA
ATOM     21  O   UNL     1      19.159   9.511  36.552  0.00  0.00    +0.000 OA
ENDBRANCH   9  19
TORSDOF 3
ENDMDL
MODEL 10
REMARK VINA RESULT:      -5.3     19.856     21.636
REMARK  Name = 
REMARK  3 active torsions:
REMARK  status: ('A' for Active; 'I' for Inactive)
REMARK    1  A    between atoms: O_2  and  C_3
REMARK    2  A    between atoms: C_9  and  N_10
REMARK    3  A    between atoms: C_18  and  C_19
REMARK                            x       y       z     vdW  Elec       q    Type
REMARK                         _______ _______ _______ _____ _____    ______ ____
ROOT
ATOM      1  N   UNL     1      18.355  -8.910  25.937  0.00  0.00    +0.000 NA
ATOM      2  C   UNL     1      18.076  -9.471  27.210  0.00  0.00    +0.000 A 
ATOM      3  N   UNL     1      18.983  -9.375  28.195  0.00  0.00    +0.000 NA
ATOM      4  C   UNL     1      18.801  -9.878  29.429  0.00  0.00    +0.000 A 
ATOM      5  C   UNL     1      19.828  -9.752  30.491  0.00  0.00    +0.000 C 
ATOM      6  C   UNL     1      17.630 -10.537  29.747  0.00  0.00    +0.000 A 
ATOM      7  C   UNL     1      16.670 -10.661  28.778  0.00  0.00    +0.000 A 
ATOM      8  C   UNL     1      15.389 -11.364  29.072  0.00  0.00    +0.000 C 
ATOM      9  C   UNL     1      16.901 -10.124  27.506  0.00  0.00    +0.000 A 
ENDROOT
BRANCH   1  16
ATOM     10  C   UNL     1      19.654  -6.866  25.756  0.00  0.00    +0.000 A 
ATOM     11  C   UNL     1      20.840  -6.220  25.480  0.00  0.00    +0.000 A 
ATOM     12  C   UNL     1      21.967  -6.929  25.098  0.00  0.00    +0.000 A 
ATOM     13  C   UNL     1      21.914  -8.303  24.989  0.00  0.00    +0.000 A 
ATOM     14 CL   UNL     1      23.348  -9.209  24.502  0.00  0.00    +0.000 Cl
ATOM     15  C   UNL     1      20.721  -8.927  25.268  0.00  0.00    +0.000 A 
ATOM     16  C   UNL     1      19.576  -8.239  25.654  0.00  0.00    +0.000 A 
BRANCH  10  18
ATOM     17  C   UNL     1      18.606  -4.838  26.639  0.00  0.00    +0.000 C 
ATOM     18  O   UNL     1      18.542  -6.138  26.137  0.00  0.00    +0.000 OA
ENDBRANCH  10  18
ENDBRANCH   1  16
BRANCH   9  19
ATOM     19  C   UNL     1      15.880 -10.262  26.490  0.00  0.00    +0.000 C 
ATOM     20  N   UNL     1      14.874  -9.269  26.309  0.00  0.00    +0.000 NA
ATOM     21  O   UNL     1      15.846 -11.255  25.740  0.00  0.00    +0.000 OA
ENDBRANCH   9  19
TORSDOF 3
ENDMDL
