MODEL 1
REMARK VINA RESULT:      -6.8      0.000      0.000
REMARK  Name = 
REMARK  2 active torsions:
REMARK  status: ('A' for Active; 'I' for Inactive)
REMARK    1  A    between atoms: C_6  and  C_7
REMARK    2  A    between atoms: C_11  and  C_12
REMARK                            x       y       z     vdW  Elec       q    Type
REMARK                         _______ _______ _______ _____ _____    ______ ____
ROOT
ATOM      1  C   UNL     1      28.700  26.296  26.944  0.00  0.00    +0.000 C 
ATOM      2  C   UNL     1      28.557  25.776  25.492  0.00  0.00    +0.000 C 
ATOM      3  C   UNL     1      29.514  26.008  24.690  0.00  0.00    +0.000 C 
ATOM      4  C   UNL     1      29.724  25.662  23.224  0.00  0.00    +0.000 C 
ATOM      5  C   UNL     1      28.796  26.808  22.559  0.00  0.00    +0.000 C 
ATOM      6  C   UNL     1      28.656  24.442  23.119  0.00  0.00    +0.000 C 
ATOM      7  C   UNL     1      29.123  23.385  23.906  0.00  0.00    +0.000 C 
ATOM      8  O   UNL     1      29.003  23.346  25.281  0.00  0.00    +0.000 OA
ATOM      9  C   UNL     1      27.509  23.413  25.251  0.00  0.00    +0.000 C 
ATOM     10  C   UNL     1      27.262  25.049  25.153  0.00  0.00    +0.000 C 
ATOM     11  C   UNL     1      27.284  25.174  23.500  0.00  0.00    +0.000 C 
ATOM     12  C   UNL     1      26.305  23.944  23.100  0.00  0.00    +0.000 C 
ENDROOT
BRANCH   9  13
ATOM     13  C   UNL     1      27.210  23.215  26.792  0.00  0.00    +0.000 A 
ATOM     14  C   UNL     1      27.909  22.485  27.617  0.00  0.00    +0.000 A 
ATOM     15  C   UNL     1      27.604  22.350  28.947  0.00  0.00    +0.000 A 
ATOM     16  C   UNL     1      26.512  23.005  29.470  0.00  0.00    +0.000 A 
ATOM     17  O   UNL     1      26.171  22.887  30.830  0.00  0.00    +0.000 OA
ATOM     18  C   UNL     1      25.771  23.775  28.604  0.00  0.00    +0.000 A 
ATOM     19  C   UNL     1      26.097  23.894  27.279  0.00  0.00    +0.000 A 
ENDBRANCH   9  13
BRANCH   6  20
ATOM     20  C   UNL     1      28.597  24.265  21.664  0.00  0.00    +0.000 C 
ATOM     21  O   UNL     1      29.752  24.187  20.966  0.00  0.00    +0.000 OA
ENDBRANCH   6  20
TORSDOF 2
ENDMDL
MODEL 2
REMARK VINA RESULT:      -6.7      1.793      2.354
REMARK  Name = 
REMARK  2 active torsions:
REMARK  status: ('A' for Active; 'I' for Inactive)
REMARK    1  A    between atoms: C_6  and  C_7
REMARK    2  A    between atoms: C_11  and  C_12
REMARK                            x       y       z     vdW  Elec       q    Type
REMARK                         _______ _______ _______ _____ _____    ______ ____
ROOT
ATOM      1  C   UNL     1      29.537  23.781  27.383  0.00  0.00    +0.000 C 
ATOM      2  C   UNL     1      28.782  23.925  26.038  0.00  0.00    +0.000 C 
ATOM      3  C   UNL     1      29.131  23.160  25.086  0.00  0.00    +0.000 C 
ATOM      4  C   UNL     1      28.631  23.018  23.657  0.00  0.00    +0.000 C 
ATOM      5  C   UNL     1      29.378  24.293  23.000  0.00  0.00    +0.000 C 
ATOM      6  C   UNL     1      27.173  23.707  23.851  0.00  0.00    +0.000 C 
ATOM      7  C   UNL     1      26.409  22.884  24.683  0.00  0.00    +0.000 C 
ATOM      8  O   UNL     1      26.551  22.844  26.056  0.00  0.00    +0.000 OA
ATOM      9  C   UNL     1      26.218  24.292  26.232  0.00  0.00    +0.000 C 
ATOM     10  C   UNL     1      27.699  24.994  25.977  0.00  0.00    +0.000 C 
ATOM     11  C   UNL     1      27.570  25.181  24.335  0.00  0.00    +0.000 C 
ATOM     12  C   UNL     1      26.080  25.814  24.227  0.00  0.00    +0.000 C 
ENDROOT
BRANCH   9  13
ATOM     13  C   UNL     1      26.188  24.359  27.813  0.00  0.00    +0.000 A 
ATOM     14  C   UNL     1      26.209  23.335  28.620  0.00  0.00    +0.000 A 
ATOM     15  C   UNL     1      26.181  23.453  29.987  0.00  0.00    +0.000 A 
ATOM     16  C   UNL     1      26.130  24.700  30.566  0.00  0.00    +0.000 A 
ATOM     17  O   UNL     1      26.100  24.856  31.964  0.00  0.00    +0.000 OA
ATOM     18  C   UNL     1      26.107  25.783  29.719  0.00  0.00    +0.000 A 
ATOM     19  C   UNL     1      26.136  25.639  28.357  0.00  0.00    +0.000 A 
ENDBRANCH   9  13
BRANCH   6  20
ATOM     20  C   UNL     1      26.766  23.868  22.451  0.00  0.00    +0.000 C 
ATOM     21  O   UNL     1      25.774  23.090  21.964  0.00  0.00    +0.000 OA
ENDBRANCH   6  20
TORSDOF 2
ENDMDL
MODEL 3
REMARK VINA RESULT:      -6.5      2.258      6.182
REMARK  Name = 
REMARK  2 active torsions:
REMARK  status: ('A' for Active; 'I' for Inactive)
REMARK    1  A    between atoms: C_6  and  C_7
REMARK    2  A    between atoms: C_11  and  C_12
REMARK                            x       y       z     vdW  Elec       q    Type
REMARK                         _______ _______ _______ _____ _____    ______ ____
ROOT
ATOM      1  C   UNL     1      32.380  23.718  24.581  0.00  0.00    +0.000 C 
ATOM      2  C   UNL     1      31.462  23.444  25.799  0.00  0.00    +0.000 C 
ATOM      3  C   UNL     1      31.926  23.707  26.952  0.00  0.00    +0.000 C 
ATOM      4  C   UNL     1      31.332  23.572  28.346  0.00  0.00    +0.000 C 
ATOM      5  C   UNL     1      31.531  21.980  28.551  0.00  0.00    +0.000 C 
ATOM      6  C   UNL     1      29.763  23.533  27.927  0.00  0.00    +0.000 C 
ATOM      7  C   UNL     1      29.419  24.784  27.407  0.00  0.00    +0.000 C 
ATOM      8  O   UNL     1      29.732  25.190  26.125  0.00  0.00    +0.000 OA
ATOM      9  C   UNL     1      28.965  24.080  25.480  0.00  0.00    +0.000 C 
ATOM     10  C   UNL     1      30.088  22.860  25.499  0.00  0.00    +0.000 C 
ATOM     11  C   UNL     1      29.707  22.237  26.987  0.00  0.00    +0.000 C 
ATOM     12  C   UNL     1      28.091  22.167  26.871  0.00  0.00    +0.000 C 
ENDROOT
BRANCH   9  13
ATOM     13  C   UNL     1      29.106  24.514  23.965  0.00  0.00    +0.000 A 
ATOM     14  C   UNL     1      28.950  23.735  22.930  0.00  0.00    +0.000 A 
ATOM     15  C   UNL     1      29.085  24.167  21.636  0.00  0.00    +0.000 A 
ATOM     16  C   UNL     1      29.398  25.482  21.381  0.00  0.00    +0.000 A 
ATOM     17  O   UNL     1      29.544  25.958  20.064  0.00  0.00    +0.000 OA
ATOM     18  C   UNL     1      29.564  26.307  22.468  0.00  0.00    +0.000 A 
ATOM     19  C   UNL     1      29.424  25.853  23.753  0.00  0.00    +0.000 A 
ENDBRANCH   9  13
BRANCH   6  20
ATOM     20  C   UNL     1      29.159  23.105  29.194  0.00  0.00    +0.000 C 
ATOM     21  O   UNL     1      28.523  24.021  29.958  0.00  0.00    +0.000 OA
ENDBRANCH   6  20
TORSDOF 2
ENDMDL
MODEL 4
REMARK VINA RESULT:      -6.2      1.615      5.976
REMARK  Name = 
REMARK  2 active torsions:
REMARK  status: ('A' for Active; 'I' for Inactive)
REMARK    1  A    between atoms: C_6  and  C_7
REMARK    2  A    between atoms: C_11  and  C_12
REMARK                            x       y       z     vdW  Elec       q    Type
REMARK                         _______ _______ _______ _____ _____    ______ ____
ROOT
ATOM      1  C   UNL     1      25.890  26.638  24.576  0.00  0.00    +0.000 C 
ATOM      2  C   UNL     1      26.030  26.068  26.010  0.00  0.00    +0.000 C 
ATOM      3  C   UNL     1      24.961  25.833  26.654  0.00  0.00    +0.000 C 
ATOM      4  C   UNL     1      24.711  25.287  28.051  0.00  0.00    +0.000 C 
ATOM      5  C   UNL     1      25.015  26.627  28.904  0.00  0.00    +0.000 C 
ATOM      6  C   UNL     1      26.148  24.564  28.278  0.00  0.00    +0.000 C 
ATOM      7  C   UNL     1      26.244  23.495  27.383  0.00  0.00    +0.000 C 
ATOM      8  O   UNL     1      26.553  23.644  26.046  0.00  0.00    +0.000 OA
ATOM      9  C   UNL     1      27.882  24.274  26.321  0.00  0.00    +0.000 C 
ATOM     10  C   UNL     1      27.449  25.861  26.524  0.00  0.00    +0.000 C 
ATOM     11  C   UNL     1      27.159  25.800  28.155  0.00  0.00    +0.000 C 
ATOM     12  C   UNL     1      28.479  25.004  28.658  0.00  0.00    +0.000 C 
ENDROOT
BRANCH   9  13
ATOM     13  C   UNL     1      28.436  24.362  24.841  0.00  0.00    +0.000 A 
ATOM     14  C   UNL     1      29.304  25.232  24.403  0.00  0.00    +0.000 A 
ATOM     15  C   UNL     1      29.751  25.262  23.107  0.00  0.00    +0.000 A 
ATOM     16  C   UNL     1      29.280  24.342  22.198  0.00  0.00    +0.000 A 
ATOM     17  O   UNL     1      29.718  24.346  20.860  0.00  0.00    +0.000 OA
ATOM     18  C   UNL     1      28.365  23.424  22.655  0.00  0.00    +0.000 A 
ATOM     19  C   UNL     1      27.934  23.414  23.955  0.00  0.00    +0.000 A 
ENDBRANCH   9  13
BRANCH   6  20
ATOM     20  C   UNL     1      26.077  24.278  29.715  0.00  0.00    +0.000 C 
ATOM     21  O   UNL     1      25.860  23.006  30.119  0.00  0.00    +0.000 OA
ENDBRANCH   6  20
TORSDOF 2
ENDMDL
MODEL 5
REMARK VINA RESULT:      -6.1      2.775      4.552
REMARK  Name = 
REMARK  2 active torsions:
REMARK  status: ('A' for Active; 'I' for Inactive)
REMARK    1  A    between atoms: C_6  and  C_7
REMARK    2  A    between atoms: C_11  and  C_12
REMARK                            x       y       z     vdW  Elec       q    Type
REMARK                         _______ _______ _______ _____ _____    ______ ____
ROOT
ATOM      1  C   UNL     1      29.918  26.932  24.792  0.00  0.00    +0.000 C 
ATOM      2  C   UNL     1      28.803  25.873  24.604  0.00  0.00    +0.000 C 
ATOM      3  C   UNL     1      27.960  26.069  23.674  0.00  0.00    +0.000 C 
ATOM      4  C   UNL     1      26.756  25.268  23.203  0.00  0.00    +0.000 C 
ATOM      5  C   UNL     1      25.700  25.701  24.350  0.00  0.00    +0.000 C 
ATOM      6  C   UNL     1      27.172  23.831  23.835  0.00  0.00    +0.000 C 
ATOM      7  C   UNL     1      28.312  23.374  23.166  0.00  0.00    +0.000 C 
ATOM      8  O   UNL     1      29.586  23.836  23.427  0.00  0.00    +0.000 OA
ATOM      9  C   UNL     1      29.558  23.401  24.858  0.00  0.00    +0.000 C 
ATOM     10  C   UNL     1      28.810  24.697  25.572  0.00  0.00    +0.000 C 
ATOM     11  C   UNL     1      27.248  24.170  25.398  0.00  0.00    +0.000 C 
ATOM     12  C   UNL     1      27.397  22.638  25.909  0.00  0.00    +0.000 C 
ENDROOT
BRANCH   9  13
ATOM     13  C   UNL     1      31.052  23.734  25.258  0.00  0.00    +0.000 A 
ATOM     14  C   UNL     1      32.047  23.890  24.429  0.00  0.00    +0.000 A 
ATOM     15  C   UNL     1      33.326  24.178  24.833  0.00  0.00    +0.000 A 
ATOM     16  C   UNL     1      33.606  24.317  26.173  0.00  0.00    +0.000 A 
ATOM     17  O   UNL     1      34.907  24.613  26.621  0.00  0.00    +0.000 OA
ATOM     18  C   UNL     1      32.561  24.153  27.051  0.00  0.00    +0.000 A 
ATOM     19  C   UNL     1      31.292  23.866  26.623  0.00  0.00    +0.000 A 
ENDBRANCH   9  13
BRANCH   6  20
ATOM     20  C   UNL     1      25.914  23.093  23.671  0.00  0.00    +0.000 C 
ATOM     21  O   UNL     1      25.483  22.804  22.423  0.00  0.00    +0.000 OA
ENDBRANCH   6  20
TORSDOF 2
ENDMDL
MODEL 6
REMARK VINA RESULT:      -6.0     20.404     21.778
REMARK  Name = 
REMARK  2 active torsions:
REMARK  status: ('A' for Active; 'I' for Inactive)
REMARK    1  A    between atoms: C_6  and  C_7
REMARK    2  A    between atoms: C_11  and  C_12
REMARK                            x       y       z     vdW  Elec       q    Type
REMARK                         _______ _______ _______ _____ _____    ______ ____
ROOT
ATOM      1  C   UNL     1      27.552   2.189  16.265  0.00  0.00    +0.000 C 
ATOM      2  C   UNL     1      27.935   3.690  16.233  0.00  0.00    +0.000 C 
ATOM      3  C   UNL     1      28.637   4.094  15.254  0.00  0.00    +0.000 C 
ATOM      4  C   UNL     1      29.193   5.463  14.894  0.00  0.00    +0.000 C 
ATOM      5  C   UNL     1      30.455   5.496  15.906  0.00  0.00    +0.000 C 
ATOM      6  C   UNL     1      28.183   6.366  15.790  0.00  0.00    +0.000 C 
ATOM      7  C   UNL     1      26.898   6.243  15.256  0.00  0.00    +0.000 C 
ATOM      8  O   UNL     1      26.082   5.151  15.473  0.00  0.00    +0.000 OA
ATOM      9  C   UNL     1      26.062   5.336  16.957  0.00  0.00    +0.000 C 
ATOM     10  C   UNL     1      27.450   4.542  17.398  0.00  0.00    +0.000 C 
ATOM     11  C   UNL     1      28.487   5.828  17.268  0.00  0.00    +0.000 C 
ATOM     12  C   UNL     1      27.641   6.968  18.053  0.00  0.00    +0.000 C 
ENDROOT
BRANCH   9  13
ATOM     13  C   UNL     1      25.011   4.218  17.343  0.00  0.00    +0.000 A 
ATOM     14  C   UNL     1      24.909   3.635  18.506  0.00  0.00    +0.000 A 
ATOM     15  C   UNL     1      23.976   2.669  18.784  0.00  0.00    +0.000 A 
ATOM     16  C   UNL     1      23.088   2.273  17.811  0.00  0.00    +0.000 A 
ATOM     17  O   UNL     1      22.118   1.285  18.065  0.00  0.00    +0.000 OA
ATOM     18  C   UNL     1      23.192   2.884  16.584  0.00  0.00    +0.000 A 
ATOM     19  C   UNL     1      24.132   3.846  16.329  0.00  0.00    +0.000 A 
ENDBRANCH   9  13
BRANCH   6  20
ATOM     20  C   UNL     1      28.856   7.668  15.719  0.00  0.00    +0.000 C 
ATOM     21  O   UNL     1      28.639   8.459  14.645  0.00  0.00    +0.000 OA
ENDBRANCH   6  20
TORSDOF 2
ENDMDL
MODEL 7
REMARK VINA RESULT:      -5.9     17.476     20.203
REMARK  Name = 
REMARK  2 active torsions:
REMARK  status: ('A' for Active; 'I' for Inactive)
REMARK    1  A    between atoms: C_6  and  C_7
REMARK    2  A    between atoms: C_11  and  C_12
REMARK                            x       y       z     vdW  Elec       q    Type
REMARK                         _______ _______ _______ _____ _____    ______ ____
ROOT
ATOM      1  C   UNL     1      20.731  13.030  38.756  0.00  0.00    +0.000 C 
ATOM      2  C   UNL     1      21.988  12.218  38.359  0.00  0.00    +0.000 C 
ATOM      3  C   UNL     1      23.114  12.646  38.763  0.00  0.00    +0.000 C 
ATOM      4  C   UNL     1      24.531  12.127  38.575  0.00  0.00    +0.000 C 
ATOM      5  C   UNL     1      24.793  12.651  37.067  0.00  0.00    +0.000 C 
ATOM      6  C   UNL     1      24.166  10.588  38.200  0.00  0.00    +0.000 C 
ATOM      7  C   UNL     1      23.608   9.985  39.331  0.00  0.00    +0.000 C 
ATOM      8  O   UNL     1      22.301  10.177  39.732  0.00  0.00    +0.000 OA
ATOM      9  C   UNL     1      21.727   9.636  38.461  0.00  0.00    +0.000 C 
ATOM     10  C   UNL     1      21.758  10.984  37.496  0.00  0.00    +0.000 C 
ATOM     11  C   UNL     1      23.282  10.775  36.878  0.00  0.00    +0.000 C 
ATOM     12  C   UNL     1      23.222   9.204  36.477  0.00  0.00    +0.000 C 
ENDROOT
BRANCH   9  13
ATOM     13  C   UNL     1      20.192   9.649  38.844  0.00  0.00    +0.000 A 
ATOM     14  C   UNL     1      19.196   9.647  38.003  0.00  0.00    +0.000 A 
ATOM     15  C   UNL     1      17.881   9.659  38.393  0.00  0.00    +0.000 A 
ATOM     16  C   UNL     1      17.563   9.671  39.732  0.00  0.00    +0.000 A 
ATOM     17  O   UNL     1      16.224   9.683  40.165  0.00  0.00    +0.000 OA
ATOM     18  C   UNL     1      18.610   9.674  40.623  0.00  0.00    +0.000 A 
ATOM     19  C   UNL     1      19.916   9.662  40.209  0.00  0.00    +0.000 A 
ENDBRANCH   9  13
BRANCH   6  20
ATOM     20  C   UNL     1      25.469  10.116  37.718  0.00  0.00    +0.000 C 
ATOM     21  O   UNL     1      26.157   9.221  38.462  0.00  0.00    +0.000 OA
ENDBRANCH   6  20
TORSDOF 2
ENDMDL
MODEL 8
REMARK VINA RESULT:      -5.8      2.105      2.480
REMARK  Name = 
REMARK  2 active torsions:
REMARK  status: ('A' for Active; 'I' for Inactive)
REMARK    1  A    between atoms: C_6  and  C_7
REMARK    2  A    between atoms: C_11  and  C_12
REMARK                            x       y       z     vdW  Elec       q    Type
REMARK                         _______ _______ _______ _____ _____    ______ ____
ROOT
ATOM      1  C   UNL     1      30.167  25.973  25.692  0.00  0.00    +0.000 C 
ATOM      2  C   UNL     1      29.074  25.484  24.709  0.00  0.00    +0.000 C 
ATOM      3  C   UNL     1      29.195  25.812  23.488  0.00  0.00    +0.000 C 
ATOM      4  C   UNL     1      28.340  25.524  22.264  0.00  0.00    +0.000 C 
ATOM      5  C   UNL     1      27.168  26.611  22.514  0.00  0.00    +0.000 C 
ATOM      6  C   UNL     1      27.546  24.227  22.835  0.00  0.00    +0.000 C 
ATOM      7  C   UNL     1      28.468  23.189  22.999  0.00  0.00    +0.000 C 
ATOM      8  O   UNL     1      29.339  23.103  24.067  0.00  0.00    +0.000 OA
ATOM      9  C   UNL     1      28.243  23.052  25.084  0.00  0.00    +0.000 C 
ATOM     10  C   UNL     1      27.936  24.666  25.306  0.00  0.00    +0.000 C 
ATOM     11  C   UNL     1      26.799  24.838  24.113  0.00  0.00    +0.000 C 
ATOM     12  C   UNL     1      25.864  23.546  24.411  0.00  0.00    +0.000 C 
ENDROOT
BRANCH   9  13
ATOM     13  C   UNL     1      29.108  22.790  26.383  0.00  0.00    +0.000 A 
ATOM     14  C   UNL     1      30.306  22.273  26.410  0.00  0.00    +0.000 A 
ATOM     15  C   UNL     1      31.011  22.067  27.569  0.00  0.00    +0.000 A 
ATOM     16  C   UNL     1      30.456  22.414  28.779  0.00  0.00    +0.000 A 
ATOM     17  O   UNL     1      31.153  22.216  29.986  0.00  0.00    +0.000 OA
ATOM     18  C   UNL     1      29.194  22.958  28.756  0.00  0.00    +0.000 A 
ATOM     19  C   UNL     1      28.509  23.154  27.586  0.00  0.00    +0.000 A 
ENDBRANCH   9  13
BRANCH   6  20
ATOM     20  C   UNL     1      26.498  24.086  21.818  0.00  0.00    +0.000 C 
ATOM     21  O   UNL     1      25.734  22.972  21.816  0.00  0.00    +0.000 OA
ENDBRANCH   6  20
TORSDOF 2
ENDMDL
MODEL 9
REMARK VINA RESULT:      -5.8     22.046     23.589
REMARK  Name = 
REMARK  2 active torsions:
REMARK  status: ('A' for Active; 'I' for Inactive)
REMARK    1  A    between atoms: C_6  and  C_7
REMARK    2  A    between atoms: C_11  and  C_12
REMARK                            x       y       z     vdW  Elec       q    Type
REMARK                         _______ _______ _______ _____ _____    ______ ____
ROOT
ATOM      1  C   UNL     1      27.164   1.787  16.803  0.00  0.00    +0.000 C 
ATOM      2  C   UNL     1      25.632   1.581  16.705  0.00  0.00    +0.000 C 
ATOM      3  C   UNL     1      25.144   0.547  17.259  0.00  0.00    +0.000 C 
ATOM      4  C   UNL     1      23.721   0.024  17.367  0.00  0.00    +0.000 C 
ATOM      5  C   UNL     1      23.573  -0.612  15.887  0.00  0.00    +0.000 C 
ATOM      6  C   UNL     1      22.938   1.417  17.075  0.00  0.00    +0.000 C 
ATOM      7  C   UNL     1      23.184   2.287  18.141  0.00  0.00    +0.000 C 
ATOM      8  O   UNL     1      24.357   2.999  18.290  0.00  0.00    +0.000 OA
ATOM      9  C   UNL     1      24.197   3.726  16.992  0.00  0.00    +0.000 C 
ATOM     10  C   UNL     1      24.851   2.634  15.930  0.00  0.00    +0.000 C 
ATOM     11  C   UNL     1      23.464   1.786  15.608  0.00  0.00    +0.000 C 
ATOM     12  C   UNL     1      22.428   3.006  15.346  0.00  0.00    +0.000 C 
ENDROOT
BRANCH   9  13
ATOM     13  C   UNL     1      25.422   4.721  17.100  0.00  0.00    +0.000 A 
ATOM     14  C   UNL     1      25.893   5.460  16.133  0.00  0.00    +0.000 A 
ATOM     15  C   UNL     1      26.960   6.307  16.285  0.00  0.00    +0.000 A 
ATOM     16  C   UNL     1      27.588   6.408  17.505  0.00  0.00    +0.000 A 
ATOM     17  O   UNL     1      28.686   7.268  17.694  0.00  0.00    +0.000 OA
ATOM     18  C   UNL     1      27.096   5.631  18.527  0.00  0.00    +0.000 A 
ATOM     19  C   UNL     1      26.028   4.792  18.352  0.00  0.00    +0.000 A 
ENDBRANCH   9  13
BRANCH   6  20
ATOM     20  C   UNL     1      21.573   0.918  16.871  0.00  0.00    +0.000 C 
ATOM     21  O   UNL     1      20.610   1.267  17.753  0.00  0.00    +0.000 OA
ENDBRANCH   6  20
TORSDOF 2
ENDMDL
MODEL 10
REMARK VINA RESULT:      -5.7     15.916     17.868
REMARK  Name = 
REMARK  2 active torsions:
REMARK  status: ('A' for Active; 'I' for Inactive)
REMARK    1  A    between atoms: C_6  and  C_7
REMARK    2  A    between atoms: C_11  and  C_12
REMARK                            x       y       z     vdW  Elec       q    Type
REMARK                         _______ _______ _______ _____ _____    ______ ____
ROOT
ATOM      1  C   UNL     1      10.474  24.145  23.593  0.00  0.00    +0.000 C 
ATOM      2  C   UNL     1      10.241  23.031  22.542  0.00  0.00    +0.000 C 
ATOM      3  C   UNL     1       9.039  22.724  22.271  0.00  0.00    +0.000 C 
ATOM      4  C   UNL     1       8.436  21.704  21.317  0.00  0.00    +0.000 C 
ATOM      5  C   UNL     1       8.651  20.370  22.206  0.00  0.00    +0.000 C 
ATOM      6  C   UNL     1       9.720  21.513  20.340  0.00  0.00    +0.000 C 
ATOM      7  C   UNL     1       9.927  22.712  19.652  0.00  0.00    +0.000 C 
ATOM      8  O   UNL     1      10.539  23.816  20.209  0.00  0.00    +0.000 OA
ATOM      9  C   UNL     1      11.820  23.093  20.481  0.00  0.00    +0.000 C 
ATOM     10  C   UNL     1      11.485  22.387  21.944  0.00  0.00    +0.000 C 
ATOM     11  C   UNL     1      10.832  20.980  21.363  0.00  0.00    +0.000 C 
ATOM     12  C   UNL     1      11.935  20.586  20.241  0.00  0.00    +0.000 C 
ENDROOT
BRANCH   9  13
ATOM     13  C   UNL     1      12.698  24.305  20.993  0.00  0.00    +0.000 A 
ATOM     14  C   UNL     1      12.365  25.565  20.939  0.00  0.00    +0.000 A 
ATOM     15  C   UNL     1      13.168  26.577  21.399  0.00  0.00    +0.000 A 
ATOM     16  C   UNL     1      14.393  26.282  21.951  0.00  0.00    +0.000 A 
ATOM     17  O   UNL     1      15.242  27.297  22.432  0.00  0.00    +0.000 OA
ATOM     18  C   UNL     1      14.750  24.956  22.010  0.00  0.00    +0.000 A 
ATOM     19  C   UNL     1      13.930  23.962  21.544  0.00  0.00    +0.000 A 
ENDBRANCH   9  13
BRANCH   6  20
ATOM     20  C   UNL     1       9.305  20.327  19.584  0.00  0.00    +0.000 C 
ATOM     21  O   UNL     1       8.304  20.442  18.683  0.00  0.00    +0.000 OA
ENDBRANCH   6  20
TORSDOF 2
ENDMDL
