MODEL 1
REMARK VINA RESULT:      -8.3      0.000      0.000
REMARK  Name = 
REMARK  7 active torsions:
REMARK  status: ('A' for Active; 'I' for Inactive)
REMARK    1  A    between atoms: C_2  and  C_5
REMARK    2  A    between atoms: C_9  and  N_10
REMARK    3  A    between atoms: N_10  and  C_11
REMARK    4  A    between atoms: C_11  and  C_12
REMARK    5  A    between atoms: C_12  and  C_13
REMARK    6  A    between atoms: C_21  and  C_22
REMARK    7  A    between atoms: C_22  and  C_24
REMARK                            x       y       z     vdW  Elec       q    Type
REMARK                         _______ _______ _______ _____ _____    ______ ____
ROOT
ATOM      1  C   UNL     1      39.631  -0.767  15.169  0.00  0.00    +0.000 C 
ATOM      2  C   UNL     1      39.108  -0.067  13.764  0.00  0.00    +0.000 C 
ATOM      3  O   UNL     1      38.400   1.092  14.182  0.00  0.00    +0.000 OA
ATOM      4  C   UNL     1      37.312   0.936  15.015  0.00  0.00    +0.000 A 
ATOM      5  C   UNL     1      36.324   1.887  15.191  0.00  0.00    +0.000 A 
ATOM      6  C   UNL     1      35.248   1.677  16.044  0.00  0.00    +0.000 A 
ATOM      7  C   UNL     1      35.168   0.496  16.728  0.00  0.00    +0.000 A 
ATOM      8  C   UNL     1      36.160  -0.453  16.548  0.00  0.00    +0.000 A 
ATOM      9  C   UNL     1      37.226  -0.248  15.704  0.00  0.00    +0.000 A 
ATOM     10  N   UNL     1      38.187  -1.262  15.581  0.00  0.00    +0.000 NA
ENDROOT
BRANCH   1  12
ATOM     11  C   UNL     1      38.865  -2.563  13.593  0.00  0.00    +0.000 C 
ATOM     12  C   UNL     1      40.050  -2.202  14.487  0.00  0.00    +0.000 C 
ATOM     13  C   UNL     1      40.067  -3.208  15.605  0.00  0.00    +0.000 C 
ATOM     14  C   UNL     1      41.259  -2.082  13.703  0.00  0.00    +0.000 C 
ENDBRANCH   1  12
BRANCH   8  15
ATOM     15  C   UNL     1      36.071  -1.711  17.276  0.00  0.00    +0.000 C 
ATOM     16  O   UNL     1      36.323  -1.746  18.485  0.00  0.00    +0.000 OA
BRANCH  15  17
ATOM     17  C   UNL     1      35.683  -2.943  16.596  0.00  0.00    +0.000 A 
ATOM     18  C   UNL     1      34.533  -3.046  15.844  0.00  0.00    +0.000 A 
ATOM     19  C   UNL     1      34.235  -4.261  15.226  0.00  0.00    +0.000 A 
ATOM     20  C   UNL     1      35.054  -5.331  15.355  0.00  0.00    +0.000 A 
ATOM     21  C   UNL     1      36.198  -5.209  16.111  0.00  0.00    +0.000 A 
ATOM     22  C   UNL     1      36.507  -4.026  16.724  0.00  0.00    +0.000 A 
ENDBRANCH  15  17
ENDBRANCH   8  15
BRANCH   5  23
ATOM     23  N   UNL     1      36.467   3.087  14.453  0.00  0.00    +0.000 NA
BRANCH  23  24
ATOM     24  C   UNL     1      36.802   4.363  15.101  0.00  0.00    +0.000 C 
BRANCH  24  25
ATOM     25  C   UNL     1      38.307   4.520  14.844  0.00  0.00    +0.000 C 
BRANCH  25  26
ATOM     26  C   UNL     1      38.882   4.959  16.134  0.00  0.00    +0.000 A 
ATOM     27  C   UNL     1      40.003   5.746  16.134  0.00  0.00    +0.000 A 
ATOM     28  C   UNL     1      40.545   6.161  17.347  0.00  0.00    +0.000 A 
ATOM     29  C   UNL     1      39.951   5.780  18.510  0.00  0.00    +0.000 A 
ATOM     30  C   UNL     1      38.832   4.994  18.488  0.00  0.00    +0.000 A 
ATOM     31  C   UNL     1      38.295   4.583  17.311  0.00  0.00    +0.000 A 
ENDBRANCH  25  26
ENDBRANCH  24  25
ENDBRANCH  23  24
ENDBRANCH   5  23
TORSDOF 7
ENDMDL
MODEL 2
REMARK VINA RESULT:      -8.2      1.835      4.807
REMARK  Name = 
REMARK  7 active torsions:
REMARK  status: ('A' for Active; 'I' for Inactive)
REMARK    1  A    between atoms: C_2  and  C_5
REMARK    2  A    between atoms: C_9  and  N_10
REMARK    3  A    between atoms: N_10  and  C_11
REMARK    4  A    between atoms: C_11  and  C_12
REMARK    5  A    between atoms: C_12  and  C_13
REMARK    6  A    between atoms: C_21  and  C_22
REMARK    7  A    between atoms: C_22  and  C_24
REMARK                            x       y       z     vdW  Elec       q    Type
REMARK                         _______ _______ _______ _____ _____    ______ ____
ROOT
ATOM      1  C   UNL     1      35.326   0.432  16.145  0.00  0.00    +0.000 C 
ATOM      2  C   UNL     1      35.860   1.209  17.504  0.00  0.00    +0.000 C 
ATOM      3  O   UNL     1      36.244   2.500  17.052  0.00  0.00    +0.000 OA
ATOM      4  C   UNL     1      37.227   2.596  16.089  0.00  0.00    +0.000 A 
ATOM      5  C   UNL     1      37.958   3.743  15.835  0.00  0.00    +0.000 A 
ATOM      6  C   UNL     1      38.938   3.783  14.852  0.00  0.00    +0.000 A 
ATOM      7  C   UNL     1      39.183   2.658  14.115  0.00  0.00    +0.000 A 
ATOM      8  C   UNL     1      38.448   1.513  14.373  0.00  0.00    +0.000 A 
ATOM      9  C   UNL     1      37.478   1.469  15.347  0.00  0.00    +0.000 A 
ATOM     10  N   UNL     1      36.779   0.268  15.542  0.00  0.00    +0.000 NA
ENDROOT
BRANCH   1  12
ATOM     11  C   UNL     1      36.355  -1.002  17.928  0.00  0.00    +0.000 C 
ATOM     12  C   UNL     1      35.314  -1.070  16.813  0.00  0.00    +0.000 C 
ATOM     13  C   UNL     1      35.865  -1.998  15.765  0.00  0.00    +0.000 C 
ATOM     14  C   UNL     1      34.014  -1.397  17.351  0.00  0.00    +0.000 C 
ENDBRANCH   1  12
BRANCH   8  15
ATOM     15  C   UNL     1      38.712   0.315  13.590  0.00  0.00    +0.000 C 
ATOM     16  O   UNL     1      38.020   0.059  12.599  0.00  0.00    +0.000 OA
BRANCH  15  17
ATOM     17  C   UNL     1      39.792  -0.596  13.956  0.00  0.00    +0.000 A 
ATOM     18  C   UNL     1      39.576  -1.761  14.660  0.00  0.00    +0.000 A 
ATOM     19  C   UNL     1      40.664  -2.576  14.970  0.00  0.00    +0.000 A 
ATOM     20  C   UNL     1      41.919  -2.242  14.590  0.00  0.00    +0.000 A 
ATOM     21  C   UNL     1      42.116  -1.075  13.888  0.00  0.00    +0.000 A 
ATOM     22  C   UNL     1      41.062  -0.262  13.575  0.00  0.00    +0.000 A 
ENDBRANCH  15  17
ENDBRANCH   8  15
BRANCH   5  23
ATOM     23  N   UNL     1      37.656   4.872  16.633  0.00  0.00    +0.000 NA
BRANCH  23  24
ATOM     24  C   UNL     1      38.660   5.900  16.939  0.00  0.00    +0.000 C 
BRANCH  24  25
ATOM     25  C   UNL     1      38.821   5.813  18.463  0.00  0.00    +0.000 C 
BRANCH  25  26
ATOM     26  C   UNL     1      40.238   6.140  18.728  0.00  0.00    +0.000 A 
ATOM     27  C   UNL     1      40.659   6.296  20.022  0.00  0.00    +0.000 A 
ATOM     28  C   UNL     1      41.994   6.603  20.273  0.00  0.00    +0.000 A 
ATOM     29  C   UNL     1      42.855   6.742  19.229  0.00  0.00    +0.000 A 
ATOM     30  C   UNL     1      42.415   6.584  17.944  0.00  0.00    +0.000 A 
ATOM     31  C   UNL     1      41.116   6.284  17.688  0.00  0.00    +0.000 A 
ENDBRANCH  25  26
ENDBRANCH  24  25
ENDBRANCH  23  24
ENDBRANCH   5  23
TORSDOF 7
ENDMDL
MODEL 3
REMARK VINA RESULT:      -7.8      2.631      5.680
REMARK  Name = 
REMARK  7 active torsions:
REMARK  status: ('A' for Active; 'I' for Inactive)
REMARK    1  A    between atoms: C_2  and  C_5
REMARK    2  A    between atoms: C_9  and  N_10
REMARK    3  A    between atoms: N_10  and  C_11
REMARK    4  A    between atoms: C_11  and  C_12
REMARK    5  A    between atoms: C_12  and  C_13
REMARK    6  A    between atoms: C_21  and  C_22
REMARK    7  A    between atoms: C_22  and  C_24
REMARK                            x       y       z     vdW  Elec       q    Type
REMARK                         _______ _______ _______ _____ _____    ______ ____
ROOT
ATOM      1  C   UNL     1      36.732   0.858  14.689  0.00  0.00    +0.000 C 
ATOM      2  C   UNL     1      38.167   1.657  14.890  0.00  0.00    +0.000 C 
ATOM      3  O   UNL     1      39.145   0.780  14.348  0.00  0.00    +0.000 OA
ATOM      4  C   UNL     1      39.276  -0.480  14.893  0.00  0.00    +0.000 A 
ATOM      5  C   UNL     1      40.395  -1.279  14.745  0.00  0.00    +0.000 A 
ATOM      6  C   UNL     1      40.472  -2.543  15.316  0.00  0.00    +0.000 A 
ATOM      7  C   UNL     1      39.412  -3.006  16.043  0.00  0.00    +0.000 A 
ATOM      8  C   UNL     1      38.294  -2.202  16.189  0.00  0.00    +0.000 A 
ATOM      9  C   UNL     1      38.214  -0.950  15.625  0.00  0.00    +0.000 A 
ATOM     10  N   UNL     1      37.044  -0.201  15.821  0.00  0.00    +0.000 NA
ENDROOT
BRANCH   1  12
ATOM     11  C   UNL     1      35.063   0.872  16.563  0.00  0.00    +0.000 C 
ATOM     12  C   UNL     1      35.863   1.833  15.686  0.00  0.00    +0.000 C 
ATOM     13  C   UNL     1      34.869   2.547  14.812  0.00  0.00    +0.000 C 
ATOM     14  C   UNL     1      36.726   2.661  16.498  0.00  0.00    +0.000 C 
ENDBRANCH   1  12
BRANCH   8  15
ATOM     15  C   UNL     1      37.167  -2.696  16.966  0.00  0.00    +0.000 C 
ATOM     16  O   UNL     1      37.065  -2.404  18.163  0.00  0.00    +0.000 OA
BRANCH  15  17
ATOM     17  C   UNL     1      36.145  -3.537  16.352  0.00  0.00    +0.000 A 
ATOM     18  C   UNL     1      34.976  -3.026  15.831  0.00  0.00    +0.000 A 
ATOM     19  C   UNL     1      34.050  -3.899  15.260  0.00  0.00    +0.000 A 
ATOM     20  C   UNL     1      34.283  -5.231  15.212  0.00  0.00    +0.000 A 
ATOM     21  C   UNL     1      35.456  -5.724  15.737  0.00  0.00    +0.000 A 
ATOM     22  C   UNL     1      36.376  -4.884  16.301  0.00  0.00    +0.000 A 
ENDBRANCH  15  17
ENDBRANCH   8  15
BRANCH   5  23
ATOM     23  N   UNL     1      41.457  -0.740  13.980  0.00  0.00    +0.000 NA
BRANCH  23  24
ATOM     24  C   UNL     1      42.798  -1.342  13.980  0.00  0.00    +0.000 C 
BRANCH  24  25
ATOM     25  C   UNL     1      43.711  -0.198  14.443  0.00  0.00    +0.000 C 
BRANCH  25  26
ATOM     26  C   UNL     1      44.644  -0.810  15.415  0.00  0.00    +0.000 A 
ATOM     27  C   UNL     1      45.175  -0.036  16.412  0.00  0.00    +0.000 A 
ATOM     28  C   UNL     1      46.052  -0.610  17.327  0.00  0.00    +0.000 A 
ATOM     29  C   UNL     1      46.365  -1.929  17.216  0.00  0.00    +0.000 A 
ATOM     30  C   UNL     1      45.824  -2.685  16.213  0.00  0.00    +0.000 A 
ATOM     31  C   UNL     1      44.968  -2.136  15.315  0.00  0.00    +0.000 A 
ENDBRANCH  25  26
ENDBRANCH  24  25
ENDBRANCH  23  24
ENDBRANCH   5  23
TORSDOF 7
ENDMDL
MODEL 4
REMARK VINA RESULT:      -7.5      1.972      5.158
REMARK  Name = 
REMARK  7 active torsions:
REMARK  status: ('A' for Active; 'I' for Inactive)
REMARK    1  A    between atoms: C_2  and  C_5
REMARK    2  A    between atoms: C_9  and  N_10
REMARK    3  A    between atoms: N_10  and  C_11
REMARK    4  A    between atoms: C_11  and  C_12
REMARK    5  A    between atoms: C_12  and  C_13
REMARK    6  A    between atoms: C_21  and  C_22
REMARK    7  A    between atoms: C_22  and  C_24
REMARK                            x       y       z     vdW  Elec       q    Type
REMARK                         _______ _______ _______ _____ _____    ______ ____
ROOT
ATOM      1  C   UNL     1      37.647  -1.879  15.389  0.00  0.00    +0.000 C 
ATOM      2  C   UNL     1      37.446  -0.770  16.600  0.00  0.00    +0.000 C 
ATOM      3  O   UNL     1      37.115   0.438  15.930  0.00  0.00    +0.000 OA
ATOM      4  C   UNL     1      38.013   0.955  15.019  0.00  0.00    +0.000 A 
ATOM      5  C   UNL     1      38.015   2.270  14.589  0.00  0.00    +0.000 A 
ATOM      6  C   UNL     1      38.943   2.737  13.669  0.00  0.00    +0.000 A 
ATOM      7  C   UNL     1      39.880   1.872  13.176  0.00  0.00    +0.000 A 
ATOM      8  C   UNL     1      39.873   0.556  13.610  0.00  0.00    +0.000 A 
ATOM      9  C   UNL     1      38.955   0.091  14.522  0.00  0.00    +0.000 A 
ATOM     10  N   UNL     1      39.019  -1.257  14.906  0.00  0.00    +0.000 NA
ENDROOT
BRANCH   1  12
ATOM     11  C   UNL     1      38.421  -2.387  17.721  0.00  0.00    +0.000 C 
ATOM     12  C   UNL     1      38.367  -3.017  16.331  0.00  0.00    +0.000 C 
ATOM     13  C   UNL     1      39.789  -3.120  15.850  0.00  0.00    +0.000 C 
ATOM     14  C   UNL     1      37.601  -4.242  16.358  0.00  0.00    +0.000 C 
ENDBRANCH   1  12
BRANCH   8  15
ATOM     15  C   UNL     1      40.873  -0.363  13.085  0.00  0.00    +0.000 C 
ATOM     16  O   UNL     1      40.568  -1.166  12.197  0.00  0.00    +0.000 OA
BRANCH  15  17
ATOM     17  C   UNL     1      42.240  -0.351  13.593  0.00  0.00    +0.000 A 
ATOM     18  C   UNL     1      42.683  -1.231  14.557  0.00  0.00    +0.000 A 
ATOM     19  C   UNL     1      44.007  -1.153  14.988  0.00  0.00    +0.000 A 
ATOM     20  C   UNL     1      44.856  -0.231  14.476  0.00  0.00    +0.000 A 
ATOM     21  C   UNL     1      44.396   0.640  13.515  0.00  0.00    +0.000 A 
ATOM     22  C   UNL     1      43.101   0.579  13.079  0.00  0.00    +0.000 A 
ENDBRANCH  15  17
ENDBRANCH   8  15
BRANCH   5  23
ATOM     23  N   UNL     1      37.020   3.113  15.139  0.00  0.00    +0.000 NA
BRANCH  23  24
ATOM     24  C   UNL     1      37.344   4.428  15.711  0.00  0.00    +0.000 C 
BRANCH  24  25
ATOM     25  C   UNL     1      37.738   4.109  17.159  0.00  0.00    +0.000 C 
BRANCH  25  26
ATOM     26  C   UNL     1      38.914   4.960  17.443  0.00  0.00    +0.000 A 
ATOM     27  C   UNL     1      39.727   5.345  16.410  0.00  0.00    +0.000 A 
ATOM     28  C   UNL     1      40.833   6.147  16.675  0.00  0.00    +0.000 A 
ATOM     29  C   UNL     1      41.086   6.535  17.954  0.00  0.00    +0.000 A 
ATOM     30  C   UNL     1      40.262   6.140  18.972  0.00  0.00    +0.000 A 
ATOM     31  C   UNL     1      39.180   5.358  18.725  0.00  0.00    +0.000 A 
ENDBRANCH  25  26
ENDBRANCH  24  25
ENDBRANCH  23  24
ENDBRANCH   5  23
TORSDOF 7
ENDMDL
MODEL 5
REMARK VINA RESULT:      -7.4      2.357      3.355
REMARK  Name = 
REMARK  7 active torsions:
REMARK  status: ('A' for Active; 'I' for Inactive)
REMARK    1  A    between atoms: C_2  and  C_5
REMARK    2  A    between atoms: C_9  and  N_10
REMARK    3  A    between atoms: N_10  and  C_11
REMARK    4  A    between atoms: C_11  and  C_12
REMARK    5  A    between atoms: C_12  and  C_13
REMARK    6  A    between atoms: C_21  and  C_22
REMARK    7  A    between atoms: C_22  and  C_24
REMARK                            x       y       z     vdW  Elec       q    Type
REMARK                         _______ _______ _______ _____ _____    ______ ____
ROOT
ATOM      1  C   UNL     1      40.291  -0.293  14.627  0.00  0.00    +0.000 C 
ATOM      2  C   UNL     1      39.409  -0.138  13.236  0.00  0.00    +0.000 C 
ATOM      3  O   UNL     1      38.439   0.857  13.536  0.00  0.00    +0.000 OA
ATOM      4  C   UNL     1      37.563   0.633  14.577  0.00  0.00    +0.000 A 
ATOM      5  C   UNL     1      36.362   1.298  14.740  0.00  0.00    +0.000 A 
ATOM      6  C   UNL     1      35.517   1.032  15.810  0.00  0.00    +0.000 A 
ATOM      7  C   UNL     1      35.886   0.086  16.725  0.00  0.00    +0.000 A 
ATOM      8  C   UNL     1      37.090  -0.578  16.557  0.00  0.00    +0.000 A 
ATOM      9  C   UNL     1      37.928  -0.317  15.498  0.00  0.00    +0.000 A 
ATOM     10  N   UNL     1      39.130  -1.035  15.404  0.00  0.00    +0.000 NA
ENDROOT
BRANCH   1  12
ATOM     11  C   UNL     1      40.577  -2.714  15.221  0.00  0.00    +0.000 C 
ATOM     12  C   UNL     1      41.039  -1.689  14.188  0.00  0.00    +0.000 C 
ATOM     13  C   UNL     1      42.508  -1.470  14.427  0.00  0.00    +0.000 C 
ATOM     14  C   UNL     1      40.652  -2.099  12.858  0.00  0.00    +0.000 C 
ENDBRANCH   1  12
BRANCH   8  15
ATOM     15  C   UNL     1      37.480  -1.587  17.531  0.00  0.00    +0.000 C 
ATOM     16  O   UNL     1      37.948  -1.245  18.622  0.00  0.00    +0.000 OA
BRANCH  15  17
ATOM     17  C   UNL     1      37.324  -3.008  17.240  0.00  0.00    +0.000 A 
ATOM     18  C   UNL     1      36.256  -3.508  16.526  0.00  0.00    +0.000 A 
ATOM     19  C   UNL     1      36.183  -4.881  16.291  0.00  0.00    +0.000 A 
ATOM     20  C   UNL     1      37.139  -5.721  16.751  0.00  0.00    +0.000 A 
ATOM     21  C   UNL     1      38.198  -5.204  17.461  0.00  0.00    +0.000 A 
ATOM     22  C   UNL     1      38.288  -3.861  17.702  0.00  0.00    +0.000 A 
ENDBRANCH  15  17
ENDBRANCH   8  15
BRANCH   5  23
ATOM     23  N   UNL     1      36.039   2.265  13.758  0.00  0.00    +0.000 NA
BRANCH  23  24
ATOM     24  C   UNL     1      36.715   3.569  13.699  0.00  0.00    +0.000 C 
BRANCH  24  25
ATOM     25  C   UNL     1      35.868   4.461  14.617  0.00  0.00    +0.000 C 
BRANCH  25  26
ATOM     26  C   UNL     1      35.227   5.449  13.722  0.00  0.00    +0.000 A 
ATOM     27  C   UNL     1      35.723   5.629  12.458  0.00  0.00    +0.000 A 
ATOM     28  C   UNL     1      35.120   6.557  11.614  0.00  0.00    +0.000 A 
ATOM     29  C   UNL     1      34.048   7.268  12.060  0.00  0.00    +0.000 A 
ATOM     30  C   UNL     1      33.568   7.073  13.325  0.00  0.00    +0.000 A 
ATOM     31  C   UNL     1      34.148   6.170  14.156  0.00  0.00    +0.000 A 
ENDBRANCH  25  26
ENDBRANCH  24  25
ENDBRANCH  23  24
ENDBRANCH   5  23
TORSDOF 7
ENDMDL
MODEL 6
REMARK VINA RESULT:      -7.3      3.674      9.706
REMARK  Name = 
REMARK  7 active torsions:
REMARK  status: ('A' for Active; 'I' for Inactive)
REMARK    1  A    between atoms: C_2  and  C_5
REMARK    2  A    between atoms: C_9  and  N_10
REMARK    3  A    between atoms: N_10  and  C_11
REMARK    4  A    between atoms: C_11  and  C_12
REMARK    5  A    between atoms: C_12  and  C_13
REMARK    6  A    between atoms: C_21  and  C_22
REMARK    7  A    between atoms: C_22  and  C_24
REMARK                            x       y       z     vdW  Elec       q    Type
REMARK                         _______ _______ _______ _____ _____    ______ ____
ROOT
ATOM      1  C   UNL     1      37.674   9.453  17.118  0.00  0.00    +0.000 C 
ATOM      2  C   UNL     1      37.972   8.933  15.575  0.00  0.00    +0.000 C 
ATOM      3  O   UNL     1      37.432   7.620  15.529  0.00  0.00    +0.000 OA
ATOM      4  C   UNL     1      37.923   6.673  16.404  0.00  0.00    +0.000 A 
ATOM      5  C   UNL     1      37.785   5.308  16.231  0.00  0.00    +0.000 A 
ATOM      6  C   UNL     1      38.301   4.398  17.145  0.00  0.00    +0.000 A 
ATOM      7  C   UNL     1      38.961   4.869  18.245  0.00  0.00    +0.000 A 
ATOM      8  C   UNL     1      39.096   6.237  18.414  0.00  0.00    +0.000 A 
ATOM      9  C   UNL     1      38.588   7.140  17.510  0.00  0.00    +0.000 A 
ATOM     10  N   UNL     1      38.769   8.509  17.758  0.00  0.00    +0.000 NA
ENDROOT
BRANCH   1  12
ATOM     11  C   UNL     1      39.696  10.514  18.159  0.00  0.00    +0.000 C 
ATOM     12  C   UNL     1      38.678  10.752  17.045  0.00  0.00    +0.000 C 
ATOM     13  C   UNL     1      37.856  11.941  17.462  0.00  0.00    +0.000 C 
ATOM     14  C   UNL     1      39.340  10.838  15.763  0.00  0.00    +0.000 C 
ENDBRANCH   1  12
BRANCH   8  15
ATOM     15  C   UNL     1      39.803   6.735  19.585  0.00  0.00    +0.000 C 
ATOM     16  O   UNL     1      39.170   7.221  20.529  0.00  0.00    +0.000 OA
BRANCH  15  17
ATOM     17  C   UNL     1      41.258   6.668  19.667  0.00  0.00    +0.000 A 
ATOM     18  C   UNL     1      41.921   6.246  20.799  0.00  0.00    +0.000 A 
ATOM     19  C   UNL     1      43.315   6.211  20.793  0.00  0.00    +0.000 A 
ATOM     20  C   UNL     1      44.020   6.584  19.700  0.00  0.00    +0.000 A 
ATOM     21  C   UNL     1      43.341   7.004  18.578  0.00  0.00    +0.000 A 
ATOM     22  C   UNL     1      41.974   7.044  18.564  0.00  0.00    +0.000 A 
ENDBRANCH  15  17
ENDBRANCH   8  15
BRANCH   5  23
ATOM     23  N   UNL     1      37.091   4.887  15.071  0.00  0.00    +0.000 NA
BRANCH  23  24
ATOM     24  C   UNL     1      37.076   3.482  14.640  0.00  0.00    +0.000 C 
BRANCH  24  25
ATOM     25  C   UNL     1      35.586   3.114  14.645  0.00  0.00    +0.000 C 
BRANCH  25  26
ATOM     26  C   UNL     1      35.495   1.851  15.408  0.00  0.00    +0.000 A 
ATOM     27  C   UNL     1      36.031   0.708  14.877  0.00  0.00    +0.000 A 
ATOM     28  C   UNL     1      35.947  -0.482  15.594  0.00  0.00    +0.000 A 
ATOM     29  C   UNL     1      35.337  -0.488  16.810  0.00  0.00    +0.000 A 
ATOM     30  C   UNL     1      34.808   0.664  17.323  0.00  0.00    +0.000 A 
ATOM     31  C   UNL     1      34.884   1.830  16.632  0.00  0.00    +0.000 A 
ENDBRANCH  25  26
ENDBRANCH  24  25
ENDBRANCH  23  24
ENDBRANCH   5  23
TORSDOF 7
ENDMDL
MODEL 7
REMARK VINA RESULT:      -7.3      2.505      7.996
REMARK  Name = 
REMARK  7 active torsions:
REMARK  status: ('A' for Active; 'I' for Inactive)
REMARK    1  A    between atoms: C_2  and  C_5
REMARK    2  A    between atoms: C_9  and  N_10
REMARK    3  A    between atoms: N_10  and  C_11
REMARK    4  A    between atoms: C_11  and  C_12
REMARK    5  A    between atoms: C_12  and  C_13
REMARK    6  A    between atoms: C_21  and  C_22
REMARK    7  A    between atoms: C_22  and  C_24
REMARK                            x       y       z     vdW  Elec       q    Type
REMARK                         _______ _______ _______ _____ _____    ______ ____
ROOT
ATOM      1  C   UNL     1      39.205   5.009  16.418  0.00  0.00    +0.000 C 
ATOM      2  C   UNL     1      38.355   4.864  17.830  0.00  0.00    +0.000 C 
ATOM      3  O   UNL     1      37.893   3.521  17.834  0.00  0.00    +0.000 OA
ATOM      4  C   UNL     1      37.083   3.097  16.801  0.00  0.00    +0.000 A 
ATOM      5  C   UNL     1      36.268   1.982  16.859  0.00  0.00    +0.000 A 
ATOM      6  C   UNL     1      35.472   1.601  15.786  0.00  0.00    +0.000 A 
ATOM      7  C   UNL     1      35.500   2.350  14.643  0.00  0.00    +0.000 A 
ATOM      8  C   UNL     1      36.319   3.466  14.591  0.00  0.00    +0.000 A 
ATOM      9  C   UNL     1      37.106   3.846  15.651  0.00  0.00    +0.000 A 
ATOM     10  N   UNL     1      37.908   4.990  15.513  0.00  0.00    +0.000 NA
ENDROOT
BRANCH   1  12
ATOM     11  C   UNL     1      38.583   7.098  15.174  0.00  0.00    +0.000 C 
ATOM     12  C   UNL     1      39.293   6.650  16.450  0.00  0.00    +0.000 C 
ATOM     13  C   UNL     1      40.747   6.995  16.278  0.00  0.00    +0.000 C 
ATOM     14  C   UNL     1      38.631   7.191  17.615  0.00  0.00    +0.000 C 
ENDBRANCH   1  12
BRANCH   8  15
ATOM     15  C   UNL     1      36.344   4.264  13.373  0.00  0.00    +0.000 C 
ATOM     16  O   UNL     1      37.135   3.984  12.466  0.00  0.00    +0.000 OA
BRANCH  15  17
ATOM     17  C   UNL     1      35.442   5.398  13.203  0.00  0.00    +0.000 A 
ATOM     18  C   UNL     1      34.539   5.782  14.171  0.00  0.00    +0.000 A 
ATOM     19  C   UNL     1      33.713   6.879  13.928  0.00  0.00    +0.000 A 
ATOM     20  C   UNL     1      33.785   7.565  12.764  0.00  0.00    +0.000 A 
ATOM     21  C   UNL     1      34.692   7.167  11.808  0.00  0.00    +0.000 A 
ATOM     22  C   UNL     1      35.511   6.094  12.028  0.00  0.00    +0.000 A 
ENDBRANCH  15  17
ENDBRANCH   8  15
BRANCH   5  23
ATOM     23  N   UNL     1      36.286   1.250  18.070  0.00  0.00    +0.000 NA
BRANCH  23  24
ATOM     24  C   UNL     1      35.514   0.011  18.242  0.00  0.00    +0.000 C 
BRANCH  24  25
ATOM     25  C   UNL     1      36.591  -1.065  18.443  0.00  0.00    +0.000 C 
BRANCH  25  26
ATOM     26  C   UNL     1      36.846  -1.621  17.097  0.00  0.00    +0.000 A 
ATOM     27  C   UNL     1      35.787  -2.007  16.320  0.00  0.00    +0.000 A 
ATOM     28  C   UNL     1      36.026  -2.530  15.052  0.00  0.00    +0.000 A 
ATOM     29  C   UNL     1      37.307  -2.646  14.608  0.00  0.00    +0.000 A 
ATOM     30  C   UNL     1      38.351  -2.255  15.399  0.00  0.00    +0.000 A 
ATOM     31  C   UNL     1      38.129  -1.744  16.637  0.00  0.00    +0.000 A 
ENDBRANCH  25  26
ENDBRANCH  24  25
ENDBRANCH  23  24
ENDBRANCH   5  23
TORSDOF 7
ENDMDL
MODEL 8
REMARK VINA RESULT:      -7.2      2.172      6.144
REMARK  Name = 
REMARK  7 active torsions:
REMARK  status: ('A' for Active; 'I' for Inactive)
REMARK    1  A    between atoms: C_2  and  C_5
REMARK    2  A    between atoms: C_9  and  N_10
REMARK    3  A    between atoms: N_10  and  C_11
REMARK    4  A    between atoms: C_11  and  C_12
REMARK    5  A    between atoms: C_12  and  C_13
REMARK    6  A    between atoms: C_21  and  C_22
REMARK    7  A    between atoms: C_22  and  C_24
REMARK                            x       y       z     vdW  Elec       q    Type
REMARK                         _______ _______ _______ _____ _____    ______ ____
ROOT
ATOM      1  C   UNL     1      36.479   1.443  14.919  0.00  0.00    +0.000 C 
ATOM      2  C   UNL     1      37.769   2.473  15.025  0.00  0.00    +0.000 C 
ATOM      3  O   UNL     1      38.780   1.866  14.231  0.00  0.00    +0.000 OA
ATOM      4  C   UNL     1      39.212   0.600  14.569  0.00  0.00    +0.000 A 
ATOM      5  C   UNL     1      40.411   0.051  14.152  0.00  0.00    +0.000 A 
ATOM      6  C   UNL     1      40.797  -1.231  14.523  0.00  0.00    +0.000 A 
ATOM      7  C   UNL     1      39.966  -1.967  15.322  0.00  0.00    +0.000 A 
ATOM      8  C   UNL     1      38.767  -1.411  15.736  0.00  0.00    +0.000 A 
ATOM      9  C   UNL     1      38.383  -0.143  15.372  0.00  0.00    +0.000 A 
ATOM     10  N   UNL     1      37.151   0.343  15.835  0.00  0.00    +0.000 NA
ENDROOT
BRANCH   1  12
ATOM     11  C   UNL     1      34.597   3.007  15.475  0.00  0.00    +0.000 C 
ATOM     12  C   UNL     1      35.634   2.117  16.157  0.00  0.00    +0.000 C 
ATOM     13  C   UNL     1      36.591   3.036  16.866  0.00  0.00    +0.000 C 
ATOM     14  C   UNL     1      34.985   1.108  16.964  0.00  0.00    +0.000 C 
ENDBRANCH   1  12
BRANCH   8  15
ATOM     15  C   UNL     1      37.885  -2.196  16.589  0.00  0.00    +0.000 C 
ATOM     16  O   UNL     1      38.152  -2.341  17.787  0.00  0.00    +0.000 OA
BRANCH  15  17
ATOM     17  C   UNL     1      36.681  -2.818  16.050  0.00  0.00    +0.000 A 
ATOM     18  C   UNL     1      36.698  -3.629  14.936  0.00  0.00    +0.000 A 
ATOM     19  C   UNL     1      35.501  -4.185  14.486  0.00  0.00    +0.000 A 
ATOM     20  C   UNL     1      34.332  -3.941  15.123  0.00  0.00    +0.000 A 
ATOM     21  C   UNL     1      34.334  -3.128  16.234  0.00  0.00    +0.000 A 
ATOM     22  C   UNL     1      35.498  -2.574  16.691  0.00  0.00    +0.000 A 
ENDBRANCH  15  17
ENDBRANCH   8  15
BRANCH   5  23
ATOM     23  N   UNL     1      41.224   0.865  13.328  0.00  0.00    +0.000 NA
BRANCH  23  24
ATOM     24  C   UNL     1      42.547   0.425  12.864  0.00  0.00    +0.000 C 
BRANCH  24  25
ATOM     25  C   UNL     1      42.405   0.388  11.336  0.00  0.00    +0.000 C 
BRANCH  25  26
ATOM     26  C   UNL     1      41.994  -0.995  11.013  0.00  0.00    +0.000 A 
ATOM     27  C   UNL     1      42.818  -2.035  11.353  0.00  0.00    +0.000 A 
ATOM     28  C   UNL     1      42.433  -3.337  11.050  0.00  0.00    +0.000 A 
ATOM     29  C   UNL     1      41.245  -3.555  10.423  0.00  0.00    +0.000 A 
ATOM     30  C   UNL     1      40.437  -2.503  10.092  0.00  0.00    +0.000 A 
ATOM     31  C   UNL     1      40.802  -1.228  10.382  0.00  0.00    +0.000 A 
ENDBRANCH  25  26
ENDBRANCH  24  25
ENDBRANCH  23  24
ENDBRANCH   5  23
TORSDOF 7
ENDMDL
MODEL 9
REMARK VINA RESULT:      -7.2     26.231     28.919
REMARK  Name = 
REMARK  7 active torsions:
REMARK  status: ('A' for Active; 'I' for Inactive)
REMARK    1  A    between atoms: C_2  and  C_5
REMARK    2  A    between atoms: C_9  and  N_10
REMARK    3  A    between atoms: N_10  and  C_11
REMARK    4  A    between atoms: C_11  and  C_12
REMARK    5  A    between atoms: C_12  and  C_13
REMARK    6  A    between atoms: C_21  and  C_22
REMARK    7  A    between atoms: C_22  and  C_24
REMARK                            x       y       z     vdW  Elec       q    Type
REMARK                         _______ _______ _______ _____ _____    ______ ____
ROOT
ATOM      1  C   UNL     1      29.476  15.282  37.417  0.00  0.00    +0.000 C 
ATOM      2  C   UNL     1      29.501  15.373  39.069  0.00  0.00    +0.000 C 
ATOM      3  O   UNL     1      28.456  14.507  39.491  0.00  0.00    +0.000 OA
ATOM      4  C   UNL     1      27.170  14.767  39.066  0.00  0.00    +0.000 A 
ATOM      5  C   UNL     1      26.034  14.269  39.677  0.00  0.00    +0.000 A 
ATOM      6  C   UNL     1      24.761  14.564  39.205  0.00  0.00    +0.000 A 
ATOM      7  C   UNL     1      24.632  15.367  38.106  0.00  0.00    +0.000 A 
ATOM      8  C   UNL     1      25.774  15.862  37.498  0.00  0.00    +0.000 A 
ATOM      9  C   UNL     1      27.035  15.573  37.964  0.00  0.00    +0.000 A 
ATOM     10  N   UNL     1      28.138  16.116  37.287  0.00  0.00    +0.000 NA
ENDROOT
BRANCH   1  12
ATOM     11  C   UNL     1      29.721  17.405  36.100  0.00  0.00    +0.000 C 
ATOM     12  C   UNL     1      30.443  16.588  37.170  0.00  0.00    +0.000 C 
ATOM     13  C   UNL     1      31.701  16.063  36.534  0.00  0.00    +0.000 C 
ATOM     14  C   UNL     1      30.602  17.364  38.379  0.00  0.00    +0.000 C 
ENDBRANCH   1  12
BRANCH   8  15
ATOM     15  C   UNL     1      25.634  16.719  36.330  0.00  0.00    +0.000 C 
ATOM     16  O   UNL     1      25.638  17.948  36.461  0.00  0.00    +0.000 OA
BRANCH  15  17
ATOM     17  C   UNL     1      25.490  16.148  34.995  0.00  0.00    +0.000 A 
ATOM     18  C   UNL     1      25.812  14.839  34.708  0.00  0.00    +0.000 A 
ATOM     19  C   UNL     1      25.644  14.371  33.405  0.00  0.00    +0.000 A 
ATOM     20  C   UNL     1      25.173  15.179  32.427  0.00  0.00    +0.000 A 
ATOM     21  C   UNL     1      24.858  16.484  32.731  0.00  0.00    +0.000 A 
ATOM     22  C   UNL     1      25.015  16.961  34.004  0.00  0.00    +0.000 A 
ENDBRANCH  15  17
ENDBRANCH   8  15
BRANCH   5  23
ATOM     23  N   UNL     1      26.237  13.445  40.809  0.00  0.00    +0.000 NA
BRANCH  23  24
ATOM     24  C   UNL     1      26.605  12.028  40.684  0.00  0.00    +0.000 C 
BRANCH  24  25
ATOM     25  C   UNL     1      27.336  11.722  41.998  0.00  0.00    +0.000 C 
BRANCH  25  26
ATOM     26  C   UNL     1      28.301  10.650  41.671  0.00  0.00    +0.000 A 
ATOM     27  C   UNL     1      28.194   9.438  42.300  0.00  0.00    +0.000 A 
ATOM     28  C   UNL     1      29.102   8.428  41.993  0.00  0.00    +0.000 A 
ATOM     29  C   UNL     1      30.077   8.663  41.073  0.00  0.00    +0.000 A 
ATOM     30  C   UNL     1      30.166   9.880  40.456  0.00  0.00    +0.000 A 
ATOM     31  C   UNL     1      29.287  10.872  40.748  0.00  0.00    +0.000 A 
ENDBRANCH  25  26
ENDBRANCH  24  25
ENDBRANCH  23  24
ENDBRANCH   5  23
TORSDOF 7
ENDMDL
MODEL 10
REMARK VINA RESULT:      -7.2      3.379      9.324
REMARK  Name = 
REMARK  7 active torsions:
REMARK  status: ('A' for Active; 'I' for Inactive)
REMARK    1  A    between atoms: C_2  and  C_5
REMARK    2  A    between atoms: C_9  and  N_10
REMARK    3  A    between atoms: N_10  and  C_11
REMARK    4  A    between atoms: C_11  and  C_12
REMARK    5  A    between atoms: C_12  and  C_13
REMARK    6  A    between atoms: C_21  and  C_22
REMARK    7  A    between atoms: C_22  and  C_24
REMARK                            x       y       z     vdW  Elec       q    Type
REMARK                         _______ _______ _______ _____ _____    ______ ____
ROOT
ATOM      1  C   UNL     1      41.853   7.725  15.870  0.00  0.00    +0.000 C 
ATOM      2  C   UNL     1      41.970   6.327  14.992  0.00  0.00    +0.000 C 
ATOM      3  O   UNL     1      40.640   5.829  14.933  0.00  0.00    +0.000 OA
ATOM      4  C   UNL     1      39.991   5.540  16.116  0.00  0.00    +0.000 A 
ATOM      5  C   UNL     1      38.885   4.715  16.215  0.00  0.00    +0.000 A 
ATOM      6  C   UNL     1      38.270   4.459  17.433  0.00  0.00    +0.000 A 
ATOM      7  C   UNL     1      38.774   5.039  18.563  0.00  0.00    +0.000 A 
ATOM      8  C   UNL     1      39.882   5.864  18.459  0.00  0.00    +0.000 A 
ATOM      9  C   UNL     1      40.493   6.119  17.254  0.00  0.00    +0.000 A 
ATOM     10  N   UNL     1      41.610   6.968  17.237  0.00  0.00    +0.000 NA
ENDROOT
BRANCH   1  12
ATOM     11  C   UNL     1      44.104   6.787  15.280  0.00  0.00    +0.000 C 
ATOM     12  C   UNL     1      43.469   7.891  16.121  0.00  0.00    +0.000 C 
ATOM     13  C   UNL     1      43.708   7.527  17.561  0.00  0.00    +0.000 C 
ATOM     14  C   UNL     1      43.938   9.189  15.693  0.00  0.00    +0.000 C 
ENDBRANCH   1  12
BRANCH   8  15
ATOM     15  C   UNL     1      40.418   6.479  19.664  0.00  0.00    +0.000 C 
ATOM     16  O   UNL     1      41.267   5.883  20.337  0.00  0.00    +0.000 OA
BRANCH  15  17
ATOM     17  C   UNL     1      39.969   7.798  20.095  0.00  0.00    +0.000 A 
ATOM     18  C   UNL     1      38.650   8.080  20.378  0.00  0.00    +0.000 A 
ATOM     19  C   UNL     1      38.305   9.368  20.784  0.00  0.00    +0.000 A 
ATOM     20  C   UNL     1      39.241  10.339  20.904  0.00  0.00    +0.000 A 
ATOM     21  C   UNL     1      40.553  10.040  20.617  0.00  0.00    +0.000 A 
ATOM     22  C   UNL     1      40.912   8.782  20.217  0.00  0.00    +0.000 A 
ENDBRANCH  15  17
ENDBRANCH   8  15
BRANCH   5  23
ATOM     23  N   UNL     1      38.414   4.146  15.007  0.00  0.00    +0.000 NA
BRANCH  23  24
ATOM     24  C   UNL     1      37.003   3.779  14.819  0.00  0.00    +0.000 C 
BRANCH  24  25
ATOM     25  C   UNL     1      37.070   2.370  14.214  0.00  0.00    +0.000 C 
BRANCH  25  26
ATOM     26  C   UNL     1      36.320   1.505  15.151  0.00  0.00    +0.000 A 
ATOM     27  C   UNL     1      35.524   2.082  16.104  0.00  0.00    +0.000 A 
ATOM     28  C   UNL     1      34.817   1.270  16.986  0.00  0.00    +0.000 A 
ATOM     29  C   UNL     1      34.928  -0.082  16.883  0.00  0.00    +0.000 A 
ATOM     30  C   UNL     1      35.728  -0.639  15.925  0.00  0.00    +0.000 A 
ATOM     31  C   UNL     1      36.422   0.144  15.060  0.00  0.00    +0.000 A 
ENDBRANCH  25  26
ENDBRANCH  24  25
ENDBRANCH  23  24
ENDBRANCH   5  23
TORSDOF 7
ENDMDL
