MODEL 1
REMARK VINA RESULT:      -6.0      0.000      0.000
REMARK  Name = 
REMARK  4 active torsions:
REMARK  status: ('A' for Active; 'I' for Inactive)
REMARK    1  A    between atoms: C_3  and  C_4
REMARK    2  A    between atoms: C_4  and  O_6
REMARK    3  A    between atoms: O_6  and  C_7
REMARK    4  A    between atoms: C_11  and  C_12
REMARK                            x       y       z     vdW  Elec       q    Type
REMARK                         _______ _______ _______ _____ _____    ______ ____
ROOT
ATOM      1  C   UNL     1      25.614  23.061  22.748  0.00  0.00    +0.000 C 
ATOM      2  C   UNL     1      26.873  23.893  22.999  0.00  0.00    +0.000 C 
ATOM      3  C   UNL     1      26.989  24.429  24.141  0.00  0.00    +0.000 C 
ATOM      4  C   UNL     1      28.119  25.270  24.757  0.00  0.00    +0.000 C 
ATOM      5  S   UNL     1      29.237  25.576  23.287  0.00  0.00    +0.000 S 
ATOM      6  C   UNL     1      28.771  24.688  21.879  0.00  0.00    +0.000 C 
ATOM      7  N   UNL     1      29.613  24.767  20.724  0.00  0.00    +0.000 NA
ATOM      8  N   UNL     1      27.702  23.989  21.895  0.00  0.00    +0.000 NA
ENDROOT
BRANCH   4   9
ATOM      9  C   UNL     1      28.928  24.125  25.457  0.00  0.00    +0.000 A 
ATOM     10  C   UNL     1      29.538  23.145  24.775  0.00  0.00    +0.000 A 
ATOM     11  C   UNL     1      30.230  22.177  25.471  0.00  0.00    +0.000 A 
ATOM     12  C   UNL     1      30.318  22.180  26.835  0.00  0.00    +0.000 A 
ATOM     13  C   UNL     1      29.696  23.182  27.535  0.00  0.00    +0.000 A 
ATOM     14  C   UNL     1      29.001  24.151  26.829  0.00  0.00    +0.000 A 
ENDBRANCH   4   9
BRANCH   3  15
ATOM     15  C   UNL     1      25.896  24.225  25.161  0.00  0.00    +0.000 C 
ATOM     16  O   UNL     1      25.802  23.115  25.709  0.00  0.00    +0.000 OA
BRANCH  15  17
ATOM     17  O   UNL     1      25.031  25.250  25.469  0.00  0.00    +0.000 OA
BRANCH  17  18
ATOM     18  C   UNL     1      24.940  25.719  26.799  0.00  0.00    +0.000 C 
ATOM     19  C   UNL     1      25.781  26.957  26.938  0.00  0.00    +0.000 C 
ATOM     20  C   UNL     1      23.480  26.023  27.129  0.00  0.00    +0.000 C 
ATOM     21  C   UNL     1      25.504  24.671  27.726  0.00  0.00    +0.000 C 
ENDBRANCH  17  18
ENDBRANCH  15  17
ENDBRANCH   3  15
TORSDOF 4
ENDMDL
MODEL 2
REMARK VINA RESULT:      -5.9      3.236      4.950
REMARK  Name = 
REMARK  4 active torsions:
REMARK  status: ('A' for Active; 'I' for Inactive)
REMARK    1  A    between atoms: C_3  and  C_4
REMARK    2  A    between atoms: C_4  and  O_6
REMARK    3  A    between atoms: O_6  and  C_7
REMARK    4  A    between atoms: C_11  and  C_12
REMARK                            x       y       z     vdW  Elec       q    Type
REMARK                         _______ _______ _______ _____ _____    ______ ____
ROOT
ATOM      1  C   UNL     1      25.058  25.269  26.478  0.00  0.00    +0.000 C 
ATOM      2  C   UNL     1      25.931  24.245  27.205  0.00  0.00    +0.000 C 
ATOM      3  C   UNL     1      26.681  23.517  26.489  0.00  0.00    +0.000 C 
ATOM      4  C   UNL     1      27.712  22.442  26.866  0.00  0.00    +0.000 C 
ATOM      5  S   UNL     1      27.419  22.232  28.703  0.00  0.00    +0.000 S 
ATOM      6  C   UNL     1      26.318  23.395  29.354  0.00  0.00    +0.000 C 
ATOM      7  N   UNL     1      26.096  23.393  30.769  0.00  0.00    +0.000 NA
ATOM      8  N   UNL     1      25.732  24.220  28.574  0.00  0.00    +0.000 NA
ENDROOT
BRANCH   4   9
ATOM      9  C   UNL     1      28.998  23.336  26.914  0.00  0.00    +0.000 A 
ATOM     10  C   UNL     1      28.996  24.585  27.402  0.00  0.00    +0.000 A 
ATOM     11  C   UNL     1      30.173  25.302  27.408  0.00  0.00    +0.000 A 
ATOM     12  C   UNL     1      31.347  24.785  26.934  0.00  0.00    +0.000 A 
ATOM     13  C   UNL     1      31.352  23.507  26.434  0.00  0.00    +0.000 A 
ATOM     14  C   UNL     1      30.165  22.793  26.431  0.00  0.00    +0.000 A 
ENDBRANCH   4   9
BRANCH   3  15
ATOM     15  C   UNL     1      26.662  23.697  24.991  0.00  0.00    +0.000 C 
ATOM     16  O   UNL     1      26.071  22.850  24.303  0.00  0.00    +0.000 OA
BRANCH  15  17
ATOM     17  O   UNL     1      27.288  24.778  24.413  0.00  0.00    +0.000 OA
BRANCH  17  18
ATOM     18  C   UNL     1      28.224  24.577  23.372  0.00  0.00    +0.000 C 
ATOM     19  C   UNL     1      29.433  25.432  23.632  0.00  0.00    +0.000 C 
ATOM     20  C   UNL     1      28.612  23.101  23.319  0.00  0.00    +0.000 C 
ATOM     21  C   UNL     1      27.610  25.028  22.070  0.00  0.00    +0.000 C 
ENDBRANCH  17  18
ENDBRANCH  15  17
ENDBRANCH   3  15
TORSDOF 4
ENDMDL
MODEL 3
REMARK VINA RESULT:      -5.8      1.872      3.814
REMARK  Name = 
REMARK  4 active torsions:
REMARK  status: ('A' for Active; 'I' for Inactive)
REMARK    1  A    between atoms: C_3  and  C_4
REMARK    2  A    between atoms: C_4  and  O_6
REMARK    3  A    between atoms: O_6  and  C_7
REMARK    4  A    between atoms: C_11  and  C_12
REMARK                            x       y       z     vdW  Elec       q    Type
REMARK                         _______ _______ _______ _____ _____    ______ ____
ROOT
ATOM      1  C   UNL     1      30.667  24.030  25.356  0.00  0.00    +0.000 C 
ATOM      2  C   UNL     1      29.530  24.018  24.333  0.00  0.00    +0.000 C 
ATOM      3  C   UNL     1      28.378  23.706  24.757  0.00  0.00    +0.000 C 
ATOM      4  C   UNL     1      27.017  23.642  24.046  0.00  0.00    +0.000 C 
ATOM      5  S   UNL     1      27.492  23.881  22.251  0.00  0.00    +0.000 S 
ATOM      6  C   UNL     1      29.159  24.287  22.035  0.00  0.00    +0.000 C 
ATOM      7  N   UNL     1      29.612  24.591  20.711  0.00  0.00    +0.000 NA
ATOM      8  N   UNL     1      29.942  24.306  23.043  0.00  0.00    +0.000 NA
ENDROOT
BRANCH   4   9
ATOM      9  C   UNL     1      26.500  25.086  24.367  0.00  0.00    +0.000 A 
ATOM     10  C   UNL     1      27.261  26.180  24.214  0.00  0.00    +0.000 A 
ATOM     11  C   UNL     1      26.727  27.413  24.518  0.00  0.00    +0.000 A 
ATOM     12  C   UNL     1      25.445  27.563  24.973  0.00  0.00    +0.000 A 
ATOM     13  C   UNL     1      24.665  26.445  25.130  0.00  0.00    +0.000 A 
ATOM     14  C   UNL     1      25.210  25.209  24.822  0.00  0.00    +0.000 A 
ENDBRANCH   4   9
BRANCH   3  15
ATOM     15  C   UNL     1      28.203  23.363  26.217  0.00  0.00    +0.000 C 
ATOM     16  O   UNL     1      27.932  22.190  26.518  0.00  0.00    +0.000 OA
BRANCH  15  17
ATOM     17  O   UNL     1      28.343  24.336  27.180  0.00  0.00    +0.000 OA
BRANCH  17  18
ATOM     18  C   UNL     1      27.307  24.554  28.117  0.00  0.00    +0.000 C 
ATOM     19  C   UNL     1      26.948  26.014  28.115  0.00  0.00    +0.000 C 
ATOM     20  C   UNL     1      26.096  23.704  27.738  0.00  0.00    +0.000 C 
ATOM     21  C   UNL     1      27.813  24.204  29.494  0.00  0.00    +0.000 C 
ENDBRANCH  17  18
ENDBRANCH  15  17
ENDBRANCH   3  15
TORSDOF 4
ENDMDL
MODEL 4
REMARK VINA RESULT:      -5.3      2.621      4.297
REMARK  Name = 
REMARK  4 active torsions:
REMARK  status: ('A' for Active; 'I' for Inactive)
REMARK    1  A    between atoms: C_3  and  C_4
REMARK    2  A    between atoms: C_4  and  O_6
REMARK    3  A    between atoms: O_6  and  C_7
REMARK    4  A    between atoms: C_11  and  C_12
REMARK                            x       y       z     vdW  Elec       q    Type
REMARK                         _______ _______ _______ _____ _____    ______ ____
ROOT
ATOM      1  C   UNL     1      29.203  26.133  27.335  0.00  0.00    +0.000 C 
ATOM      2  C   UNL     1      29.582  24.897  26.517  0.00  0.00    +0.000 C 
ATOM      3  C   UNL     1      28.732  23.958  26.467  0.00  0.00    +0.000 C 
ATOM      4  C   UNL     1      28.744  22.619  25.714  0.00  0.00    +0.000 C 
ATOM      5  S   UNL     1      30.497  22.542  25.059  0.00  0.00    +0.000 S 
ATOM      6  C   UNL     1      31.384  24.004  25.315  0.00  0.00    +0.000 C 
ATOM      7  N   UNL     1      32.703  24.095  24.766  0.00  0.00    +0.000 NA
ATOM      8  N   UNL     1      30.855  24.958  25.979  0.00  0.00    +0.000 NA
ENDROOT
BRANCH   4   9
ATOM      9  C   UNL     1      28.003  23.061  24.406  0.00  0.00    +0.000 A 
ATOM     10  C   UNL     1      26.666  23.106  24.309  0.00  0.00    +0.000 A 
ATOM     11  C   UNL     1      26.095  23.509  23.122  0.00  0.00    +0.000 A 
ATOM     12  C   UNL     1      26.844  23.866  22.035  0.00  0.00    +0.000 A 
ATOM     13  C   UNL     1      28.212  23.822  22.132  0.00  0.00    +0.000 A 
ATOM     14  C   UNL     1      28.778  23.415  23.329  0.00  0.00    +0.000 A 
ENDBRANCH   4   9
BRANCH   3  15
ATOM     15  C   UNL     1      27.427  24.111  27.209  0.00  0.00    +0.000 C 
ATOM     16  O   UNL     1      26.789  25.167  27.068  0.00  0.00    +0.000 OA
BRANCH  15  17
ATOM     17  O   UNL     1      26.965  23.099  28.018  0.00  0.00    +0.000 OA
BRANCH  17  18
ATOM     18  C   UNL     1      26.953  23.269  29.422  0.00  0.00    +0.000 C 
ATOM     19  C   UNL     1      28.320  23.705  29.871  0.00  0.00    +0.000 C 
ATOM     20  C   UNL     1      25.905  24.315  29.796  0.00  0.00    +0.000 C 
ATOM     21  C   UNL     1      26.656  21.940  30.071  0.00  0.00    +0.000 C 
ENDBRANCH  17  18
ENDBRANCH  15  17
ENDBRANCH   3  15
TORSDOF 4
ENDMDL
MODEL 5
REMARK VINA RESULT:      -5.3     20.467     23.078
REMARK  Name = 
REMARK  4 active torsions:
REMARK  status: ('A' for Active; 'I' for Inactive)
REMARK    1  A    between atoms: C_3  and  C_4
REMARK    2  A    between atoms: C_4  and  O_6
REMARK    3  A    between atoms: O_6  and  C_7
REMARK    4  A    between atoms: C_11  and  C_12
REMARK                            x       y       z     vdW  Elec       q    Type
REMARK                         _______ _______ _______ _____ _____    ______ ____
ROOT
ATOM      1  C   UNL     1      37.505   6.487  37.040  0.00  0.00    +0.000 C 
ATOM      2  C   UNL     1      36.134   5.916  37.409  0.00  0.00    +0.000 C 
ATOM      3  C   UNL     1      35.129   6.402  36.809  0.00  0.00    +0.000 C 
ATOM      4  C   UNL     1      33.636   6.046  36.880  0.00  0.00    +0.000 C 
ATOM      5  S   UNL     1      33.577   4.850  38.320  0.00  0.00    +0.000 S 
ATOM      6  C   UNL     1      35.143   4.408  38.903  0.00  0.00    +0.000 C 
ATOM      7  N   UNL     1      35.222   3.422  39.938  0.00  0.00    +0.000 NA
ATOM      8  N   UNL     1      36.183   4.962  38.410  0.00  0.00    +0.000 NA
ENDROOT
BRANCH   4   9
ATOM      9  C   UNL     1      33.568   5.021  35.696  0.00  0.00    +0.000 A 
ATOM     10  C   UNL     1      34.080   3.785  35.775  0.00  0.00    +0.000 A 
ATOM     11  C   UNL     1      33.976   2.947  34.686  0.00  0.00    +0.000 A 
ATOM     12  C   UNL     1      33.366   3.331  33.524  0.00  0.00    +0.000 A 
ATOM     13  C   UNL     1      32.840   4.595  33.441  0.00  0.00    +0.000 A 
ATOM     14  C   UNL     1      32.950   5.432  34.539  0.00  0.00    +0.000 A 
ENDBRANCH   4   9
BRANCH   3  15
ATOM     15  C   UNL     1      35.341   7.498  35.794  0.00  0.00    +0.000 C 
ATOM     16  O   UNL     1      36.196   7.326  34.911  0.00  0.00    +0.000 OA
BRANCH  15  17
ATOM     17  O   UNL     1      34.599   8.655  35.856  0.00  0.00    +0.000 OA
BRANCH  17  18
ATOM     18  C   UNL     1      35.226   9.877  36.193  0.00  0.00    +0.000 C 
ATOM     19  C   UNL     1      35.993   9.694  37.473  0.00  0.00    +0.000 C 
ATOM     20  C   UNL     1      36.162  10.294  35.061  0.00  0.00    +0.000 C 
ATOM     21  C   UNL     1      34.163  10.919  36.436  0.00  0.00    +0.000 C 
ENDBRANCH  17  18
ENDBRANCH  15  17
ENDBRANCH   3  15
TORSDOF 4
ENDMDL
MODEL 6
REMARK VINA RESULT:      -5.3      2.015      4.978
REMARK  Name = 
REMARK  4 active torsions:
REMARK  status: ('A' for Active; 'I' for Inactive)
REMARK    1  A    between atoms: C_3  and  C_4
REMARK    2  A    between atoms: C_4  and  O_6
REMARK    3  A    between atoms: O_6  and  C_7
REMARK    4  A    between atoms: C_11  and  C_12
REMARK                            x       y       z     vdW  Elec       q    Type
REMARK                         _______ _______ _______ _____ _____    ______ ____
ROOT
ATOM      1  C   UNL     1      29.301  25.553  24.362  0.00  0.00    +0.000 C 
ATOM      2  C   UNL     1      28.021  24.716  24.381  0.00  0.00    +0.000 C 
ATOM      3  C   UNL     1      27.590  24.350  25.516  0.00  0.00    +0.000 C 
ATOM      4  C   UNL     1      26.333  23.564  25.918  0.00  0.00    +0.000 C 
ATOM      5  S   UNL     1      25.666  22.998  24.263  0.00  0.00    +0.000 S 
ATOM      6  C   UNL     1      26.507  23.687  22.918  0.00  0.00    +0.000 C 
ATOM      7  N   UNL     1      26.019  23.403  21.603  0.00  0.00    +0.000 NA
ATOM      8  N   UNL     1      27.530  24.424  23.121  0.00  0.00    +0.000 NA
ENDROOT
BRANCH   4   9
ATOM      9  C   UNL     1      25.363  24.766  26.185  0.00  0.00    +0.000 A 
ATOM     10  C   UNL     1      24.906  25.561  25.207  0.00  0.00    +0.000 A 
ATOM     11  C   UNL     1      24.055  26.596  25.529  0.00  0.00    +0.000 A 
ATOM     12  C   UNL     1      23.657  26.842  26.814  0.00  0.00    +0.000 A 
ATOM     13  C   UNL     1      24.122  26.029  27.817  0.00  0.00    +0.000 A 
ATOM     14  C   UNL     1      24.978  24.992  27.485  0.00  0.00    +0.000 A 
ENDBRANCH   4   9
BRANCH   3  15
ATOM     15  C   UNL     1      28.357  24.748  26.753  0.00  0.00    +0.000 C 
ATOM     16  O   UNL     1      28.497  25.958  26.996  0.00  0.00    +0.000 OA
BRANCH  15  17
ATOM     17  O   UNL     1      28.883  23.786  27.584  0.00  0.00    +0.000 OA
BRANCH  17  18
ATOM     18  C   UNL     1      30.200  23.317  27.374  0.00  0.00    +0.000 C 
ATOM     19  C   UNL     1      30.676  22.627  28.622  0.00  0.00    +0.000 C 
ATOM     20  C   UNL     1      30.210  22.353  26.190  0.00  0.00    +0.000 C 
ATOM     21  C   UNL     1      31.105  24.498  27.125  0.00  0.00    +0.000 C 
ENDBRANCH  17  18
ENDBRANCH  15  17
ENDBRANCH   3  15
TORSDOF 4
ENDMDL
MODEL 7
REMARK VINA RESULT:      -5.3      3.465      5.224
REMARK  Name = 
REMARK  4 active torsions:
REMARK  status: ('A' for Active; 'I' for Inactive)
REMARK    1  A    between atoms: C_3  and  C_4
REMARK    2  A    between atoms: C_4  and  O_6
REMARK    3  A    between atoms: O_6  and  C_7
REMARK    4  A    between atoms: C_11  and  C_12
REMARK                            x       y       z     vdW  Elec       q    Type
REMARK                         _______ _______ _______ _____ _____    ______ ____
ROOT
ATOM      1  C   UNL     1      27.454  27.099  27.365  0.00  0.00    +0.000 C 
ATOM      2  C   UNL     1      27.200  25.694  27.914  0.00  0.00    +0.000 C 
ATOM      3  C   UNL     1      27.492  24.719  27.158  0.00  0.00    +0.000 C 
ATOM      4  C   UNL     1      27.426  23.201  27.388  0.00  0.00    +0.000 C 
ATOM      5  S   UNL     1      26.519  23.083  29.022  0.00  0.00    +0.000 S 
ATOM      6  C   UNL     1      26.274  24.618  29.778  0.00  0.00    +0.000 C 
ATOM      7  N   UNL     1      25.679  24.639  31.080  0.00  0.00    +0.000 NA
ATOM      8  N   UNL     1      26.621  25.686  29.171  0.00  0.00    +0.000 NA
ENDROOT
BRANCH   4   9
ATOM      9  C   UNL     1      28.891  22.962  27.892  0.00  0.00    +0.000 A 
ATOM     10  C   UNL     1      29.360  23.485  29.035  0.00  0.00    +0.000 A 
ATOM     11  C   UNL     1      30.661  23.223  29.405  0.00  0.00    +0.000 A 
ATOM     12  C   UNL     1      31.494  22.446  28.649  0.00  0.00    +0.000 A 
ATOM     13  C   UNL     1      31.016  21.909  27.480  0.00  0.00    +0.000 A 
ATOM     14  C   UNL     1      29.707  22.178  27.114  0.00  0.00    +0.000 A 
ENDBRANCH   4   9
BRANCH   3  15
ATOM     15  C   UNL     1      28.055  25.000  25.787  0.00  0.00    +0.000 C 
ATOM     16  O   UNL     1      29.279  25.174  25.676  0.00  0.00    +0.000 OA
BRANCH  15  17
ATOM     17  O   UNL     1      27.223  25.058  24.692  0.00  0.00    +0.000 OA
BRANCH  17  18
ATOM     18  C   UNL     1      27.228  24.008  23.746  0.00  0.00    +0.000 C 
ATOM     19  C   UNL     1      27.179  24.597  22.364  0.00  0.00    +0.000 C 
ATOM     20  C   UNL     1      28.492  23.170  23.928  0.00  0.00    +0.000 C 
ATOM     21  C   UNL     1      25.986  23.173  23.937  0.00  0.00    +0.000 C 
ENDBRANCH  17  18
ENDBRANCH  15  17
ENDBRANCH   3  15
TORSDOF 4
ENDMDL
MODEL 8
REMARK VINA RESULT:      -5.3      2.891      4.681
REMARK  Name = 
REMARK  4 active torsions:
REMARK  status: ('A' for Active; 'I' for Inactive)
REMARK    1  A    between atoms: C_3  and  C_4
REMARK    2  A    between atoms: C_4  and  O_6
REMARK    3  A    between atoms: O_6  and  C_7
REMARK    4  A    between atoms: C_11  and  C_12
REMARK                            x       y       z     vdW  Elec       q    Type
REMARK                         _______ _______ _______ _____ _____    ______ ____
ROOT
ATOM      1  C   UNL     1      30.869  25.317  28.742  0.00  0.00    +0.000 C 
ATOM      2  C   UNL     1      30.639  24.324  27.601  0.00  0.00    +0.000 C 
ATOM      3  C   UNL     1      29.684  23.502  27.737  0.00  0.00    +0.000 C 
ATOM      4  C   UNL     1      29.133  22.421  26.795  0.00  0.00    +0.000 C 
ATOM      5  S   UNL     1      30.414  22.390  25.429  0.00  0.00    +0.000 S 
ATOM      6  C   UNL     1      31.585  23.654  25.565  0.00  0.00    +0.000 C 
ATOM      7  N   UNL     1      32.554  23.789  24.519  0.00  0.00    +0.000 NA
ATOM      8  N   UNL     1      31.566  24.431  26.579  0.00  0.00    +0.000 NA
ENDROOT
BRANCH   4   9
ATOM      9  C   UNL     1      28.018  23.258  26.080  0.00  0.00    +0.000 A 
ATOM     10  C   UNL     1      28.182  24.545  25.740  0.00  0.00    +0.000 A 
ATOM     11  C   UNL     1      27.149  25.206  25.111  0.00  0.00    +0.000 A 
ATOM     12  C   UNL     1      25.960  24.598  24.821  0.00  0.00    +0.000 A 
ATOM     13  C   UNL     1      25.790  23.281  25.167  0.00  0.00    +0.000 A 
ATOM     14  C   UNL     1      26.833  22.623  25.799  0.00  0.00    +0.000 A 
ENDBRANCH   4   9
BRANCH   3  15
ATOM     15  C   UNL     1      28.853  23.549  28.996  0.00  0.00    +0.000 C 
ATOM     16  O   UNL     1      29.067  22.698  29.875  0.00  0.00    +0.000 OA
BRANCH  15  17
ATOM     17  O   UNL     1      27.885  24.514  29.156  0.00  0.00    +0.000 OA
BRANCH  17  18
ATOM     18  C   UNL     1      26.581  24.145  29.558  0.00  0.00    +0.000 C 
ATOM     19  C   UNL     1      26.435  22.654  29.430  0.00  0.00    +0.000 C 
ATOM     20  C   UNL     1      26.354  24.584  31.002  0.00  0.00    +0.000 C 
ATOM     21  C   UNL     1      25.584  24.788  28.627  0.00  0.00    +0.000 C 
ENDBRANCH  17  18
ENDBRANCH  15  17
ENDBRANCH   3  15
TORSDOF 4
ENDMDL
MODEL 9
REMARK VINA RESULT:      -5.2      2.717      4.993
REMARK  Name = 
REMARK  4 active torsions:
REMARK  status: ('A' for Active; 'I' for Inactive)
REMARK    1  A    between atoms: C_3  and  C_4
REMARK    2  A    between atoms: C_4  and  O_6
REMARK    3  A    between atoms: O_6  and  C_7
REMARK    4  A    between atoms: C_11  and  C_12
REMARK                            x       y       z     vdW  Elec       q    Type
REMARK                         _______ _______ _______ _____ _____    ______ ____
ROOT
ATOM      1  C   UNL     1      30.615  27.602  25.171  0.00  0.00    +0.000 C 
ATOM      2  C   UNL     1      29.870  27.181  23.903  0.00  0.00    +0.000 C 
ATOM      3  C   UNL     1      29.831  25.941  23.643  0.00  0.00    +0.000 C 
ATOM      4  C   UNL     1      29.142  25.162  22.512  0.00  0.00    +0.000 C 
ATOM      5  S   UNL     1      28.557  26.534  21.380  0.00  0.00    +0.000 S 
ATOM      6  C   UNL     1      28.778  28.112  22.050  0.00  0.00    +0.000 C 
ATOM      7  N   UNL     1      28.275  29.232  21.315  0.00  0.00    +0.000 NA
ATOM      8  N   UNL     1      29.376  28.246  23.171  0.00  0.00    +0.000 NA
ENDROOT
BRANCH   4   9
ATOM      9  C   UNL     1      27.789  24.828  23.227  0.00  0.00    +0.000 A 
ATOM     10  C   UNL     1      27.157  25.699  24.028  0.00  0.00    +0.000 A 
ATOM     11  C   UNL     1      25.969  25.324  24.617  0.00  0.00    +0.000 A 
ATOM     12  C   UNL     1      25.408  24.093  24.415  0.00  0.00    +0.000 A 
ATOM     13  C   UNL     1      26.053  23.201  23.595  0.00  0.00    +0.000 A 
ATOM     14  C   UNL     1      27.247  23.585  23.007  0.00  0.00    +0.000 A 
ENDBRANCH   4   9
BRANCH   3  15
ATOM     15  C   UNL     1      30.516  24.975  24.579  0.00  0.00    +0.000 C 
ATOM     16  O   UNL     1      31.695  24.663  24.344  0.00  0.00    +0.000 OA
BRANCH  15  17
ATOM     17  O   UNL     1      29.842  24.460  25.662  0.00  0.00    +0.000 OA
BRANCH  17  18
ATOM     18  C   UNL     1      29.884  23.072  25.923  0.00  0.00    +0.000 C 
ATOM     19  C   UNL     1      30.228  22.347  24.651  0.00  0.00    +0.000 C 
ATOM     20  C   UNL     1      30.928  22.790  27.001  0.00  0.00    +0.000 C 
ATOM     21  C   UNL     1      28.513  22.616  26.357  0.00  0.00    +0.000 C 
ENDBRANCH  17  18
ENDBRANCH  15  17
ENDBRANCH   3  15
TORSDOF 4
ENDMDL
MODEL 10
REMARK VINA RESULT:      -5.2     31.379     32.907
REMARK  Name = 
REMARK  4 active torsions:
REMARK  status: ('A' for Active; 'I' for Inactive)
REMARK    1  A    between atoms: C_3  and  C_4
REMARK    2  A    between atoms: C_4  and  O_6
REMARK    3  A    between atoms: O_6  and  C_7
REMARK    4  A    between atoms: C_11  and  C_12
REMARK                            x       y       z     vdW  Elec       q    Type
REMARK                         _______ _______ _______ _____ _____    ______ ____
ROOT
ATOM      1  C   UNL     1      31.993  -9.403  33.797  0.00  0.00    +0.000 C 
ATOM      2  C   UNL     1      31.188  -8.721  32.689  0.00  0.00    +0.000 C 
ATOM      3  C   UNL     1      31.462  -7.508  32.443  0.00  0.00    +0.000 C 
ATOM      4  C   UNL     1      30.911  -6.538  31.387  0.00  0.00    +0.000 C 
ATOM      5  S   UNL     1      29.474  -7.501  30.669  0.00  0.00    +0.000 S 
ATOM      6  C   UNL     1      29.393  -9.131  31.240  0.00  0.00    +0.000 C 
ATOM      7  N   UNL     1      28.394  -9.990  30.681  0.00  0.00    +0.000 NA
ATOM      8  N   UNL     1      30.212  -9.530  32.135  0.00  0.00    +0.000 NA
ENDROOT
BRANCH   4   9
ATOM      9  C   UNL     1      31.968  -6.775  30.254  0.00  0.00    +0.000 A 
ATOM     10  C   UNL     1      32.313  -7.999  29.829  0.00  0.00    +0.000 A 
ATOM     11  C   UNL     1      33.251  -8.118  28.826  0.00  0.00    +0.000 A 
ATOM     12  C   UNL     1      33.845  -7.031  28.247  0.00  0.00    +0.000 A 
ATOM     13  C   UNL     1      33.493  -5.778  28.681  0.00  0.00    +0.000 A 
ATOM     14  C   UNL     1      32.549  -5.666  29.689  0.00  0.00    +0.000 A 
ENDBRANCH   4   9
BRANCH   3  15
ATOM     15  C   UNL     1      32.539  -6.823  33.247  0.00  0.00    +0.000 C 
ATOM     16  O   UNL     1      32.198  -6.125  34.215  0.00  0.00    +0.000 OA
BRANCH  15  17
ATOM     17  O   UNL     1      33.864  -6.976  32.908  0.00  0.00    +0.000 OA
BRANCH  17  18
ATOM     18  C   UNL     1      34.706  -5.843  32.828  0.00  0.00    +0.000 C 
ATOM     19  C   UNL     1      35.653  -6.020  31.674  0.00  0.00    +0.000 C 
ATOM     20  C   UNL     1      33.853  -4.591  32.635  0.00  0.00    +0.000 C 
ATOM     21  C   UNL     1      35.528  -5.757  34.090  0.00  0.00    +0.000 C 
ENDBRANCH  17  18
ENDBRANCH  15  17
ENDBRANCH   3  15
TORSDOF 4
ENDMDL
