MODEL 1
REMARK VINA RESULT:      -8.1      0.000      0.000
REMARK  Name = 
REMARK  7 active torsions:
REMARK  status: ('A' for Active; 'I' for Inactive)
REMARK    1  A    between atoms: C_2  and  C_4
REMARK    2  A    between atoms: C_7  and  C_8
REMARK    3  A    between atoms: C_11  and  C_12
REMARK    4  A    between atoms: C_18  and  C_19
REMARK    5  A    between atoms: N_21  and  C_22
REMARK    6  A    between atoms: C_22  and  C_23
REMARK    7  A    between atoms: C_23  and  C_24
REMARK                            x       y       z     vdW  Elec       q    Type
REMARK                         _______ _______ _______ _____ _____    ______ ____
ROOT
ATOM      1  C   UNL     1      37.314   3.589  14.091  0.00  0.00    +0.000 C 
ATOM      2  O   UNL     1      35.817   3.797  14.271  0.00  0.00    +0.000 OA
ATOM      3  N   UNL     1      35.666   3.503  15.573  0.00  0.00    +0.000 NA
ATOM      4  C   UNL     1      36.336   2.221  15.695  0.00  0.00    +0.000 C 
ATOM      5  C   UNL     1      37.322   2.168  14.866  0.00  0.00    +0.000 C 
ENDROOT
BRANCH   1   9
ATOM      6  C   UNL     1      38.518   6.241  17.233  0.00  0.00    +0.000 A 
ATOM      7  C   UNL     1      38.827   4.912  17.345  0.00  0.00    +0.000 A 
ATOM      8  C   UNL     1      38.452   4.001  16.347  0.00  0.00    +0.000 A 
ATOM      9  C   UNL     1      37.785   4.496  15.292  0.00  0.00    +0.000 A 
ATOM     10  C   UNL     1      37.476   5.806  15.174  0.00  0.00    +0.000 A 
ATOM     11  C   UNL     1      37.833   6.754  16.154  0.00  0.00    +0.000 A 
BRANCH   6  13
ATOM     12  C   UNL     1      39.511   6.389  19.491  0.00  0.00    +0.000 C 
ATOM     13  C   UNL     1      38.951   7.172  18.346  0.00  0.00    +0.000 C 
ATOM     14  C   UNL     1      37.721   7.888  18.796  0.00  0.00    +0.000 C 
ENDBRANCH   6  13
ENDBRANCH   1   9
BRANCH   4  15
ATOM     15  C   UNL     1      35.964   1.143  16.612  0.00  0.00    +0.000 A 
ATOM     16  C   UNL     1      35.290   0.045  16.102  0.00  0.00    +0.000 A 
ATOM     17  C   UNL     1      34.899  -1.026  16.880  0.00  0.00    +0.000 A 
ATOM     18  C   UNL     1      35.175  -1.041  18.230  0.00  0.00    +0.000 A 
ATOM     19  C   UNL     1      35.841   0.038  18.754  0.00  0.00    +0.000 A 
ATOM     20  C   UNL     1      36.220   1.095  17.952  0.00  0.00    +0.000 A 
ENDBRANCH   4  15
BRANCH   5  21
ATOM     21  C   UNL     1      38.328   1.166  14.553  0.00  0.00    +0.000 C 
ATOM     22  O   UNL     1      39.501   1.168  14.982  0.00  0.00    +0.000 OA
ATOM     23  N   UNL     1      38.031   0.074  13.703  0.00  0.00    +0.000 NA
BRANCH  23  24
ATOM     24  C   UNL     1      39.072  -0.889  13.427  0.00  0.00    +0.000 C 
BRANCH  24  25
ATOM     25  C   UNL     1      38.418  -2.248  13.451  0.00  0.00    +0.000 C 
BRANCH  25  26
ATOM     26  C   UNL     1      38.221  -2.689  14.833  0.00  0.00    +0.000 A 
ATOM     27  C   UNL     1      39.013  -2.257  15.860  0.00  0.00    +0.000 A 
ATOM     28  C   UNL     1      38.839  -2.663  17.162  0.00  0.00    +0.000 A 
ATOM     29  C   UNL     1      37.819  -3.544  17.438  0.00  0.00    +0.000 A 
ATOM     30  C   UNL     1      36.998  -3.999  16.417  0.00  0.00    +0.000 A 
ATOM     31  C   UNL     1      37.197  -3.572  15.111  0.00  0.00    +0.000 A 
ATOM     32  F   UNL     1      36.380  -4.036  14.137  0.00  0.00    +0.000 F 
ENDBRANCH  25  26
ENDBRANCH  24  25
ENDBRANCH  23  24
ENDBRANCH   5  21
TORSDOF 7
ENDMDL
MODEL 2
REMARK VINA RESULT:      -7.7      2.334      4.845
REMARK  Name = 
REMARK  7 active torsions:
REMARK  status: ('A' for Active; 'I' for Inactive)
REMARK    1  A    between atoms: C_2  and  C_4
REMARK    2  A    between atoms: C_7  and  C_8
REMARK    3  A    between atoms: C_11  and  C_12
REMARK    4  A    between atoms: C_18  and  C_19
REMARK    5  A    between atoms: N_21  and  C_22
REMARK    6  A    between atoms: C_22  and  C_23
REMARK    7  A    between atoms: C_23  and  C_24
REMARK                            x       y       z     vdW  Elec       q    Type
REMARK                         _______ _______ _______ _____ _____    ______ ____
ROOT
ATOM      1  C   UNL     1      39.061   4.442  14.693  0.00  0.00    +0.000 C 
ATOM      2  O   UNL     1      39.432   5.730  13.971  0.00  0.00    +0.000 OA
ATOM      3  N   UNL     1      38.676   6.625  14.626  0.00  0.00    +0.000 NA
ATOM      4  C   UNL     1      37.357   6.020  14.598  0.00  0.00    +0.000 C 
ATOM      5  C   UNL     1      37.470   4.736  14.633  0.00  0.00    +0.000 C 
ENDROOT
BRANCH   1   9
ATOM      6  C   UNL     1      39.974   5.937  18.603  0.00  0.00    +0.000 A 
ATOM      7  C   UNL     1      38.877   5.134  18.450  0.00  0.00    +0.000 A 
ATOM      8  C   UNL     1      38.530   4.622  17.191  0.00  0.00    +0.000 A 
ATOM      9  C   UNL     1      39.324   4.957  16.160  0.00  0.00    +0.000 A 
ATOM     10  C   UNL     1      40.409   5.748  16.302  0.00  0.00    +0.000 A 
ATOM     11  C   UNL     1      40.791   6.284  17.549  0.00  0.00    +0.000 A 
BRANCH   6  13
ATOM     12  C   UNL     1      39.356   7.563  20.357  0.00  0.00    +0.000 C 
ATOM     13  C   UNL     1      40.294   6.458  19.988  0.00  0.00    +0.000 C 
ATOM     14  C   UNL     1      41.684   6.997  19.923  0.00  0.00    +0.000 C 
ENDBRANCH   6  13
ENDBRANCH   1   9
BRANCH   4  15
ATOM     15  C   UNL     1      36.084   6.740  14.538  0.00  0.00    +0.000 A 
ATOM     16  C   UNL     1      36.016   8.010  15.086  0.00  0.00    +0.000 A 
ATOM     17  C   UNL     1      34.866   8.773  15.077  0.00  0.00    +0.000 A 
ATOM     18  C   UNL     1      33.712   8.283  14.504  0.00  0.00    +0.000 A 
ATOM     19  C   UNL     1      33.759   7.026  13.957  0.00  0.00    +0.000 A 
ATOM     20  C   UNL     1      34.924   6.285  13.981  0.00  0.00    +0.000 A 
ENDBRANCH   4  15
BRANCH   5  21
ATOM     21  C   UNL     1      36.519   3.636  14.636  0.00  0.00    +0.000 C 
ATOM     22  O   UNL     1      36.271   2.899  13.660  0.00  0.00    +0.000 OA
ATOM     23  N   UNL     1      35.778   3.315  15.799  0.00  0.00    +0.000 NA
BRANCH  23  24
ATOM     24  C   UNL     1      34.848   2.212  15.741  0.00  0.00    +0.000 C 
BRANCH  24  25
ATOM     25  C   UNL     1      35.268   1.238  16.814  0.00  0.00    +0.000 C 
BRANCH  25  26
ATOM     26  C   UNL     1      35.524  -0.078  16.228  0.00  0.00    +0.000 A 
ATOM     27  C   UNL     1      36.384  -0.260  15.181  0.00  0.00    +0.000 A 
ATOM     28  C   UNL     1      36.634  -1.491  14.622  0.00  0.00    +0.000 A 
ATOM     29  C   UNL     1      35.984  -2.586  15.142  0.00  0.00    +0.000 A 
ATOM     30  C   UNL     1      35.106  -2.433  16.204  0.00  0.00    +0.000 A 
ATOM     31  C   UNL     1      34.873  -1.178  16.750  0.00  0.00    +0.000 A 
ATOM     32  F   UNL     1      34.009  -1.063  17.785  0.00  0.00    +0.000 F 
ENDBRANCH  25  26
ENDBRANCH  24  25
ENDBRANCH  23  24
ENDBRANCH   5  21
TORSDOF 7
ENDMDL
MODEL 3
REMARK VINA RESULT:      -7.6      2.079      6.040
REMARK  Name = 
REMARK  7 active torsions:
REMARK  status: ('A' for Active; 'I' for Inactive)
REMARK    1  A    between atoms: C_2  and  C_4
REMARK    2  A    between atoms: C_7  and  C_8
REMARK    3  A    between atoms: C_11  and  C_12
REMARK    4  A    between atoms: C_18  and  C_19
REMARK    5  A    between atoms: N_21  and  C_22
REMARK    6  A    between atoms: C_22  and  C_23
REMARK    7  A    between atoms: C_23  and  C_24
REMARK                            x       y       z     vdW  Elec       q    Type
REMARK                         _______ _______ _______ _____ _____    ______ ____
ROOT
ATOM      1  C   UNL     1      36.354  -0.283  14.175  0.00  0.00    +0.000 C 
ATOM      2  O   UNL     1      36.455   0.450  12.844  0.00  0.00    +0.000 OA
ATOM      3  N   UNL     1      37.541   1.214  13.047  0.00  0.00    +0.000 NA
ATOM      4  C   UNL     1      37.253   1.855  14.317  0.00  0.00    +0.000 C 
ATOM      5  C   UNL     1      36.559   1.059  15.056  0.00  0.00    +0.000 C 
ENDROOT
BRANCH   1   9
ATOM      6  C   UNL     1      40.352  -1.822  14.111  0.00  0.00    +0.000 A 
ATOM      7  C   UNL     1      39.954  -1.081  15.191  0.00  0.00    +0.000 A 
ATOM      8  C   UNL     1      38.658  -0.550  15.259  0.00  0.00    +0.000 A 
ATOM      9  C   UNL     1      37.841  -0.806  14.224  0.00  0.00    +0.000 A 
ATOM     10  C   UNL     1      38.226  -1.537  13.155  0.00  0.00    +0.000 A 
ATOM     11  C   UNL     1      39.519  -2.087  13.046  0.00  0.00    +0.000 A 
BRANCH   6  13
ATOM     12  C   UNL     1      42.745  -1.278  14.406  0.00  0.00    +0.000 C 
ATOM     13  C   UNL     1      41.765  -2.367  14.098  0.00  0.00    +0.000 C 
ATOM     14  C   UNL     1      42.009  -2.867  12.714  0.00  0.00    +0.000 C 
ENDBRANCH   6  13
ENDBRANCH   1   9
BRANCH   4  15
ATOM     15  C   UNL     1      37.677   3.198  14.716  0.00  0.00    +0.000 A 
ATOM     16  C   UNL     1      38.991   3.386  15.114  0.00  0.00    +0.000 A 
ATOM     17  C   UNL     1      39.491   4.612  15.503  0.00  0.00    +0.000 A 
ATOM     18  C   UNL     1      38.676   5.725  15.509  0.00  0.00    +0.000 A 
ATOM     19  C   UNL     1      37.371   5.558  15.119  0.00  0.00    +0.000 A 
ATOM     20  C   UNL     1      36.898   4.319  14.735  0.00  0.00    +0.000 A 
ENDBRANCH   4  15
BRANCH   5  21
ATOM     21  C   UNL     1      36.000   1.150  16.395  0.00  0.00    +0.000 C 
ATOM     22  O   UNL     1      34.895   1.657  16.680  0.00  0.00    +0.000 OA
ATOM     23  N   UNL     1      36.704   0.647  17.516  0.00  0.00    +0.000 NA
BRANCH  23  24
ATOM     24  C   UNL     1      36.099   0.767  18.822  0.00  0.00    +0.000 C 
BRANCH  24  25
ATOM     25  C   UNL     1      35.641  -0.616  19.212  0.00  0.00    +0.000 C 
BRANCH  25  26
ATOM     26  C   UNL     1      36.519  -1.625  18.617  0.00  0.00    +0.000 A 
ATOM     27  C   UNL     1      37.771  -1.883  19.099  0.00  0.00    +0.000 A 
ATOM     28  C   UNL     1      38.605  -2.828  18.549  0.00  0.00    +0.000 A 
ATOM     29  C   UNL     1      38.154  -3.542  17.464  0.00  0.00    +0.000 A 
ATOM     30  C   UNL     1      36.887  -3.302  16.952  0.00  0.00    +0.000 A 
ATOM     31  C   UNL     1      36.065  -2.342  17.528  0.00  0.00    +0.000 A 
ATOM     32  F   UNL     1      34.835  -2.132  17.005  0.00  0.00    +0.000 F 
ENDBRANCH  25  26
ENDBRANCH  24  25
ENDBRANCH  23  24
ENDBRANCH   5  21
TORSDOF 7
ENDMDL
MODEL 4
REMARK VINA RESULT:      -7.6      3.680      8.424
REMARK  Name = 
REMARK  7 active torsions:
REMARK  status: ('A' for Active; 'I' for Inactive)
REMARK    1  A    between atoms: C_2  and  C_4
REMARK    2  A    between atoms: C_7  and  C_8
REMARK    3  A    between atoms: C_11  and  C_12
REMARK    4  A    between atoms: C_18  and  C_19
REMARK    5  A    between atoms: N_21  and  C_22
REMARK    6  A    between atoms: C_22  and  C_23
REMARK    7  A    between atoms: C_23  and  C_24
REMARK                            x       y       z     vdW  Elec       q    Type
REMARK                         _______ _______ _______ _____ _____    ______ ____
ROOT
ATOM      1  C   UNL     1      36.647   2.950  13.691  0.00  0.00    +0.000 C 
ATOM      2  O   UNL     1      38.054   2.372  13.643  0.00  0.00    +0.000 OA
ATOM      3  N   UNL     1      38.404   2.426  14.938  0.00  0.00    +0.000 NA
ATOM      4  C   UNL     1      38.092   3.796  15.302  0.00  0.00    +0.000 C 
ATOM      5  C   UNL     1      37.073   4.201  14.625  0.00  0.00    +0.000 C 
ENDROOT
BRANCH   1   9
ATOM      6  C   UNL     1      35.206   0.212  16.654  0.00  0.00    +0.000 A 
ATOM      7  C   UNL     1      34.912   1.541  16.795  0.00  0.00    +0.000 A 
ATOM      8  C   UNL     1      35.363   2.480  15.856  0.00  0.00    +0.000 A 
ATOM      9  C   UNL     1      36.087   2.010  14.826  0.00  0.00    +0.000 A 
ATOM     10  C   UNL     1      36.381   0.699  14.680  0.00  0.00    +0.000 A 
ATOM     11  C   UNL     1      35.948  -0.276  15.601  0.00  0.00    +0.000 A 
BRANCH   6  13
ATOM     12  C   UNL     1      35.519  -0.662  18.944  0.00  0.00    +0.000 C 
ATOM     13  C   UNL     1      34.689  -0.750  17.703  0.00  0.00    +0.000 C 
ATOM     14  C   UNL     1      34.824  -2.118  17.120  0.00  0.00    +0.000 C 
ENDBRANCH   6  13
ENDBRANCH   1   9
BRANCH   4  15
ATOM     15  C   UNL     1      38.813   4.609  16.283  0.00  0.00    +0.000 A 
ATOM     16  C   UNL     1      38.400   4.568  17.605  0.00  0.00    +0.000 A 
ATOM     17  C   UNL     1      39.014   5.292  18.607  0.00  0.00    +0.000 A 
ATOM     18  C   UNL     1      40.091   6.103  18.318  0.00  0.00    +0.000 A 
ATOM     19  C   UNL     1      40.514   6.157  17.015  0.00  0.00    +0.000 A 
ATOM     20  C   UNL     1      39.880   5.422  16.033  0.00  0.00    +0.000 A 
ENDBRANCH   4  15
BRANCH   5  21
ATOM     21  C   UNL     1      36.323   5.446  14.572  0.00  0.00    +0.000 C 
ATOM     22  O   UNL     1      36.783   6.574  14.850  0.00  0.00    +0.000 OA
ATOM     23  N   UNL     1      34.962   5.463  14.183  0.00  0.00    +0.000 NA
BRANCH  23  24
ATOM     24  C   UNL     1      34.269   6.730  14.151  0.00  0.00    +0.000 C 
BRANCH  24  25
ATOM     25  C   UNL     1      33.678   6.862  12.768  0.00  0.00    +0.000 C 
BRANCH  25  26
ATOM     26  C   UNL     1      34.365   7.919  12.025  0.00  0.00    +0.000 A 
ATOM     27  C   UNL     1      35.178   8.834  12.634  0.00  0.00    +0.000 A 
ATOM     28  C   UNL     1      35.829   9.831  11.947  0.00  0.00    +0.000 A 
ATOM     29  C   UNL     1      35.650   9.908  10.585  0.00  0.00    +0.000 A 
ATOM     30  C   UNL     1      34.832   8.993   9.939  0.00  0.00    +0.000 A 
ATOM     31  C   UNL     1      34.187   7.995  10.658  0.00  0.00    +0.000 A 
ATOM     32  F   UNL     1      33.394   7.119   9.999  0.00  0.00    +0.000 F 
ENDBRANCH  25  26
ENDBRANCH  24  25
ENDBRANCH  23  24
ENDBRANCH   5  21
TORSDOF 7
ENDMDL
MODEL 5
REMARK VINA RESULT:      -7.5      3.318      8.278
REMARK  Name = 
REMARK  7 active torsions:
REMARK  status: ('A' for Active; 'I' for Inactive)
REMARK    1  A    between atoms: C_2  and  C_4
REMARK    2  A    between atoms: C_7  and  C_8
REMARK    3  A    between atoms: C_11  and  C_12
REMARK    4  A    between atoms: C_18  and  C_19
REMARK    5  A    between atoms: N_21  and  C_22
REMARK    6  A    between atoms: C_22  and  C_23
REMARK    7  A    between atoms: C_23  and  C_24
REMARK                            x       y       z     vdW  Elec       q    Type
REMARK                         _______ _______ _______ _____ _____    ______ ____
ROOT
ATOM      1  C   UNL     1      36.859   2.734  13.573  0.00  0.00    +0.000 C 
ATOM      2  O   UNL     1      38.266   2.155  13.634  0.00  0.00    +0.000 OA
ATOM      3  N   UNL     1      38.542   2.274  14.942  0.00  0.00    +0.000 NA
ATOM      4  C   UNL     1      38.213   3.659  15.220  0.00  0.00    +0.000 C 
ATOM      5  C   UNL     1      37.234   4.030  14.466  0.00  0.00    +0.000 C 
ENDROOT
BRANCH   1   9
ATOM      6  C   UNL     1      35.235   0.145  16.576  0.00  0.00    +0.000 A 
ATOM      7  C   UNL     1      34.995   1.489  16.672  0.00  0.00    +0.000 A 
ATOM      8  C   UNL     1      35.508   2.380  15.719  0.00  0.00    +0.000 A 
ATOM      9  C   UNL     1      36.234   1.851  14.720  0.00  0.00    +0.000 A 
ATOM     10  C   UNL     1      36.475   0.525  14.618  0.00  0.00    +0.000 A 
ATOM     11  C   UNL     1      35.980  -0.404  15.555  0.00  0.00    +0.000 A 
BRANCH   6  13
ATOM     12  C   UNL     1      35.425  -0.633  18.913  0.00  0.00    +0.000 C 
ATOM     13  C   UNL     1      34.654  -0.765  17.638  0.00  0.00    +0.000 C 
ATOM     14  C   UNL     1      34.796  -2.158  17.121  0.00  0.00    +0.000 C 
ENDBRANCH   6  13
ENDBRANCH   1   9
BRANCH   4  15
ATOM     15  C   UNL     1      38.879   4.520  16.198  0.00  0.00    +0.000 A 
ATOM     16  C   UNL     1      38.450   4.477  17.516  0.00  0.00    +0.000 A 
ATOM     17  C   UNL     1      39.014   5.244  18.515  0.00  0.00    +0.000 A 
ATOM     18  C   UNL     1      40.053   6.104  18.229  0.00  0.00    +0.000 A 
ATOM     19  C   UNL     1      40.490   6.162  16.930  0.00  0.00    +0.000 A 
ATOM     20  C   UNL     1      39.907   5.383  15.950  0.00  0.00    +0.000 A 
ENDBRANCH   4  15
BRANCH   5  21
ATOM     21  C   UNL     1      36.492   5.270  14.309  0.00  0.00    +0.000 C 
ATOM     22  O   UNL     1      35.264   5.401  14.497  0.00  0.00    +0.000 OA
ATOM     23  N   UNL     1      37.141   6.465  13.914  0.00  0.00    +0.000 NA
BRANCH  23  24
ATOM     24  C   UNL     1      36.350   7.665  13.773  0.00  0.00    +0.000 C 
BRANCH  24  25
ATOM     25  C   UNL     1      37.174   8.793  14.345  0.00  0.00    +0.000 C 
BRANCH  25  26
ATOM     26  C   UNL     1      36.874   8.966  15.767  0.00  0.00    +0.000 A 
ATOM     27  C   UNL     1      37.669   8.451  16.752  0.00  0.00    +0.000 A 
ATOM     28  C   UNL     1      37.398   8.607  18.091  0.00  0.00    +0.000 A 
ATOM     29  C   UNL     1      36.274   9.313  18.449  0.00  0.00    +0.000 A 
ATOM     30  C   UNL     1      35.448   9.848  17.472  0.00  0.00    +0.000 A 
ATOM     31  C   UNL     1      35.746   9.675  16.127  0.00  0.00    +0.000 A 
ATOM     32  F   UNL     1      34.919  10.209  15.198  0.00  0.00    +0.000 F 
ENDBRANCH  25  26
ENDBRANCH  24  25
ENDBRANCH  23  24
ENDBRANCH   5  21
TORSDOF 7
ENDMDL
MODEL 6
REMARK VINA RESULT:      -7.5      3.479      8.396
REMARK  Name = 
REMARK  7 active torsions:
REMARK  status: ('A' for Active; 'I' for Inactive)
REMARK    1  A    between atoms: C_2  and  C_4
REMARK    2  A    between atoms: C_7  and  C_8
REMARK    3  A    between atoms: C_11  and  C_12
REMARK    4  A    between atoms: C_18  and  C_19
REMARK    5  A    between atoms: N_21  and  C_22
REMARK    6  A    between atoms: C_22  and  C_23
REMARK    7  A    between atoms: C_23  and  C_24
REMARK                            x       y       z     vdW  Elec       q    Type
REMARK                         _______ _______ _______ _____ _____    ______ ____
ROOT
ATOM      1  C   UNL     1      37.237   2.415  13.500  0.00  0.00    +0.000 C 
ATOM      2  O   UNL     1      38.612   1.837  13.805  0.00  0.00    +0.000 OA
ATOM      3  N   UNL     1      38.737   2.131  15.109  0.00  0.00    +0.000 NA
ATOM      4  C   UNL     1      38.413   3.545  15.156  0.00  0.00    +0.000 C 
ATOM      5  C   UNL     1      37.539   3.818  14.248  0.00  0.00    +0.000 C 
ENDROOT
BRANCH   1   9
ATOM      6  C   UNL     1      35.213   0.278  16.613  0.00  0.00    +0.000 A 
ATOM      7  C   UNL     1      34.979   1.620  16.482  0.00  0.00    +0.000 A 
ATOM      8  C   UNL     1      35.619   2.367  15.483  0.00  0.00    +0.000 A 
ATOM      9  C   UNL     1      36.460   1.703  14.674  0.00  0.00    +0.000 A 
ATOM     10  C   UNL     1      36.697   0.379  14.796  0.00  0.00    +0.000 A 
ATOM     11  C   UNL     1      36.076  -0.408  15.787  0.00  0.00    +0.000 A 
BRANCH   6  13
ATOM     12  C   UNL     1      35.373  -0.616  18.911  0.00  0.00    +0.000 C 
ATOM     13  C   UNL     1      34.490  -0.472  17.713  0.00  0.00    +0.000 C 
ATOM     14  C   UNL     1      34.183  -1.826  17.165  0.00  0.00    +0.000 C 
ENDBRANCH   6  13
ENDBRANCH   1   9
BRANCH   4  15
ATOM     15  C   UNL     1      38.982   4.526  16.081  0.00  0.00    +0.000 A 
ATOM     16  C   UNL     1      38.462   4.604  17.363  0.00  0.00    +0.000 A 
ATOM     17  C   UNL     1      38.930   5.489  18.313  0.00  0.00    +0.000 A 
ATOM     18  C   UNL     1      39.962   6.352  18.009  0.00  0.00    +0.000 A 
ATOM     19  C   UNL     1      40.489   6.290  16.744  0.00  0.00    +0.000 A 
ATOM     20  C   UNL     1      40.001   5.394  15.815  0.00  0.00    +0.000 A 
ENDBRANCH   4  15
BRANCH   5  21
ATOM     21  C   UNL     1      36.852   5.032  13.838  0.00  0.00    +0.000 C 
ATOM     22  O   UNL     1      37.376   6.162  13.759  0.00  0.00    +0.000 OA
ATOM     23  N   UNL     1      35.481   5.011  13.484  0.00  0.00    +0.000 NA
BRANCH  23  24
ATOM     24  C   UNL     1      34.852   6.249  13.085  0.00  0.00    +0.000 C 
BRANCH  24  25
ATOM     25  C   UNL     1      34.012   6.701  14.254  0.00  0.00    +0.000 C 
BRANCH  25  26
ATOM     26  C   UNL     1      34.129   8.149  14.429  0.00  0.00    +0.000 A 
ATOM     27  C   UNL     1      34.824   8.939  13.556  0.00  0.00    +0.000 A 
ATOM     28  C   UNL     1      34.941  10.300  13.710  0.00  0.00    +0.000 A 
ATOM     29  C   UNL     1      34.331  10.888  14.793  0.00  0.00    +0.000 A 
ATOM     30  C   UNL     1      33.619  10.112  15.696  0.00  0.00    +0.000 A 
ATOM     31  C   UNL     1      33.516   8.739  15.516  0.00  0.00    +0.000 A 
ATOM     32  F   UNL     1      32.815   8.011  16.415  0.00  0.00    +0.000 F 
ENDBRANCH  25  26
ENDBRANCH  24  25
ENDBRANCH  23  24
ENDBRANCH   5  21
TORSDOF 7
ENDMDL
MODEL 7
REMARK VINA RESULT:      -7.4      3.269      8.454
REMARK  Name = 
REMARK  7 active torsions:
REMARK  status: ('A' for Active; 'I' for Inactive)
REMARK    1  A    between atoms: C_2  and  C_4
REMARK    2  A    between atoms: C_7  and  C_8
REMARK    3  A    between atoms: C_11  and  C_12
REMARK    4  A    between atoms: C_18  and  C_19
REMARK    5  A    between atoms: N_21  and  C_22
REMARK    6  A    between atoms: C_22  and  C_23
REMARK    7  A    between atoms: C_23  and  C_24
REMARK                            x       y       z     vdW  Elec       q    Type
REMARK                         _______ _______ _______ _____ _____    ______ ____
ROOT
ATOM      1  C   UNL     1      37.400   3.767  13.875  0.00  0.00    +0.000 C 
ATOM      2  O   UNL     1      38.785   3.139  13.949  0.00  0.00    +0.000 OA
ATOM      3  N   UNL     1      38.964   3.054  15.277  0.00  0.00    +0.000 NA
ATOM      4  C   UNL     1      38.646   4.394  15.734  0.00  0.00    +0.000 C 
ATOM      5  C   UNL     1      37.736   4.905  14.976  0.00  0.00    +0.000 C 
ENDROOT
BRANCH   1   9
ATOM      6  C   UNL     1      35.513   0.820  16.346  0.00  0.00    +0.000 A 
ATOM      7  C   UNL     1      35.206   2.138  16.551  0.00  0.00    +0.000 A 
ATOM      8  C   UNL     1      35.799   3.143  15.773  0.00  0.00    +0.000 A 
ATOM      9  C   UNL     1      36.670   2.747  14.830  0.00  0.00    +0.000 A 
ATOM     10  C   UNL     1      36.978   1.448  14.621  0.00  0.00    +0.000 A 
ATOM     11  C   UNL     1      36.405   0.408  15.381  0.00  0.00    +0.000 A 
BRANCH   6  13
ATOM     12  C   UNL     1      35.474  -0.248  18.574  0.00  0.00    +0.000 C 
ATOM     13  C   UNL     1      34.838  -0.216  17.220  0.00  0.00    +0.000 C 
ATOM     14  C   UNL     1      35.050  -1.533  16.549  0.00  0.00    +0.000 C 
ENDBRANCH   6  13
ENDBRANCH   1   9
BRANCH   4  15
ATOM     15  C   UNL     1      39.254   5.079  16.875  0.00  0.00    +0.000 A 
ATOM     16  C   UNL     1      40.448   5.755  16.681  0.00  0.00    +0.000 A 
ATOM     17  C   UNL     1      41.100   6.436  17.689  0.00  0.00    +0.000 A 
ATOM     18  C   UNL     1      40.570   6.467  18.961  0.00  0.00    +0.000 A 
ATOM     19  C   UNL     1      39.389   5.803  19.174  0.00  0.00    +0.000 A 
ATOM     20  C   UNL     1      38.759   5.130  18.146  0.00  0.00    +0.000 A 
ENDBRANCH   4  15
BRANCH   5  21
ATOM     21  C   UNL     1      37.035   6.179  14.953  0.00  0.00    +0.000 C 
ATOM     22  O   UNL     1      35.901   6.366  14.465  0.00  0.00    +0.000 OA
ATOM     23  N   UNL     1      37.620   7.343  15.506  0.00  0.00    +0.000 NA
BRANCH  23  24
ATOM     24  C   UNL     1      36.877   8.581  15.452  0.00  0.00    +0.000 C 
BRANCH  24  25
ATOM     25  C   UNL     1      36.292   8.791  16.827  0.00  0.00    +0.000 C 
BRANCH  25  26
ATOM     26  C   UNL     1      37.352   9.125  17.780  0.00  0.00    +0.000 A 
ATOM     27  C   UNL     1      38.551   9.651  17.388  0.00  0.00    +0.000 A 
ATOM     28  C   UNL     1      39.554   9.968  18.273  0.00  0.00    +0.000 A 
ATOM     29  C   UNL     1      39.336   9.743  19.612  0.00  0.00    +0.000 A 
ATOM     30  C   UNL     1      38.129   9.211  20.040  0.00  0.00    +0.000 A 
ATOM     31  C   UNL     1      37.133   8.900  19.124  0.00  0.00    +0.000 A 
ATOM     32  F   UNL     1      35.967   8.381  19.574  0.00  0.00    +0.000 F 
ENDBRANCH  25  26
ENDBRANCH  24  25
ENDBRANCH  23  24
ENDBRANCH   5  21
TORSDOF 7
ENDMDL
MODEL 8
REMARK VINA RESULT:      -7.4      3.041      8.355
REMARK  Name = 
REMARK  7 active torsions:
REMARK  status: ('A' for Active; 'I' for Inactive)
REMARK    1  A    between atoms: C_2  and  C_4
REMARK    2  A    between atoms: C_7  and  C_8
REMARK    3  A    between atoms: C_11  and  C_12
REMARK    4  A    between atoms: C_18  and  C_19
REMARK    5  A    between atoms: N_21  and  C_22
REMARK    6  A    between atoms: C_22  and  C_23
REMARK    7  A    between atoms: C_23  and  C_24
REMARK                            x       y       z     vdW  Elec       q    Type
REMARK                         _______ _______ _______ _____ _____    ______ ____
ROOT
ATOM      1  C   UNL     1      36.014   2.007  16.971  0.00  0.00    +0.000 C 
ATOM      2  O   UNL     1      34.585   2.240  16.502  0.00  0.00    +0.000 OA
ATOM      3  N   UNL     1      34.738   2.214  15.168  0.00  0.00    +0.000 NA
ATOM      4  C   UNL     1      35.834   3.139  14.949  0.00  0.00    +0.000 C 
ATOM      5  C   UNL     1      36.643   3.096  15.952  0.00  0.00    +0.000 C 
ENDROOT
BRANCH   1   9
ATOM      6  C   UNL     1      36.619  -1.617  14.767  0.00  0.00    +0.000 A 
ATOM      7  C   UNL     1      37.411  -0.538  14.481  0.00  0.00    +0.000 A 
ATOM      8  C   UNL     1      37.252   0.673  15.170  0.00  0.00    +0.000 A 
ATOM      9  C   UNL     1      36.294   0.715  16.111  0.00  0.00    +0.000 A 
ATOM     10  C   UNL     1      35.508  -0.345  16.399  0.00  0.00    +0.000 A 
ATOM     11  C   UNL     1      35.635  -1.579  15.730  0.00  0.00    +0.000 A 
BRANCH   6  13
ATOM     12  C   UNL     1      36.363  -4.075  14.774  0.00  0.00    +0.000 C 
ATOM     13  C   UNL     1      36.842  -2.896  13.987  0.00  0.00    +0.000 C 
ATOM     14  C   UNL     1      38.316  -3.010  13.783  0.00  0.00    +0.000 C 
ENDBRANCH   6  13
ENDBRANCH   1   9
BRANCH   4  15
ATOM     15  C   UNL     1      36.011   3.998  13.778  0.00  0.00    +0.000 A 
ATOM     16  C   UNL     1      35.281   5.174  13.704  0.00  0.00    +0.000 A 
ATOM     17  C   UNL     1      35.378   6.055  12.646  0.00  0.00    +0.000 A 
ATOM     18  C   UNL     1      36.230   5.787  11.595  0.00  0.00    +0.000 A 
ATOM     19  C   UNL     1      36.960   4.627  11.649  0.00  0.00    +0.000 A 
ATOM     20  C   UNL     1      36.842   3.764  12.721  0.00  0.00    +0.000 A 
ENDBRANCH   4  15
BRANCH   5  21
ATOM     21  C   UNL     1      37.887   3.775  16.280  0.00  0.00    +0.000 C 
ATOM     22  O   UNL     1      39.009   3.483  15.816  0.00  0.00    +0.000 OA
ATOM     23  N   UNL     1      37.908   4.862  17.187  0.00  0.00    +0.000 NA
BRANCH  23  24
ATOM     24  C   UNL     1      39.173   5.497  17.474  0.00  0.00    +0.000 C 
BRANCH  24  25
ATOM     25  C   UNL     1      39.379   5.391  18.965  0.00  0.00    +0.000 C 
BRANCH  25  26
ATOM     26  C   UNL     1      40.148   6.537  19.450  0.00  0.00    +0.000 A 
ATOM     27  C   UNL     1      41.502   6.487  19.633  0.00  0.00    +0.000 A 
ATOM     28  C   UNL     1      42.236   7.557  20.088  0.00  0.00    +0.000 A 
ATOM     29  C   UNL     1      41.573   8.728  20.372  0.00  0.00    +0.000 A 
ATOM     30  C   UNL     1      40.199   8.809  20.195  0.00  0.00    +0.000 A 
ATOM     31  C   UNL     1      39.483   7.713  19.734  0.00  0.00    +0.000 A 
ATOM     32  F   UNL     1      38.144   7.824  19.574  0.00  0.00    +0.000 F 
ENDBRANCH  25  26
ENDBRANCH  24  25
ENDBRANCH  23  24
ENDBRANCH   5  21
TORSDOF 7
ENDMDL
MODEL 9
REMARK VINA RESULT:      -7.3      3.115      7.589
REMARK  Name = 
REMARK  7 active torsions:
REMARK  status: ('A' for Active; 'I' for Inactive)
REMARK    1  A    between atoms: C_2  and  C_4
REMARK    2  A    between atoms: C_7  and  C_8
REMARK    3  A    between atoms: C_11  and  C_12
REMARK    4  A    between atoms: C_18  and  C_19
REMARK    5  A    between atoms: N_21  and  C_22
REMARK    6  A    between atoms: C_22  and  C_23
REMARK    7  A    between atoms: C_23  and  C_24
REMARK                            x       y       z     vdW  Elec       q    Type
REMARK                         _______ _______ _______ _____ _____    ______ ____
ROOT
ATOM      1  C   UNL     1      41.402  -0.350  13.412  0.00  0.00    +0.000 C 
ATOM      2  O   UNL     1      42.226  -1.193  14.375  0.00  0.00    +0.000 OA
ATOM      3  N   UNL     1      41.520  -2.335  14.395  0.00  0.00    +0.000 NA
ATOM      4  C   UNL     1      40.169  -1.876  14.657  0.00  0.00    +0.000 C 
ATOM      5  C   UNL     1      39.995  -0.716  14.123  0.00  0.00    +0.000 C 
ENDROOT
BRANCH   1   9
ATOM      6  C   UNL     1      41.454  -3.209  10.221  0.00  0.00    +0.000 A 
ATOM      7  C   UNL     1      40.249  -2.693  10.618  0.00  0.00    +0.000 A 
ATOM      8  C   UNL     1      40.176  -1.757  11.660  0.00  0.00    +0.000 A 
ATOM      9  C   UNL     1      41.335  -1.400  12.238  0.00  0.00    +0.000 A 
ATOM     10  C   UNL     1      42.527  -1.905  11.853  0.00  0.00    +0.000 A 
ATOM     11  C   UNL     1      42.645  -2.847  10.812  0.00  0.00    +0.000 A 
BRANCH   6  13
ATOM     12  C   UNL     1      42.059  -5.508   9.550  0.00  0.00    +0.000 C 
ATOM     13  C   UNL     1      41.464  -4.215   9.090  0.00  0.00    +0.000 C 
ATOM     14  C   UNL     1      42.327  -3.633   8.020  0.00  0.00    +0.000 C 
ENDBRANCH   6  13
ENDBRANCH   1   9
BRANCH   4  15
ATOM     15  C   UNL     1      39.147  -2.604  15.412  0.00  0.00    +0.000 A 
ATOM     16  C   UNL     1      38.146  -3.255  14.710  0.00  0.00    +0.000 A 
ATOM     17  C   UNL     1      37.140  -3.972  15.326  0.00  0.00    +0.000 A 
ATOM     18  C   UNL     1      37.096  -4.067  16.700  0.00  0.00    +0.000 A 
ATOM     19  C   UNL     1      38.078  -3.428  17.413  0.00  0.00    +0.000 A 
ATOM     20  C   UNL     1      39.072  -2.717  16.770  0.00  0.00    +0.000 A 
ENDBRANCH   4  15
BRANCH   5  21
ATOM     21  C   UNL     1      38.874   0.208  14.051  0.00  0.00    +0.000 C 
ATOM     22  O   UNL     1      38.336   0.604  12.996  0.00  0.00    +0.000 OA
ATOM     23  N   UNL     1      38.293   0.743  15.226  0.00  0.00    +0.000 NA
BRANCH  23  24
ATOM     24  C   UNL     1      37.182   1.656  15.092  0.00  0.00    +0.000 C 
BRANCH  24  25
ATOM     25  C   UNL     1      35.927   0.834  15.248  0.00  0.00    +0.000 C 
BRANCH  25  26
ATOM     26  C   UNL     1      35.803   0.358  16.626  0.00  0.00    +0.000 A 
ATOM     27  C   UNL     1      36.174   1.119  17.700  0.00  0.00    +0.000 A 
ATOM     28  C   UNL     1      36.063   0.684  18.999  0.00  0.00    +0.000 A 
ATOM     29  C   UNL     1      35.556  -0.574  19.224  0.00  0.00    +0.000 A 
ATOM     30  C   UNL     1      35.172  -1.370  18.154  0.00  0.00    +0.000 A 
ATOM     31  C   UNL     1      35.295  -0.905  16.852  0.00  0.00    +0.000 A 
ATOM     32  F   UNL     1      34.911  -1.706  15.831  0.00  0.00    +0.000 F 
ENDBRANCH  25  26
ENDBRANCH  24  25
ENDBRANCH  23  24
ENDBRANCH   5  21
TORSDOF 7
ENDMDL
MODEL 10
REMARK VINA RESULT:      -7.0      4.031      8.149
REMARK  Name = 
REMARK  7 active torsions:
REMARK  status: ('A' for Active; 'I' for Inactive)
REMARK    1  A    between atoms: C_2  and  C_4
REMARK    2  A    between atoms: C_7  and  C_8
REMARK    3  A    between atoms: C_11  and  C_12
REMARK    4  A    between atoms: C_18  and  C_19
REMARK    5  A    between atoms: N_21  and  C_22
REMARK    6  A    between atoms: C_22  and  C_23
REMARK    7  A    between atoms: C_23  and  C_24
REMARK                            x       y       z     vdW  Elec       q    Type
REMARK                         _______ _______ _______ _____ _____    ______ ____
ROOT
ATOM      1  C   UNL     1      37.364   1.991  13.429  0.00  0.00    +0.000 C 
ATOM      2  O   UNL     1      38.815   1.615  13.694  0.00  0.00    +0.000 OA
ATOM      3  N   UNL     1      38.922   1.888  15.004  0.00  0.00    +0.000 NA
ATOM      4  C   UNL     1      38.393   3.236  15.099  0.00  0.00    +0.000 C 
ATOM      5  C   UNL     1      37.469   3.402  14.215  0.00  0.00    +0.000 C 
ENDROOT
BRANCH   1   9
ATOM      6  C   UNL     1      35.752  -0.507  16.515  0.00  0.00    +0.000 A 
ATOM      7  C   UNL     1      35.272   0.768  16.388  0.00  0.00    +0.000 A 
ATOM      8  C   UNL     1      35.768   1.628  15.398  0.00  0.00    +0.000 A 
ATOM      9  C   UNL     1      36.725   1.139  14.592  0.00  0.00    +0.000 A 
ATOM     10  C   UNL     1      37.205  -0.118  14.710  0.00  0.00    +0.000 A 
ATOM     11  C   UNL     1      36.735  -1.014  15.692  0.00  0.00    +0.000 A 
BRANCH   6  13
ATOM     12  C   UNL     1      33.704  -1.567  17.400  0.00  0.00    +0.000 C 
ATOM     13  C   UNL     1      35.175  -1.386  17.604  0.00  0.00    +0.000 C 
ATOM     14  C   UNL     1      35.405  -0.664  18.891  0.00  0.00    +0.000 C 
ENDBRANCH   6  13
ENDBRANCH   1   9
BRANCH   4  15
ATOM     15  C   UNL     1      38.829   4.264  16.045  0.00  0.00    +0.000 A 
ATOM     16  C   UNL     1      39.798   5.168  15.639  0.00  0.00    +0.000 A 
ATOM     17  C   UNL     1      40.274   6.177  16.452  0.00  0.00    +0.000 A 
ATOM     18  C   UNL     1      39.786   6.325  17.733  0.00  0.00    +0.000 A 
ATOM     19  C   UNL     1      38.827   5.439  18.154  0.00  0.00    +0.000 A 
ATOM     20  C   UNL     1      38.370   4.439  17.319  0.00  0.00    +0.000 A 
ENDBRANCH   4  15
BRANCH   5  21
ATOM     21  C   UNL     1      36.601   4.511  13.853  0.00  0.00    +0.000 C 
ATOM     22  O   UNL     1      35.970   5.223  14.663  0.00  0.00    +0.000 OA
ATOM     23  N   UNL     1      36.405   4.873  12.499  0.00  0.00    +0.000 NA
BRANCH  23  24
ATOM     24  C   UNL     1      35.531   5.983  12.201  0.00  0.00    +0.000 C 
BRANCH  24  25
ATOM     25  C   UNL     1      36.178   6.751  11.074  0.00  0.00    +0.000 C 
BRANCH  25  26
ATOM     26  C   UNL     1      35.545   6.405   9.800  0.00  0.00    +0.000 A 
ATOM     27  C   UNL     1      35.973   5.360   9.030  0.00  0.00    +0.000 A 
ATOM     28  C   UNL     1      35.388   5.025   7.832  0.00  0.00    +0.000 A 
ATOM     29  C   UNL     1      34.325   5.779   7.393  0.00  0.00    +0.000 A 
ATOM     30  C   UNL     1      33.868   6.845   8.154  0.00  0.00    +0.000 A 
ATOM     31  C   UNL     1      34.478   7.161   9.360  0.00  0.00    +0.000 A 
ATOM     32  F   UNL     1      34.009   8.208  10.078  0.00  0.00    +0.000 F 
ENDBRANCH  25  26
ENDBRANCH  24  25
ENDBRANCH  23  24
ENDBRANCH   5  21
TORSDOF 7
ENDMDL
