MODEL 1
REMARK VINA RESULT:      -9.0      0.000      0.000
REMARK  Name = 
REMARK  6 active torsions:
REMARK  status: ('A' for Active; 'I' for Inactive)
REMARK    1  A    between atoms: C_2  and  C_3
REMARK    2  A    between atoms: C_4  and  C_5
REMARK    3  A    between atoms: N_21  and  C_22
REMARK    4  A    between atoms: C_22  and  C_23
REMARK    5  A    between atoms: C_23  and  C_24
REMARK    6  A    between atoms: C_24  and  C_25
REMARK                            x       y       z     vdW  Elec       q    Type
REMARK                         _______ _______ _______ _____ _____    ______ ____
ROOT
ATOM      1  C   UNL     1      40.189   5.897  19.169  0.00  0.00    +0.000 C 
ATOM      2  C   UNL     1      40.334   7.088  19.678  0.00  0.00    +0.000 C 
ATOM      3  C   UNL     1      41.629   7.284  20.370  0.00  0.00    +0.000 A 
ATOM      4  C   UNL     1      42.252   6.106  20.706  0.00  0.00    +0.000 A 
ATOM      5  C   UNL     1      43.467   6.168  21.359  0.00  0.00    +0.000 A 
ATOM      6  C   UNL     1      44.030   7.389  21.661  0.00  0.00    +0.000 A 
ATOM      7  C   UNL     1      43.392   8.555  21.317  0.00  0.00    +0.000 A 
ATOM      8  C   UNL     1      42.183   8.532  20.667  0.00  0.00    +0.000 A 
ATOM      9  C   UNL     1      41.641   9.891  20.372  0.00  0.00    +0.000 C 
ATOM     10  C   UNL     1      40.232  10.090  20.837  0.00  0.00    +0.000 C 
ATOM     11  C   UNL     1      39.232   9.353  20.030  0.00  0.00    +0.000 A 
ATOM     12  C   UNL     1      38.135  10.149  19.792  0.00  0.00    +0.000 A 
ATOM     13  C   UNL     1      37.090   9.665  19.064  0.00  0.00    +0.000 A 
ATOM     14  C   UNL     1      37.127   8.396  18.570  0.00  0.00    +0.000 A 
ATOM     15  C   UNL     1      38.232   7.572  18.801  0.00  0.00    +0.000 A 
ATOM     16  C   UNL     1      39.274   8.071  19.534  0.00  0.00    +0.000 A 
ENDROOT
BRANCH   1  18
ATOM     17  C   UNL     1      38.941   4.675  17.532  0.00  0.00    +0.000 C 
ATOM     18  C   UNL     1      38.936   5.610  18.463  0.00  0.00    +0.000 C 
BRANCH  17  20
ATOM     19  O   UNL     1      37.387   5.048  15.823  0.00  0.00    +0.000 OA
ATOM     20  C   UNL     1      37.732   4.323  16.775  0.00  0.00    +0.000 C 
ATOM     21  N   UNL     1      37.012   3.166  17.168  0.00  0.00    +0.000 NA
BRANCH  21  22
ATOM     22  C   UNL     1      35.811   2.787  16.443  0.00  0.00    +0.000 C 
BRANCH  22  23
ATOM     23  C   UNL     1      36.063   1.474  15.729  0.00  0.00    +0.000 C 
BRANCH  23  24
ATOM     24  C   UNL     1      35.335   0.388  16.489  0.00  0.00    +0.000 C 
BRANCH  24  25
ATOM     25  C   UNL     1      36.277  -0.423  17.320  0.00  0.00    +0.000 A 
ATOM     26  C   UNL     1      36.040  -0.646  18.655  0.00  0.00    +0.000 A 
ATOM     27  C   UNL     1      36.931  -1.398  19.387  0.00  0.00    +0.000 A 
ATOM     28  C   UNL     1      38.045  -1.916  18.777  0.00  0.00    +0.000 A 
ATOM     29  N   UNL     1      38.254  -1.684  17.474  0.00  0.00    +0.000 NA
ATOM     30  C   UNL     1      37.405  -0.956  16.737  0.00  0.00    +0.000 A 
ENDBRANCH  24  25
ENDBRANCH  23  24
ENDBRANCH  22  23
ENDBRANCH  21  22
ENDBRANCH  17  20
ENDBRANCH   1  18
TORSDOF 6
ENDMDL
MODEL 2
REMARK VINA RESULT:      -8.6      2.239      4.000
REMARK  Name = 
REMARK  6 active torsions:
REMARK  status: ('A' for Active; 'I' for Inactive)
REMARK    1  A    between atoms: C_2  and  C_3
REMARK    2  A    between atoms: C_4  and  C_5
REMARK    3  A    between atoms: N_21  and  C_22
REMARK    4  A    between atoms: C_22  and  C_23
REMARK    5  A    between atoms: C_23  and  C_24
REMARK    6  A    between atoms: C_24  and  C_25
REMARK                            x       y       z     vdW  Elec       q    Type
REMARK                         _______ _______ _______ _____ _____    ______ ____
ROOT
ATOM      1  C   UNL     1      38.470   4.786  17.583  0.00  0.00    +0.000 C 
ATOM      2  C   UNL     1      39.544   5.427  17.219  0.00  0.00    +0.000 C 
ATOM      3  C   UNL     1      40.118   6.278  18.287  0.00  0.00    +0.000 A 
ATOM      4  C   UNL     1      39.230   6.560  19.297  0.00  0.00    +0.000 A 
ATOM      5  C   UNL     1      39.657   7.350  20.346  0.00  0.00    +0.000 A 
ATOM      6  C   UNL     1      40.945   7.837  20.368  0.00  0.00    +0.000 A 
ATOM      7  C   UNL     1      41.819   7.544  19.349  0.00  0.00    +0.000 A 
ATOM      8  C   UNL     1      41.429   6.762  18.289  0.00  0.00    +0.000 A 
ATOM      9  C   UNL     1      42.508   6.548  17.280  0.00  0.00    +0.000 C 
ATOM     10  C   UNL     1      42.092   6.868  15.879  0.00  0.00    +0.000 C 
ATOM     11  C   UNL     1      41.151   5.882  15.301  0.00  0.00    +0.000 A 
ATOM     12  C   UNL     1      41.497   5.603  13.998  0.00  0.00    +0.000 A 
ATOM     13  C   UNL     1      40.758   4.716  13.273  0.00  0.00    +0.000 A 
ATOM     14  C   UNL     1      39.679   4.102  13.835  0.00  0.00    +0.000 A 
ATOM     15  C   UNL     1      39.311   4.372  15.156  0.00  0.00    +0.000 A 
ATOM     16  C   UNL     1      40.062   5.265  15.871  0.00  0.00    +0.000 A 
ENDROOT
BRANCH   1  18
ATOM     17  C   UNL     1      36.818   3.163  16.976  0.00  0.00    +0.000 C 
ATOM     18  C   UNL     1      37.830   3.917  16.590  0.00  0.00    +0.000 C 
BRANCH  17  20
ATOM     19  O   UNL     1      34.882   2.148  16.143  0.00  0.00    +0.000 OA
ATOM     20  C   UNL     1      36.119   2.263  16.049  0.00  0.00    +0.000 C 
ATOM     21  N   UNL     1      36.890   1.566  15.085  0.00  0.00    +0.000 NA
BRANCH  21  22
ATOM     22  C   UNL     1      36.232   0.667  14.152  0.00  0.00    +0.000 C 
BRANCH  22  23
ATOM     23  C   UNL     1      36.736  -0.742  14.391  0.00  0.00    +0.000 C 
BRANCH  23  24
ATOM     24  C   UNL     1      35.809  -1.401  15.388  0.00  0.00    +0.000 C 
BRANCH  24  25
ATOM     25  C   UNL     1      36.363  -1.337  16.775  0.00  0.00    +0.000 A 
ATOM     26  C   UNL     1      35.579  -0.962  17.839  0.00  0.00    +0.000 A 
ATOM     27  C   UNL     1      36.126  -0.914  19.102  0.00  0.00    +0.000 A 
ATOM     28  C   UNL     1      37.446  -1.241  19.285  0.00  0.00    +0.000 A 
ATOM     29  N   UNL     1      38.189  -1.604  18.230  0.00  0.00    +0.000 NA
ATOM     30  C   UNL     1      37.685  -1.658  16.991  0.00  0.00    +0.000 A 
ENDBRANCH  24  25
ENDBRANCH  23  24
ENDBRANCH  22  23
ENDBRANCH  21  22
ENDBRANCH  17  20
ENDBRANCH   1  18
TORSDOF 6
ENDMDL
MODEL 3
REMARK VINA RESULT:      -8.4      2.978     10.592
REMARK  Name = 
REMARK  6 active torsions:
REMARK  status: ('A' for Active; 'I' for Inactive)
REMARK    1  A    between atoms: C_2  and  C_3
REMARK    2  A    between atoms: C_4  and  C_5
REMARK    3  A    between atoms: N_21  and  C_22
REMARK    4  A    between atoms: C_22  and  C_23
REMARK    5  A    between atoms: C_23  and  C_24
REMARK    6  A    between atoms: C_24  and  C_25
REMARK                            x       y       z     vdW  Elec       q    Type
REMARK                         _______ _______ _______ _____ _____    ______ ____
ROOT
ATOM      1  C   UNL     1      36.526   0.490  15.605  0.00  0.00    +0.000 C 
ATOM      2  C   UNL     1      37.141  -0.577  15.178  0.00  0.00    +0.000 C 
ATOM      3  C   UNL     1      36.318  -1.806  15.246  0.00  0.00    +0.000 A 
ATOM      4  C   UNL     1      35.243  -1.695  16.097  0.00  0.00    +0.000 A 
ATOM      5  C   UNL     1      34.406  -2.784  16.241  0.00  0.00    +0.000 A 
ATOM      6  C   UNL     1      34.652  -3.946  15.544  0.00  0.00    +0.000 A 
ATOM      7  C   UNL     1      35.731  -4.037  14.699  0.00  0.00    +0.000 A 
ATOM      8  C   UNL     1      36.586  -2.975  14.530  0.00  0.00    +0.000 A 
ATOM      9  C   UNL     1      37.697  -3.254  13.574  0.00  0.00    +0.000 C 
ATOM     10  C   UNL     1      39.054  -2.942  14.124  0.00  0.00    +0.000 C 
ATOM     11  C   UNL     1      39.325  -1.492  14.247  0.00  0.00    +0.000 A 
ATOM     12  C   UNL     1      40.605  -1.210  13.827  0.00  0.00    +0.000 A 
ATOM     13  C   UNL     1      41.063   0.073  13.857  0.00  0.00    +0.000 A 
ATOM     14  C   UNL     1      40.259   1.079  14.302  0.00  0.00    +0.000 A 
ATOM     15  C   UNL     1      38.956   0.814  14.733  0.00  0.00    +0.000 A 
ATOM     16  C   UNL     1      38.510  -0.479  14.697  0.00  0.00    +0.000 A 
ENDROOT
BRANCH   1  18
ATOM     17  C   UNL     1      36.846   2.744  16.342  0.00  0.00    +0.000 C 
ATOM     18  C   UNL     1      37.265   1.756  15.575  0.00  0.00    +0.000 C 
BRANCH  17  20
ATOM     19  O   UNL     1      37.165   4.932  15.576  0.00  0.00    +0.000 OA
ATOM     20  C   UNL     1      37.525   4.047  16.376  0.00  0.00    +0.000 C 
ATOM     21  N   UNL     1      38.563   4.235  17.323  0.00  0.00    +0.000 NA
BRANCH  21  22
ATOM     22  C   UNL     1      39.256   5.510  17.384  0.00  0.00    +0.000 C 
BRANCH  22  23
ATOM     23  C   UNL     1      38.569   6.394  18.405  0.00  0.00    +0.000 C 
BRANCH  23  24
ATOM     24  C   UNL     1      39.473   6.492  19.614  0.00  0.00    +0.000 C 
BRANCH  24  25
ATOM     25  C   UNL     1      39.583   7.901  20.101  0.00  0.00    +0.000 A 
ATOM     26  C   UNL     1      38.504   8.553  20.647  0.00  0.00    +0.000 A 
ATOM     27  C   UNL     1      38.645   9.852  21.084  0.00  0.00    +0.000 A 
ATOM     28  C   UNL     1      39.860  10.480  20.969  0.00  0.00    +0.000 A 
ATOM     29  N   UNL     1      40.896   9.822  20.433  0.00  0.00    +0.000 NA
ATOM     30  C   UNL     1      40.789   8.559  19.999  0.00  0.00    +0.000 A 
ENDBRANCH  24  25
ENDBRANCH  23  24
ENDBRANCH  22  23
ENDBRANCH  21  22
ENDBRANCH  17  20
ENDBRANCH   1  18
TORSDOF 6
ENDMDL
MODEL 4
REMARK VINA RESULT:      -8.4      3.266      9.188
REMARK  Name = 
REMARK  6 active torsions:
REMARK  status: ('A' for Active; 'I' for Inactive)
REMARK    1  A    between atoms: C_2  and  C_3
REMARK    2  A    between atoms: C_4  and  C_5
REMARK    3  A    between atoms: N_21  and  C_22
REMARK    4  A    between atoms: C_22  and  C_23
REMARK    5  A    between atoms: C_23  and  C_24
REMARK    6  A    between atoms: C_24  and  C_25
REMARK                            x       y       z     vdW  Elec       q    Type
REMARK                         _______ _______ _______ _____ _____    ______ ____
ROOT
ATOM      1  C   UNL     1      36.505  -0.208  17.282  0.00  0.00    +0.000 C 
ATOM      2  C   UNL     1      37.481  -0.999  16.937  0.00  0.00    +0.000 C 
ATOM      3  C   UNL     1      37.831  -1.998  17.974  0.00  0.00    +0.000 A 
ATOM      4  C   UNL     1      37.372  -1.667  19.226  0.00  0.00    +0.000 A 
ATOM      5  C   UNL     1      37.643  -2.526  20.273  0.00  0.00    +0.000 A 
ATOM      6  C   UNL     1      38.357  -3.683  20.053  0.00  0.00    +0.000 A 
ATOM      7  C   UNL     1      38.808  -3.996  18.794  0.00  0.00    +0.000 A 
ATOM      8  C   UNL     1      38.557  -3.166  17.729  0.00  0.00    +0.000 A 
ATOM      9  C   UNL     1      39.119  -3.667  16.440  0.00  0.00    +0.000 C 
ATOM     10  C   UNL     1      39.956  -2.659  15.718  0.00  0.00    +0.000 C 
ATOM     11  C   UNL     1      39.170  -1.557  15.118  0.00  0.00    +0.000 A 
ATOM     12  C   UNL     1      39.639  -1.271  13.856  0.00  0.00    +0.000 A 
ATOM     13  C   UNL     1      39.055  -0.283  13.122  0.00  0.00    +0.000 A 
ATOM     14  C   UNL     1      38.007   0.423  13.632  0.00  0.00    +0.000 A 
ATOM     15  C   UNL     1      37.516   0.148  14.911  0.00  0.00    +0.000 A 
ATOM     16  C   UNL     1      38.112  -0.846  15.637  0.00  0.00    +0.000 A 
ENDROOT
BRANCH   1  18
ATOM     17  C   UNL     1      35.379   1.838  16.754  0.00  0.00    +0.000 C 
ATOM     18  C   UNL     1      36.089   0.815  16.317  0.00  0.00    +0.000 C 
BRANCH  17  20
ATOM     19  O   UNL     1      33.699   3.143  15.782  0.00  0.00    +0.000 OA
ATOM     20  C   UNL     1      34.920   2.908  15.859  0.00  0.00    +0.000 C 
ATOM     21  N   UNL     1      35.895   3.625  15.121  0.00  0.00    +0.000 NA
BRANCH  21  22
ATOM     22  C   UNL     1      35.476   4.690  14.224  0.00  0.00    +0.000 C 
BRANCH  22  23
ATOM     23  C   UNL     1      36.528   5.781  14.234  0.00  0.00    +0.000 C 
BRANCH  23  24
ATOM     24  C   UNL     1      37.829   5.164  14.697  0.00  0.00    +0.000 C 
BRANCH  24  25
ATOM     25  C   UNL     1      38.174   5.594  16.086  0.00  0.00    +0.000 A 
ATOM     26  C   UNL     1      38.647   4.698  17.014  0.00  0.00    +0.000 A 
ATOM     27  C   UNL     1      38.954   5.132  18.284  0.00  0.00    +0.000 A 
ATOM     28  C   UNL     1      38.784   6.454  18.610  0.00  0.00    +0.000 A 
ATOM     29  N   UNL     1      38.322   7.308  17.688  0.00  0.00    +0.000 NA
ATOM     30  C   UNL     1      38.014   6.914  16.445  0.00  0.00    +0.000 A 
ENDBRANCH  24  25
ENDBRANCH  23  24
ENDBRANCH  22  23
ENDBRANCH  21  22
ENDBRANCH  17  20
ENDBRANCH   1  18
TORSDOF 6
ENDMDL
MODEL 5
REMARK VINA RESULT:      -8.4      2.878      9.804
REMARK  Name = 
REMARK  6 active torsions:
REMARK  status: ('A' for Active; 'I' for Inactive)
REMARK    1  A    between atoms: C_2  and  C_3
REMARK    2  A    between atoms: C_4  and  C_5
REMARK    3  A    between atoms: N_21  and  C_22
REMARK    4  A    between atoms: C_22  and  C_23
REMARK    5  A    between atoms: C_23  and  C_24
REMARK    6  A    between atoms: C_24  and  C_25
REMARK                            x       y       z     vdW  Elec       q    Type
REMARK                         _______ _______ _______ _____ _____    ______ ____
ROOT
ATOM      1  C   UNL     1      36.003   0.466  15.272  0.00  0.00    +0.000 C 
ATOM      2  C   UNL     1      36.930  -0.426  15.067  0.00  0.00    +0.000 C 
ATOM      3  C   UNL     1      36.455  -1.821  15.216  0.00  0.00    +0.000 A 
ATOM      4  C   UNL     1      35.280  -1.925  15.921  0.00  0.00    +0.000 A 
ATOM      5  C   UNL     1      34.745  -3.181  16.124  0.00  0.00    +0.000 A 
ATOM      6  C   UNL     1      35.383  -4.296  15.626  0.00  0.00    +0.000 A 
ATOM      7  C   UNL     1      36.558  -4.171  14.924  0.00  0.00    +0.000 A 
ATOM      8  C   UNL     1      37.119  -2.938  14.703  0.00  0.00    +0.000 A 
ATOM      9  C   UNL     1      38.390  -2.996  13.922  0.00  0.00    +0.000 C 
ATOM     10  C   UNL     1      39.525  -2.264  14.568  0.00  0.00    +0.000 C 
ATOM     11  C   UNL     1      39.386  -0.791  14.516  0.00  0.00    +0.000 A 
ATOM     12  C   UNL     1      40.594  -0.211  14.203  0.00  0.00    +0.000 A 
ATOM     13  C   UNL     1      40.692   1.145  14.104  0.00  0.00    +0.000 A 
ATOM     14  C   UNL     1      39.597   1.928  14.314  0.00  0.00    +0.000 A 
ATOM     15  C   UNL     1      38.362   1.359  14.633  0.00  0.00    +0.000 A 
ATOM     16  C   UNL     1      38.279  -0.003  14.730  0.00  0.00    +0.000 A 
ENDROOT
BRANCH   1  18
ATOM     17  C   UNL     1      35.430   2.763  14.915  0.00  0.00    +0.000 C 
ATOM     18  C   UNL     1      36.380   1.878  15.147  0.00  0.00    +0.000 C 
BRANCH  17  20
ATOM     19  O   UNL     1      34.807   4.957  14.395  0.00  0.00    +0.000 OA
ATOM     20  C   UNL     1      35.718   4.197  14.775  0.00  0.00    +0.000 C 
ATOM     21  N   UNL     1      37.026   4.649  15.081  0.00  0.00    +0.000 NA
BRANCH  21  22
ATOM     22  C   UNL     1      37.347   6.060  14.954  0.00  0.00    +0.000 C 
BRANCH  22  23
ATOM     23  C   UNL     1      38.786   6.276  15.375  0.00  0.00    +0.000 C 
BRANCH  23  24
ATOM     24  C   UNL     1      39.148   5.186  16.359  0.00  0.00    +0.000 C 
BRANCH  24  25
ATOM     25  C   UNL     1      39.872   5.739  17.544  0.00  0.00    +0.000 A 
ATOM     26  C   UNL     1      39.243   5.894  18.755  0.00  0.00    +0.000 A 
ATOM     27  C   UNL     1      39.943   6.408  19.824  0.00  0.00    +0.000 A 
ATOM     28  C   UNL     1      41.261   6.757  19.669  0.00  0.00    +0.000 A 
ATOM     29  N   UNL     1      41.852   6.595  18.478  0.00  0.00    +0.000 NA
ATOM     30  C   UNL     1      41.195   6.100  17.420  0.00  0.00    +0.000 A 
ENDBRANCH  24  25
ENDBRANCH  23  24
ENDBRANCH  22  23
ENDBRANCH  21  22
ENDBRANCH  17  20
ENDBRANCH   1  18
TORSDOF 6
ENDMDL
MODEL 6
REMARK VINA RESULT:      -8.3      5.624      8.881
REMARK  Name = 
REMARK  6 active torsions:
REMARK  status: ('A' for Active; 'I' for Inactive)
REMARK    1  A    between atoms: C_2  and  C_3
REMARK    2  A    between atoms: C_4  and  C_5
REMARK    3  A    between atoms: N_21  and  C_22
REMARK    4  A    between atoms: C_22  and  C_23
REMARK    5  A    between atoms: C_23  and  C_24
REMARK    6  A    between atoms: C_24  and  C_25
REMARK                            x       y       z     vdW  Elec       q    Type
REMARK                         _______ _______ _______ _____ _____    ______ ____
ROOT
ATOM      1  C   UNL     1      38.384  -1.546  15.420  0.00  0.00    +0.000 C 
ATOM      2  C   UNL     1      37.629  -1.215  16.430  0.00  0.00    +0.000 C 
ATOM      3  C   UNL     1      37.882  -2.018  17.648  0.00  0.00    +0.000 A 
ATOM      4  C   UNL     1      38.543  -3.197  17.397  0.00  0.00    +0.000 A 
ATOM      5  C   UNL     1      38.830  -4.029  18.462  0.00  0.00    +0.000 A 
ATOM      6  C   UNL     1      38.457  -3.673  19.739  0.00  0.00    +0.000 A 
ATOM      7  C   UNL     1      37.796  -2.491  19.970  0.00  0.00    +0.000 A 
ATOM      8  C   UNL     1      37.494  -1.639  18.936  0.00  0.00    +0.000 A 
ATOM      9  C   UNL     1      36.779  -0.405  19.374  0.00  0.00    +0.000 C 
ATOM     10  C   UNL     1      35.519  -0.138  18.610  0.00  0.00    +0.000 C 
ATOM     11  C   UNL     1      35.754   0.312  17.219  0.00  0.00    +0.000 A 
ATOM     12  C   UNL     1      34.899   1.343  16.903  0.00  0.00    +0.000 A 
ATOM     13  C   UNL     1      34.945   1.909  15.664  0.00  0.00    +0.000 A 
ATOM     14  C   UNL     1      35.836   1.458  14.737  0.00  0.00    +0.000 A 
ATOM     15  C   UNL     1      36.712   0.412  15.037  0.00  0.00    +0.000 A 
ATOM     16  C   UNL     1      36.654  -0.147  16.285  0.00  0.00    +0.000 A 
ENDROOT
BRANCH   1  18
ATOM     17  C   UNL     1      38.945  -1.138  13.129  0.00  0.00    +0.000 C 
ATOM     18  C   UNL     1      38.204  -0.804  14.168  0.00  0.00    +0.000 C 
BRANCH  17  20
ATOM     19  O   UNL     1      39.642  -0.731  10.933  0.00  0.00    +0.000 OA
ATOM     20  C   UNL     1      38.832  -0.449  11.836  0.00  0.00    +0.000 C 
ATOM     21  N   UNL     1      37.799   0.509  11.679  0.00  0.00    +0.000 NA
BRANCH  21  22
ATOM     22  C   UNL     1      37.657   1.210  10.414  0.00  0.00    +0.000 C 
BRANCH  22  23
ATOM     23  C   UNL     1      37.629   2.702  10.681  0.00  0.00    +0.000 C 
BRANCH  23  24
ATOM     24  C   UNL     1      38.879   3.055  11.455  0.00  0.00    +0.000 C 
BRANCH  24  25
ATOM     25  C   UNL     1      38.553   3.509  12.842  0.00  0.00    +0.000 A 
ATOM     26  C   UNL     1      39.249   3.038  13.928  0.00  0.00    +0.000 A 
ATOM     27  C   UNL     1      38.919   3.478  15.191  0.00  0.00    +0.000 A 
ATOM     28  C   UNL     1      37.899   4.382  15.350  0.00  0.00    +0.000 A 
ATOM     29  N   UNL     1      37.236   4.826  14.274  0.00  0.00    +0.000 NA
ATOM     30  C   UNL     1      37.534   4.415  13.035  0.00  0.00    +0.000 A 
ENDBRANCH  24  25
ENDBRANCH  23  24
ENDBRANCH  22  23
ENDBRANCH  21  22
ENDBRANCH  17  20
ENDBRANCH   1  18
TORSDOF 6
ENDMDL
MODEL 7
REMARK VINA RESULT:      -8.3      3.125      3.910
REMARK  Name = 
REMARK  6 active torsions:
REMARK  status: ('A' for Active; 'I' for Inactive)
REMARK    1  A    between atoms: C_2  and  C_3
REMARK    2  A    between atoms: C_4  and  C_5
REMARK    3  A    between atoms: N_21  and  C_22
REMARK    4  A    between atoms: C_22  and  C_23
REMARK    5  A    between atoms: C_23  and  C_24
REMARK    6  A    between atoms: C_24  and  C_25
REMARK                            x       y       z     vdW  Elec       q    Type
REMARK                         _______ _______ _______ _____ _____    ______ ____
ROOT
ATOM      1  C   UNL     1      40.860   5.778  15.381  0.00  0.00    +0.000 C 
ATOM      2  C   UNL     1      41.781   6.231  16.185  0.00  0.00    +0.000 C 
ATOM      3  C   UNL     1      43.041   6.597  15.498  0.00  0.00    +0.000 A 
ATOM      4  C   UNL     1      43.166   6.033  14.250  0.00  0.00    +0.000 A 
ATOM      5  C   UNL     1      44.305   6.305  13.518  0.00  0.00    +0.000 A 
ATOM      6  C   UNL     1      45.284   7.123  14.037  0.00  0.00    +0.000 A 
ATOM      7  C   UNL     1      45.141   7.677  15.285  0.00  0.00    +0.000 A 
ATOM      8  C   UNL     1      44.022   7.430  16.042  0.00  0.00    +0.000 A 
ATOM      9  C   UNL     1      44.038   8.116  17.368  0.00  0.00    +0.000 C 
ATOM     10  C   UNL     1      43.773   7.200  18.521  0.00  0.00    +0.000 C 
ATOM     11  C   UNL     1      42.366   6.746  18.606  0.00  0.00    +0.000 A 
ATOM     12  C   UNL     1      41.935   6.777  19.913  0.00  0.00    +0.000 A 
ATOM     13  C   UNL     1      40.662   6.397  20.218  0.00  0.00    +0.000 A 
ATOM     14  C   UNL     1      39.814   5.986  19.234  0.00  0.00    +0.000 A 
ATOM     15  C   UNL     1      40.232   5.947  17.901  0.00  0.00    +0.000 A 
ATOM     16  C   UNL     1      41.513   6.332  17.610  0.00  0.00    +0.000 A 
ENDROOT
BRANCH   1  18
ATOM     17  C   UNL     1      38.977   4.306  15.515  0.00  0.00    +0.000 C 
ATOM     18  C   UNL     1      39.576   5.389  15.973  0.00  0.00    +0.000 C 
BRANCH  17  20
ATOM     19  O   UNL     1      37.587   3.636  17.273  0.00  0.00    +0.000 OA
ATOM     20  C   UNL     1      37.689   3.843  16.049  0.00  0.00    +0.000 C 
ATOM     21  N   UNL     1      36.619   3.653  15.139  0.00  0.00    +0.000 NA
BRANCH  21  22
ATOM     22  C   UNL     1      35.331   3.195  15.632  0.00  0.00    +0.000 C 
BRANCH  22  23
ATOM     23  C   UNL     1      35.285   1.682  15.552  0.00  0.00    +0.000 C 
BRANCH  23  24
ATOM     24  C   UNL     1      34.836   1.162  16.899  0.00  0.00    +0.000 C 
BRANCH  24  25
ATOM     25  C   UNL     1      35.817   0.184  17.462  0.00  0.00    +0.000 A 
ATOM     26  C   UNL     1      35.743  -0.227  18.771  0.00  0.00    +0.000 A 
ATOM     27  C   UNL     1      36.665  -1.128  19.254  0.00  0.00    +0.000 A 
ATOM     28  C   UNL     1      37.648  -1.605  18.424  0.00  0.00    +0.000 A 
ATOM     29  N   UNL     1      37.699  -1.189  17.152  0.00  0.00    +0.000 NA
ATOM     30  C   UNL     1      36.816  -0.313  16.655  0.00  0.00    +0.000 A 
ENDBRANCH  24  25
ENDBRANCH  23  24
ENDBRANCH  22  23
ENDBRANCH  21  22
ENDBRANCH  17  20
ENDBRANCH   1  18
TORSDOF 6
ENDMDL
MODEL 8
REMARK VINA RESULT:      -8.2      6.951      9.297
REMARK  Name = 
REMARK  6 active torsions:
REMARK  status: ('A' for Active; 'I' for Inactive)
REMARK    1  A    between atoms: C_2  and  C_3
REMARK    2  A    between atoms: C_4  and  C_5
REMARK    3  A    between atoms: N_21  and  C_22
REMARK    4  A    between atoms: C_22  and  C_23
REMARK    5  A    between atoms: C_23  and  C_24
REMARK    6  A    between atoms: C_24  and  C_25
REMARK                            x       y       z     vdW  Elec       q    Type
REMARK                         _______ _______ _______ _____ _____    ______ ____
ROOT
ATOM      1  C   UNL     1      38.268  -0.970  14.847  0.00  0.00    +0.000 C 
ATOM      2  C   UNL     1      37.561  -0.863  15.936  0.00  0.00    +0.000 C 
ATOM      3  C   UNL     1      37.915  -1.860  16.973  0.00  0.00    +0.000 A 
ATOM      4  C   UNL     1      38.605  -2.941  16.479  0.00  0.00    +0.000 A 
ATOM      5  C   UNL     1      38.985  -3.936  17.358  0.00  0.00    +0.000 A 
ATOM      6  C   UNL     1      38.674  -3.835  18.696  0.00  0.00    +0.000 A 
ATOM      7  C   UNL     1      37.983  -2.747  19.171  0.00  0.00    +0.000 A 
ATOM      8  C   UNL     1      37.589  -1.738  18.327  0.00  0.00    +0.000 A 
ATOM      9  C   UNL     1      36.854  -0.638  19.018  0.00  0.00    +0.000 C 
ATOM     10  C   UNL     1      35.543  -0.299  18.380  0.00  0.00    +0.000 C 
ATOM     11  C   UNL     1      35.679   0.405  17.085  0.00  0.00    +0.000 A 
ATOM     12  C   UNL     1      34.768   1.433  17.005  0.00  0.00    +0.000 A 
ATOM     13  C   UNL     1      34.720   2.215  15.890  0.00  0.00    +0.000 A 
ATOM     14  C   UNL     1      35.572   1.981  14.852  0.00  0.00    +0.000 A 
ATOM     15  C   UNL     1      36.504   0.942  14.912  0.00  0.00    +0.000 A 
ATOM     16  C   UNL     1      36.540   0.165  16.039  0.00  0.00    +0.000 A 
ENDROOT
BRANCH   1  18
ATOM     17  C   UNL     1      38.668  -0.139  12.637  0.00  0.00    +0.000 C 
ATOM     18  C   UNL     1      37.987  -0.024  13.762  0.00  0.00    +0.000 C 
BRANCH  17  20
ATOM     19  O   UNL     1      38.936   0.461  10.392  0.00  0.00    +0.000 OA
ATOM     20  C   UNL     1      38.453   0.764  11.499  0.00  0.00    +0.000 C 
ATOM     21  N   UNL     1      37.699   1.945  11.718  0.00  0.00    +0.000 NA
BRANCH  21  22
ATOM     22  C   UNL     1      37.467   2.862  10.615  0.00  0.00    +0.000 C 
BRANCH  22  23
ATOM     23  C   UNL     1      37.576   4.284  11.128  0.00  0.00    +0.000 C 
BRANCH  23  24
ATOM     24  C   UNL     1      37.013   4.312  12.532  0.00  0.00    +0.000 C 
BRANCH  24  25
ATOM     25  C   UNL     1      35.901   5.304  12.655  0.00  0.00    +0.000 A 
ATOM     26  C   UNL     1      35.240   5.490  13.845  0.00  0.00    +0.000 A 
ATOM     27  C   UNL     1      34.221   6.413  13.919  0.00  0.00    +0.000 A 
ATOM     28  C   UNL     1      33.876   7.136  12.805  0.00  0.00    +0.000 A 
ATOM     29  N   UNL     1      34.536   6.936  11.656  0.00  0.00    +0.000 NA
ATOM     30  C   UNL     1      35.531   6.045  11.554  0.00  0.00    +0.000 A 
ENDBRANCH  24  25
ENDBRANCH  23  24
ENDBRANCH  22  23
ENDBRANCH  21  22
ENDBRANCH  17  20
ENDBRANCH   1  18
TORSDOF 6
ENDMDL
MODEL 9
REMARK VINA RESULT:      -8.0      2.764      9.112
REMARK  Name = 
REMARK  6 active torsions:
REMARK  status: ('A' for Active; 'I' for Inactive)
REMARK    1  A    between atoms: C_2  and  C_3
REMARK    2  A    between atoms: C_4  and  C_5
REMARK    3  A    between atoms: N_21  and  C_22
REMARK    4  A    between atoms: C_22  and  C_23
REMARK    5  A    between atoms: C_23  and  C_24
REMARK    6  A    between atoms: C_24  and  C_25
REMARK                            x       y       z     vdW  Elec       q    Type
REMARK                         _______ _______ _______ _____ _____    ______ ____
ROOT
ATOM      1  C   UNL     1      39.327   2.078  14.682  0.00  0.00    +0.000 C 
ATOM      2  C   UNL     1      38.699   0.977  14.982  0.00  0.00    +0.000 C 
ATOM      3  C   UNL     1      39.476  -0.249  14.687  0.00  0.00    +0.000 A 
ATOM      4  C   UNL     1      40.507  -0.042  13.802  0.00  0.00    +0.000 A 
ATOM      5  C   UNL     1      41.298  -1.118  13.451  0.00  0.00    +0.000 A 
ATOM      6  C   UNL     1      41.049  -2.364  13.983  0.00  0.00    +0.000 A 
ATOM      7  C   UNL     1      40.014  -2.551  14.866  0.00  0.00    +0.000 A 
ATOM      8  C   UNL     1      39.206  -1.505  15.238  0.00  0.00    +0.000 A 
ATOM      9  C   UNL     1      38.138  -1.894  16.205  0.00  0.00    +0.000 C 
ATOM     10  C   UNL     1      36.765  -1.469  15.785  0.00  0.00    +0.000 C 
ATOM     11  C   UNL     1      36.538  -0.010  15.892  0.00  0.00    +0.000 A 
ATOM     12  C   UNL     1      35.292   0.239  16.422  0.00  0.00    +0.000 A 
ATOM     13  C   UNL     1      34.876   1.524  16.607  0.00  0.00    +0.000 A 
ATOM     14  C   UNL     1      35.691   2.563  16.269  0.00  0.00    +0.000 A 
ATOM     15  C   UNL     1      36.959   2.332  15.730  0.00  0.00    +0.000 A 
ATOM     16  C   UNL     1      37.362   1.037  15.550  0.00  0.00    +0.000 A 
ENDROOT
BRANCH   1  18
ATOM     17  C   UNL     1      39.336   4.359  15.408  0.00  0.00    +0.000 C 
ATOM     18  C   UNL     1      38.634   3.345  14.940  0.00  0.00    +0.000 C 
BRANCH  17  20
ATOM     19  O   UNL     1      38.243   6.321  14.753  0.00  0.00    +0.000 OA
ATOM     20  C   UNL     1      38.725   5.664  15.695  0.00  0.00    +0.000 C 
ATOM     21  N   UNL     1      38.712   6.114  17.039  0.00  0.00    +0.000 NA
BRANCH  21  22
ATOM     22  C   UNL     1      38.117   7.401  17.359  0.00  0.00    +0.000 C 
BRANCH  22  23
ATOM     23  C   UNL     1      38.328   7.685  18.833  0.00  0.00    +0.000 C 
BRANCH  23  24
ATOM     24  C   UNL     1      39.181   6.572  19.400  0.00  0.00    +0.000 C 
BRANCH  24  25
ATOM     25  C   UNL     1      40.495   7.087  19.891  0.00  0.00    +0.000 A 
ATOM     26  C   UNL     1      41.487   6.231  20.304  0.00  0.00    +0.000 A 
ATOM     27  C   UNL     1      42.685   6.744  20.751  0.00  0.00    +0.000 A 
ATOM     28  C   UNL     1      42.875   8.102  20.779  0.00  0.00    +0.000 A 
ATOM     29  N   UNL     1      41.892   8.916  20.370  0.00  0.00    +0.000 NA
ATOM     30  C   UNL     1      40.717   8.446  19.932  0.00  0.00    +0.000 A 
ENDBRANCH  24  25
ENDBRANCH  23  24
ENDBRANCH  22  23
ENDBRANCH  21  22
ENDBRANCH  17  20
ENDBRANCH   1  18
TORSDOF 6
ENDMDL
MODEL 10
REMARK VINA RESULT:      -8.0      2.719      4.632
REMARK  Name = 
REMARK  6 active torsions:
REMARK  status: ('A' for Active; 'I' for Inactive)
REMARK    1  A    between atoms: C_2  and  C_3
REMARK    2  A    between atoms: C_4  and  C_5
REMARK    3  A    between atoms: N_21  and  C_22
REMARK    4  A    between atoms: C_22  and  C_23
REMARK    5  A    between atoms: C_23  and  C_24
REMARK    6  A    between atoms: C_24  and  C_25
REMARK                            x       y       z     vdW  Elec       q    Type
REMARK                         _______ _______ _______ _____ _____    ______ ____
ROOT
ATOM      1  C   UNL     1      38.391   4.635  17.716  0.00  0.00    +0.000 C 
ATOM      2  C   UNL     1      39.404   5.298  17.236  0.00  0.00    +0.000 C 
ATOM      3  C   UNL     1      40.054   6.189  18.225  0.00  0.00    +0.000 A 
ATOM      4  C   UNL     1      39.260   6.467  19.313  0.00  0.00    +0.000 A 
ATOM      5  C   UNL     1      39.763   7.291  20.300  0.00  0.00    +0.000 A 
ATOM      6  C   UNL     1      41.032   7.815  20.185  0.00  0.00    +0.000 A 
ATOM      7  C   UNL     1      41.810   7.526  19.091  0.00  0.00    +0.000 A 
ATOM      8  C   UNL     1      41.343   6.710  18.090  0.00  0.00    +0.000 A 
ATOM      9  C   UNL     1      42.324   6.506  16.984  0.00  0.00    +0.000 C 
ATOM     10  C   UNL     1      41.763   6.783  15.624  0.00  0.00    +0.000 C 
ATOM     11  C   UNL     1      40.801   5.758  15.160  0.00  0.00    +0.000 A 
ATOM     12  C   UNL     1      41.025   5.462  13.835  0.00  0.00    +0.000 A 
ATOM     13  C   UNL     1      40.247   4.538  13.204  0.00  0.00    +0.000 A 
ATOM     14  C   UNL     1      39.248   3.905  13.880  0.00  0.00    +0.000 A 
ATOM     15  C   UNL     1      39.003   4.192  15.226  0.00  0.00    +0.000 A 
ATOM     16  C   UNL     1      39.792   5.122  15.846  0.00  0.00    +0.000 A 
ENDROOT
BRANCH   1  18
ATOM     17  C   UNL     1      36.780   2.910  17.314  0.00  0.00    +0.000 C 
ATOM     18  C   UNL     1      37.684   3.726  16.807  0.00  0.00    +0.000 C 
BRANCH  17  20
ATOM     19  O   UNL     1      35.162   2.414  15.699  0.00  0.00    +0.000 OA
ATOM     20  C   UNL     1      36.024   1.967  16.478  0.00  0.00    +0.000 C 
ATOM     21  N   UNL     1      36.316   0.585  16.600  0.00  0.00    +0.000 NA
BRANCH  21  22
ATOM     22  C   UNL     1      35.588  -0.376  15.790  0.00  0.00    +0.000 C 
BRANCH  22  23
ATOM     23  C   UNL     1      36.361  -1.679  15.762  0.00  0.00    +0.000 C 
BRANCH  23  24
ATOM     24  C   UNL     1      37.790  -1.376  16.155  0.00  0.00    +0.000 C 
BRANCH  24  25
ATOM     25  C   UNL     1      38.756  -1.878  15.130  0.00  0.00    +0.000 A 
ATOM     26  C   UNL     1      40.088  -2.038  15.425  0.00  0.00    +0.000 A 
ATOM     27  C   UNL     1      40.948  -2.502  14.455  0.00  0.00    +0.000 A 
ATOM     28  C   UNL     1      40.466  -2.800  13.205  0.00  0.00    +0.000 A 
ATOM     29  N   UNL     1      39.163  -2.635  12.943  0.00  0.00    +0.000 NA
ATOM     30  C   UNL     1      38.303  -2.185  13.866  0.00  0.00    +0.000 A 
ENDBRANCH  24  25
ENDBRANCH  23  24
ENDBRANCH  22  23
ENDBRANCH  21  22
ENDBRANCH  17  20
ENDBRANCH   1  18
TORSDOF 6
ENDMDL
