MODEL 1
REMARK VINA RESULT:      -7.3      0.000      0.000
REMARK  Name = 
REMARK  4 active torsions:
REMARK  status: ('A' for Active; 'I' for Inactive)
REMARK    1  A    between atoms: C_8  and  N_9
REMARK    2  A    between atoms: C_10  and  C_12
REMARK    3  A    between atoms: C_12  and  C_13
REMARK    4  A    between atoms: C_16  and  N_17
REMARK                            x       y       z     vdW  Elec       q    Type
REMARK                         _______ _______ _______ _____ _____    ______ ____
ROOT
ATOM      1  N   UNL     1      14.772  11.738  34.757  0.00  0.00    +0.000 NA
ATOM      2  C   UNL     1      15.840  11.953  35.668  0.00  0.00    +0.000 C 
ATOM      3  O   UNL     1      16.613  12.902  35.429  0.00  0.00    +0.000 OA
ENDROOT
BRANCH   1  11
ATOM      4  C   UNL     1      13.217  14.119  34.934  0.00  0.00    +0.000 C 
ATOM      5  C   UNL     1      13.830  13.703  33.651  0.00  0.00    +0.000 A 
ATOM      6  C   UNL     1      13.672  14.451  32.496  0.00  0.00    +0.000 A 
ATOM      7  C   UNL     1      14.240  14.077  31.287  0.00  0.00    +0.000 A 
ATOM      8  C   UNL     1      14.979  12.910  31.286  0.00  0.00    +0.000 A 
ATOM      9  C   UNL     1      15.143  12.156  32.428  0.00  0.00    +0.000 A 
ATOM     10  C   UNL     1      15.941  10.908  32.407  0.00  0.00    +0.000 C 
ATOM     11  C   UNL     1      14.570  12.554  33.611  0.00  0.00    +0.000 A 
ENDBRANCH   1  11
BRANCH   2  12
ATOM     12  C   UNL     1      16.054  11.101  36.868  0.00  0.00    +0.000 C 
BRANCH  12  13
ATOM     13  C   UNL     1      17.484  10.715  36.949  0.00  0.00    +0.000 A 
ATOM     14  C   UNL     1      18.099   9.858  36.073  0.00  0.00    +0.000 A 
ATOM     15  C   UNL     1      19.425   9.517  36.168  0.00  0.00    +0.000 A 
ATOM     16  C   UNL     1      20.208  10.048  37.191  0.00  0.00    +0.000 A 
ATOM     17  C   UNL     1      19.590  10.910  38.073  0.00  0.00    +0.000 A 
ATOM     18  C   UNL     1      18.249  11.249  37.968  0.00  0.00    +0.000 A 
BRANCH  16  19
ATOM     19  N   UNL     1      21.575   9.718  37.320  0.00  0.00    +0.000 N 
ATOM     20  O   UNL     1      22.298   9.743  36.319  0.00  0.00    +0.000 OA
ATOM     21  O   UNL     1      22.110   9.371  38.526  0.00  0.00    +0.000 OA
ENDBRANCH  16  19
ENDBRANCH  12  13
ENDBRANCH   2  12
TORSDOF 4
ENDMDL
MODEL 2
REMARK VINA RESULT:      -7.0      1.196      2.216
REMARK  Name = 
REMARK  4 active torsions:
REMARK  status: ('A' for Active; 'I' for Inactive)
REMARK    1  A    between atoms: C_8  and  N_9
REMARK    2  A    between atoms: C_10  and  C_12
REMARK    3  A    between atoms: C_12  and  C_13
REMARK    4  A    between atoms: C_16  and  N_17
REMARK                            x       y       z     vdW  Elec       q    Type
REMARK                         _______ _______ _______ _____ _____    ______ ____
ROOT
ATOM      1  N   UNL     1      15.474  12.665  34.590  0.00  0.00    +0.000 NA
ATOM      2  C   UNL     1      14.848  11.963  35.653  0.00  0.00    +0.000 C 
ATOM      3  O   UNL     1      13.869  11.246  35.367  0.00  0.00    +0.000 OA
ENDROOT
BRANCH   1  11
ATOM      4  C   UNL     1      16.544  10.693  32.835  0.00  0.00    +0.000 C 
ATOM      5  C   UNL     1      15.510  11.646  32.370  0.00  0.00    +0.000 A 
ATOM      6  C   UNL     1      15.027  11.614  31.072  0.00  0.00    +0.000 A 
ATOM      7  C   UNL     1      14.059  12.498  30.620  0.00  0.00    +0.000 A 
ATOM      8  C   UNL     1      13.592  13.424  31.533  0.00  0.00    +0.000 A 
ATOM      9  C   UNL     1      14.065  13.466  32.826  0.00  0.00    +0.000 A 
ATOM     10  C   UNL     1      13.551  14.466  33.792  0.00  0.00    +0.000 C 
ATOM     11  C   UNL     1      15.023  12.576  33.245  0.00  0.00    +0.000 A 
ENDBRANCH   1  11
BRANCH   2  12
ATOM     12  C   UNL     1      15.317  12.055  37.061  0.00  0.00    +0.000 C 
BRANCH  12  13
ATOM     13  C   UNL     1      16.664  11.444  37.174  0.00  0.00    +0.000 A 
ATOM     14  C   UNL     1      16.947  10.142  36.850  0.00  0.00    +0.000 A 
ATOM     15  C   UNL     1      18.203   9.600  36.961  0.00  0.00    +0.000 A 
ATOM     16  C   UNL     1      19.259  10.383  37.422  0.00  0.00    +0.000 A 
ATOM     17  C   UNL     1      18.976  11.693  37.748  0.00  0.00    +0.000 A 
ATOM     18  C   UNL     1      17.703  12.232  37.631  0.00  0.00    +0.000 A 
BRANCH  16  19
ATOM     19  N   UNL     1      20.564   9.858  37.551  0.00  0.00    +0.000 N 
ATOM     20  O   UNL     1      21.261   9.721  36.540  0.00  0.00    +0.000 OA
ATOM     21  O   UNL     1      21.068   9.499  38.766  0.00  0.00    +0.000 OA
ENDBRANCH  16  19
ENDBRANCH  12  13
ENDBRANCH   2  12
TORSDOF 4
ENDMDL
MODEL 3
REMARK VINA RESULT:      -6.6      2.935      7.291
REMARK  Name = 
REMARK  4 active torsions:
REMARK  status: ('A' for Active; 'I' for Inactive)
REMARK    1  A    between atoms: C_8  and  N_9
REMARK    2  A    between atoms: C_10  and  C_12
REMARK    3  A    between atoms: C_12  and  C_13
REMARK    4  A    between atoms: C_16  and  N_17
REMARK                            x       y       z     vdW  Elec       q    Type
REMARK                         _______ _______ _______ _____ _____    ______ ____
ROOT
ATOM      1  N   UNL     1      20.376  10.785  37.589  0.00  0.00    +0.000 NA
ATOM      2  C   UNL     1      19.886   9.769  38.451  0.00  0.00    +0.000 C 
ATOM      3  O   UNL     1      20.615   9.424  39.401  0.00  0.00    +0.000 OA
ENDROOT
BRANCH   1  11
ATOM      4  C   UNL     1      20.612  13.152  39.158  0.00  0.00    +0.000 C 
ATOM      5  C   UNL     1      21.801  12.538  38.522  0.00  0.00    +0.000 A 
ATOM      6  C   UNL     1      23.065  13.087  38.665  0.00  0.00    +0.000 A 
ATOM      7  C   UNL     1      24.188  12.525  38.077  0.00  0.00    +0.000 A 
ATOM      8  C   UNL     1      23.988  11.379  37.333  0.00  0.00    +0.000 A 
ATOM      9  C   UNL     1      22.736  10.822  37.182  0.00  0.00    +0.000 A 
ATOM     10  C   UNL     1      22.542   9.591  36.381  0.00  0.00    +0.000 C 
ATOM     11  C   UNL     1      21.642  11.402  37.778  0.00  0.00    +0.000 A 
ENDBRANCH   1  11
BRANCH   2  12
ATOM     12  C   UNL     1      18.561   9.122  38.255  0.00  0.00    +0.000 C 
BRANCH  12  13
ATOM     13  C   UNL     1      17.951   9.618  36.998  0.00  0.00    +0.000 A 
ATOM     14  C   UNL     1      18.306   9.183  35.747  0.00  0.00    +0.000 A 
ATOM     15  C   UNL     1      17.725   9.656  34.597  0.00  0.00    +0.000 A 
ATOM     16  C   UNL     1      16.726  10.625  34.671  0.00  0.00    +0.000 A 
ATOM     17  C   UNL     1      16.368  11.064  35.929  0.00  0.00    +0.000 A 
ATOM     18  C   UNL     1      16.961  10.578  37.085  0.00  0.00    +0.000 A 
BRANCH  16  19
ATOM     19  N   UNL     1      16.107  11.135  33.509  0.00  0.00    +0.000 N 
ATOM     20  O   UNL     1      16.466  10.718  32.403  0.00  0.00    +0.000 OA
ATOM     21  O   UNL     1      15.125  12.079  33.585  0.00  0.00    +0.000 OA
ENDBRANCH  16  19
ENDBRANCH  12  13
ENDBRANCH   2  12
TORSDOF 4
ENDMDL
MODEL 4
REMARK VINA RESULT:      -6.5      2.292      3.405
REMARK  Name = 
REMARK  4 active torsions:
REMARK  status: ('A' for Active; 'I' for Inactive)
REMARK    1  A    between atoms: C_8  and  N_9
REMARK    2  A    between atoms: C_10  and  C_12
REMARK    3  A    between atoms: C_12  and  C_13
REMARK    4  A    between atoms: C_16  and  N_17
REMARK                            x       y       z     vdW  Elec       q    Type
REMARK                         _______ _______ _______ _____ _____    ______ ____
ROOT
ATOM      1  N   UNL     1      17.141  10.092  36.776  0.00  0.00    +0.000 NA
ATOM      2  C   UNL     1      18.243  10.635  37.487  0.00  0.00    +0.000 C 
ATOM      3  O   UNL     1      18.426  11.866  37.405  0.00  0.00    +0.000 OA
ENDROOT
BRANCH   1  11
ATOM      4  C   UNL     1      14.919  11.404  37.984  0.00  0.00    +0.000 C 
ATOM      5  C   UNL     1      15.187  11.540  36.534  0.00  0.00    +0.000 A 
ATOM      6  C   UNL     1      14.374  12.305  35.715  0.00  0.00    +0.000 A 
ATOM      7  C   UNL     1      14.611  12.443  34.355  0.00  0.00    +0.000 A 
ATOM      8  C   UNL     1      15.708  11.775  33.848  0.00  0.00    +0.000 A 
ATOM      9  C   UNL     1      16.525  11.010  34.652  0.00  0.00    +0.000 A 
ATOM     10  C   UNL     1      17.699  10.301  34.089  0.00  0.00    +0.000 C 
ATOM     11  C   UNL     1      16.265  10.893  35.996  0.00  0.00    +0.000 A 
ENDBRANCH   1  11
BRANCH   2  12
ATOM     12  C   UNL     1      19.162   9.798  38.304  0.00  0.00    +0.000 C 
BRANCH  12  13
ATOM     13  C   UNL     1      20.564  10.073  37.907  0.00  0.00    +0.000 A 
ATOM     14  C   UNL     1      21.100   9.731  36.693  0.00  0.00    +0.000 A 
ATOM     15  C   UNL     1      22.401   9.998  36.348  0.00  0.00    +0.000 A 
ATOM     16  C   UNL     1      23.242  10.644  37.253  0.00  0.00    +0.000 A 
ATOM     17  C   UNL     1      22.704  10.988  38.476  0.00  0.00    +0.000 A 
ATOM     18  C   UNL     1      21.386  10.715  38.814  0.00  0.00    +0.000 A 
BRANCH  16  19
ATOM     19  N   UNL     1      24.587  10.933  36.933  0.00  0.00    +0.000 N 
ATOM     20  O   UNL     1      25.242  11.660  37.685  0.00  0.00    +0.000 OA
ATOM     21  O   UNL     1      25.173  10.426  35.810  0.00  0.00    +0.000 OA
ENDBRANCH  16  19
ENDBRANCH  12  13
ENDBRANCH   2  12
TORSDOF 4
ENDMDL
MODEL 5
REMARK VINA RESULT:      -6.4      3.768      7.972
REMARK  Name = 
REMARK  4 active torsions:
REMARK  status: ('A' for Active; 'I' for Inactive)
REMARK    1  A    between atoms: C_8  and  N_9
REMARK    2  A    between atoms: C_10  and  C_12
REMARK    3  A    between atoms: C_12  and  C_13
REMARK    4  A    between atoms: C_16  and  N_17
REMARK                            x       y       z     vdW  Elec       q    Type
REMARK                         _______ _______ _______ _____ _____    ______ ____
ROOT
ATOM      1  N   UNL     1      18.228   8.140  39.268  0.00  0.00    +0.000 NA
ATOM      2  C   UNL     1      19.264   9.110  39.255  0.00  0.00    +0.000 C 
ATOM      3  O   UNL     1      19.673   9.525  40.357  0.00  0.00    +0.000 OA
ENDROOT
BRANCH   1  11
ATOM      4  C   UNL     1      16.163   9.584  40.599  0.00  0.00    +0.000 C 
ATOM      5  C   UNL     1      16.670   8.303  41.145  0.00  0.00    +0.000 A 
ATOM      6  C   UNL     1      16.163   7.762  42.314  0.00  0.00    +0.000 A 
ATOM      7  C   UNL     1      16.626   6.564  42.838  0.00  0.00    +0.000 A 
ATOM      8  C   UNL     1      17.628   5.927  42.133  0.00  0.00    +0.000 A 
ATOM      9  C   UNL     1      18.142   6.455  40.968  0.00  0.00    +0.000 A 
ATOM     10  C   UNL     1      19.216   5.755  40.225  0.00  0.00    +0.000 C 
ATOM     11  C   UNL     1      17.661   7.643  40.473  0.00  0.00    +0.000 A 
ENDBRANCH   1  11
BRANCH   2  12
ATOM     12  C   UNL     1      19.858   9.632  37.996  0.00  0.00    +0.000 C 
BRANCH  12  13
ATOM     13  C   UNL     1      18.774  10.080  37.088  0.00  0.00    +0.000 A 
ATOM     14  C   UNL     1      17.884  11.078  37.388  0.00  0.00    +0.000 A 
ATOM     15  C   UNL     1      16.890  11.476  36.529  0.00  0.00    +0.000 A 
ATOM     16  C   UNL     1      16.753  10.856  35.289  0.00  0.00    +0.000 A 
ATOM     17  C   UNL     1      17.649   9.852  34.986  0.00  0.00    +0.000 A 
ATOM     18  C   UNL     1      18.651   9.458  35.861  0.00  0.00    +0.000 A 
BRANCH  16  19
ATOM     19  N   UNL     1      15.741  11.239  34.381  0.00  0.00    +0.000 N 
ATOM     20  O   UNL     1      15.554  10.560  33.366  0.00  0.00    +0.000 OA
ATOM     21  O   UNL     1      14.970  12.342  34.602  0.00  0.00    +0.000 OA
ENDBRANCH  16  19
ENDBRANCH  12  13
ENDBRANCH   2  12
TORSDOF 4
ENDMDL
MODEL 6
REMARK VINA RESULT:      -6.4      3.772      8.149
REMARK  Name = 
REMARK  4 active torsions:
REMARK  status: ('A' for Active; 'I' for Inactive)
REMARK    1  A    between atoms: C_8  and  N_9
REMARK    2  A    between atoms: C_10  and  C_12
REMARK    3  A    between atoms: C_12  and  C_13
REMARK    4  A    between atoms: C_16  and  N_17
REMARK                            x       y       z     vdW  Elec       q    Type
REMARK                         _______ _______ _______ _____ _____    ______ ____
ROOT
ATOM      1  N   UNL     1      18.200   8.117  39.277  0.00  0.00    +0.000 NA
ATOM      2  C   UNL     1      19.318   8.991  39.273  0.00  0.00    +0.000 C 
ATOM      3  O   UNL     1      19.839   9.259  40.373  0.00  0.00    +0.000 OA
ENDROOT
BRANCH   1  11
ATOM      4  C   UNL     1      19.149   5.608  40.237  0.00  0.00    +0.000 C 
ATOM      5  C   UNL     1      18.099   6.355  40.967  0.00  0.00    +0.000 A 
ATOM      6  C   UNL     1      17.542   5.865  42.137  0.00  0.00    +0.000 A 
ATOM      7  C   UNL     1      16.558   6.552  42.833  0.00  0.00    +0.000 A 
ATOM      8  C   UNL     1      16.153   7.761  42.301  0.00  0.00    +0.000 A 
ATOM      9  C   UNL     1      16.699   8.259  41.138  0.00  0.00    +0.000 A 
ATOM     10  C   UNL     1      16.252   9.558  40.583  0.00  0.00    +0.000 C 
ATOM     11  C   UNL     1      17.673   7.556  40.471  0.00  0.00    +0.000 A 
ENDBRANCH   1  11
BRANCH   2  12
ATOM     12  C   UNL     1      19.872   9.580  38.024  0.00  0.00    +0.000 C 
BRANCH  12  13
ATOM     13  C   UNL     1      18.757  10.030  37.155  0.00  0.00    +0.000 A 
ATOM     14  C   UNL     1      18.470   9.486  35.931  0.00  0.00    +0.000 A 
ATOM     15  C   UNL     1      17.431   9.919  35.145  0.00  0.00    +0.000 A 
ATOM     16  C   UNL     1      16.614  10.959  35.584  0.00  0.00    +0.000 A 
ATOM     17  C   UNL     1      16.903  11.508  36.816  0.00  0.00    +0.000 A 
ATOM     18  C   UNL     1      17.955  11.062  37.604  0.00  0.00    +0.000 A 
BRANCH  16  19
ATOM     19  N   UNL     1      15.537  11.432  34.801  0.00  0.00    +0.000 N 
ATOM     20  O   UNL     1      14.535  11.882  35.365  0.00  0.00    +0.000 OA
ATOM     21  O   UNL     1      15.583  11.398  33.439  0.00  0.00    +0.000 OA
ENDBRANCH  16  19
ENDBRANCH  12  13
ENDBRANCH   2  12
TORSDOF 4
ENDMDL
MODEL 7
REMARK VINA RESULT:      -6.4     18.629     20.155
REMARK  Name = 
REMARK  4 active torsions:
REMARK  status: ('A' for Active; 'I' for Inactive)
REMARK    1  A    between atoms: C_8  and  N_9
REMARK    2  A    between atoms: C_10  and  C_12
REMARK    3  A    between atoms: C_12  and  C_13
REMARK    4  A    between atoms: C_16  and  N_17
REMARK                            x       y       z     vdW  Elec       q    Type
REMARK                         _______ _______ _______ _____ _____    ______ ____
ROOT
ATOM      1  N   UNL     1      27.933  22.244  27.463  0.00  0.00    +0.000 NA
ATOM      2  C   UNL     1      27.221  23.274  26.795  0.00  0.00    +0.000 C 
ATOM      3  O   UNL     1      27.300  24.425  27.269  0.00  0.00    +0.000 OA
ENDROOT
BRANCH   1  11
ATOM      4  C   UNL     1      26.720  22.253  30.041  0.00  0.00    +0.000 C 
ATOM      5  C   UNL     1      28.172  22.499  29.882  0.00  0.00    +0.000 A 
ATOM      6  C   UNL     1      28.990  22.740  30.973  0.00  0.00    +0.000 A 
ATOM      7  C   UNL     1      30.351  22.972  30.842  0.00  0.00    +0.000 A 
ATOM      8  C   UNL     1      30.861  22.951  29.558  0.00  0.00    +0.000 A 
ATOM      9  C   UNL     1      30.057  22.712  28.464  0.00  0.00    +0.000 A 
ATOM     10  C   UNL     1      30.624  22.693  27.095  0.00  0.00    +0.000 C 
ATOM     11  C   UNL     1      28.712  22.485  28.626  0.00  0.00    +0.000 A 
ENDBRANCH   1  11
BRANCH   2  12
ATOM     12  C   UNL     1      26.404  23.025  25.578  0.00  0.00    +0.000 C 
BRANCH  12  13
ATOM     13  C   UNL     1      27.051  23.669  24.409  0.00  0.00    +0.000 A 
ATOM     14  C   UNL     1      26.558  24.778  23.771  0.00  0.00    +0.000 A 
ATOM     15  C   UNL     1      27.178  25.357  22.691  0.00  0.00    +0.000 A 
ATOM     16  C   UNL     1      28.362  24.814  22.197  0.00  0.00    +0.000 A 
ATOM     17  C   UNL     1      28.859  23.698  22.837  0.00  0.00    +0.000 A 
ATOM     18  C   UNL     1      28.226  23.122  23.929  0.00  0.00    +0.000 A 
BRANCH  16  19
ATOM     19  N   UNL     1      29.026  25.383  21.087  0.00  0.00    +0.000 N 
ATOM     20  O   UNL     1      29.814  24.689  20.436  0.00  0.00    +0.000 OA
ATOM     21  O   UNL     1      28.814  26.680  20.722  0.00  0.00    +0.000 OA
ENDBRANCH  16  19
ENDBRANCH  12  13
ENDBRANCH   2  12
TORSDOF 4
ENDMDL
MODEL 8
REMARK VINA RESULT:      -6.2     18.703     20.300
REMARK  Name = 
REMARK  4 active torsions:
REMARK  status: ('A' for Active; 'I' for Inactive)
REMARK    1  A    between atoms: C_8  and  N_9
REMARK    2  A    between atoms: C_10  and  C_12
REMARK    3  A    between atoms: C_12  and  C_13
REMARK    4  A    between atoms: C_16  and  N_17
REMARK                            x       y       z     vdW  Elec       q    Type
REMARK                         _______ _______ _______ _____ _____    ______ ____
ROOT
ATOM      1  N   UNL     1      27.953  22.258  27.486  0.00  0.00    +0.000 NA
ATOM      2  C   UNL     1      27.388  23.332  26.751  0.00  0.00    +0.000 C 
ATOM      3  O   UNL     1      27.646  24.489  27.138  0.00  0.00    +0.000 OA
ENDROOT
BRANCH   1  11
ATOM      4  C   UNL     1      30.770  22.553  27.184  0.00  0.00    +0.000 C 
ATOM      5  C   UNL     1      30.138  22.607  28.522  0.00  0.00    +0.000 A 
ATOM      6  C   UNL     1      30.888  22.802  29.671  0.00  0.00    +0.000 A 
ATOM      7  C   UNL     1      30.311  22.856  30.931  0.00  0.00    +0.000 A 
ATOM      8  C   UNL     1      28.940  22.704  30.991  0.00  0.00    +0.000 A 
ATOM      9  C   UNL     1      28.183  22.509  29.856  0.00  0.00    +0.000 A 
ATOM     10  C   UNL     1      26.712  22.349  29.942  0.00  0.00    +0.000 C 
ATOM     11  C   UNL     1      28.782  22.461  28.621  0.00  0.00    +0.000 A 
ENDBRANCH   1  11
BRANCH   2  12
ATOM     12  C   UNL     1      26.519  23.122  25.562  0.00  0.00    +0.000 C 
BRANCH  12  13
ATOM     13  C   UNL     1      27.130  23.780  24.382  0.00  0.00    +0.000 A 
ATOM     14  C   UNL     1      26.681  24.956  23.839  0.00  0.00    +0.000 A 
ATOM     15  C   UNL     1      27.265  25.546  22.746  0.00  0.00    +0.000 A 
ATOM     16  C   UNL     1      28.366  24.946  22.137  0.00  0.00    +0.000 A 
ATOM     17  C   UNL     1      28.818  23.762  22.682  0.00  0.00    +0.000 A 
ATOM     18  C   UNL     1      28.221  23.175  23.788  0.00  0.00    +0.000 A 
BRANCH  16  19
ATOM     19  N   UNL     1      28.991  25.525  21.011  0.00  0.00    +0.000 N 
ATOM     20  O   UNL     1      29.811  24.860  20.369  0.00  0.00    +0.000 OA
ATOM     21  O   UNL     1      28.708  26.800  20.620  0.00  0.00    +0.000 OA
ENDBRANCH  16  19
ENDBRANCH  12  13
ENDBRANCH   2  12
TORSDOF 4
ENDMDL
MODEL 9
REMARK VINA RESULT:      -6.2     18.357     19.643
REMARK  Name = 
REMARK  4 active torsions:
REMARK  status: ('A' for Active; 'I' for Inactive)
REMARK    1  A    between atoms: C_8  and  N_9
REMARK    2  A    between atoms: C_10  and  C_12
REMARK    3  A    between atoms: C_12  and  C_13
REMARK    4  A    between atoms: C_16  and  N_17
REMARK                            x       y       z     vdW  Elec       q    Type
REMARK                         _______ _______ _______ _____ _____    ______ ____
ROOT
ATOM      1  N   UNL     1      28.458  24.016  28.104  0.00  0.00    +0.000 NA
ATOM      2  C   UNL     1      28.634  22.651  27.759  0.00  0.00    +0.000 C 
ATOM      3  O   UNL     1      27.883  21.820  28.308  0.00  0.00    +0.000 OA
ENDROOT
BRANCH   1  11
ATOM      4  C   UNL     1      25.792  24.547  27.252  0.00  0.00    +0.000 C 
ATOM      5  C   UNL     1      26.186  24.715  28.670  0.00  0.00    +0.000 A 
ATOM      6  C   UNL     1      25.278  25.133  29.629  0.00  0.00    +0.000 A 
ATOM      7  C   UNL     1      25.631  25.295  30.961  0.00  0.00    +0.000 A 
ATOM      8  C   UNL     1      26.942  25.017  31.292  0.00  0.00    +0.000 A 
ATOM      9  C   UNL     1      27.855  24.600  30.347  0.00  0.00    +0.000 A 
ATOM     10  C   UNL     1      29.258  24.306  30.722  0.00  0.00    +0.000 C 
ATOM     11  C   UNL     1      27.476  24.448  29.035  0.00  0.00    +0.000 A 
ENDBRANCH   1  11
BRANCH   2  12
ATOM     12  C   UNL     1      29.661  22.195  26.784  0.00  0.00    +0.000 C 
BRANCH  12  13
ATOM     13  C   UNL     1      29.378  22.789  25.455  0.00  0.00    +0.000 A 
ATOM     14  C   UNL     1      28.132  22.836  24.885  0.00  0.00    +0.000 A 
ATOM     15  C   UNL     1      27.894  23.392  23.653  0.00  0.00    +0.000 A 
ATOM     16  C   UNL     1      28.947  23.941  22.923  0.00  0.00    +0.000 A 
ATOM     17  C   UNL     1      30.201  23.893  23.496  0.00  0.00    +0.000 A 
ATOM     18  C   UNL     1      30.430  23.330  24.743  0.00  0.00    +0.000 A 
BRANCH  16  19
ATOM     19  N   UNL     1      28.740  24.520  21.652  0.00  0.00    +0.000 N 
ATOM     20  O   UNL     1      27.654  25.053  21.403  0.00  0.00    +0.000 OA
ATOM     21  O   UNL     1      29.713  24.501  20.696  0.00  0.00    +0.000 OA
ENDBRANCH  16  19
ENDBRANCH  12  13
ENDBRANCH   2  12
TORSDOF 4
ENDMDL
MODEL 10
REMARK VINA RESULT:      -6.2     18.320     19.385
REMARK  Name = 
REMARK  4 active torsions:
REMARK  status: ('A' for Active; 'I' for Inactive)
REMARK    1  A    between atoms: C_8  and  N_9
REMARK    2  A    between atoms: C_10  and  C_12
REMARK    3  A    between atoms: C_12  and  C_13
REMARK    4  A    between atoms: C_16  and  N_17
REMARK                            x       y       z     vdW  Elec       q    Type
REMARK                         _______ _______ _______ _____ _____    ______ ____
ROOT
ATOM      1  N   UNL     1      29.329  24.191  25.397  0.00  0.00    +0.000 NA
ATOM      2  C   UNL     1      30.217  23.085  25.455  0.00  0.00    +0.000 C 
ATOM      3  O   UNL     1      30.603  22.604  24.372  0.00  0.00    +0.000 OA
ENDROOT
BRANCH   1  11
ATOM      4  C   UNL     1      26.988  23.188  24.120  0.00  0.00    +0.000 C 
ATOM      5  C   UNL     1      27.766  24.298  23.521  0.00  0.00    +0.000 A 
ATOM      6  C   UNL     1      27.387  24.886  22.326  0.00  0.00    +0.000 A 
ATOM      7  C   UNL     1      28.103  25.926  21.753  0.00  0.00    +0.000 A 
ATOM      8  C   UNL     1      29.226  26.354  22.435  0.00  0.00    +0.000 A 
ATOM      9  C   UNL     1      29.614  25.776  23.624  0.00  0.00    +0.000 A 
ATOM     10  C   UNL     1      30.821  26.250  24.342  0.00  0.00    +0.000 C 
ATOM     11  C   UNL     1      28.883  24.748  24.169  0.00  0.00    +0.000 A 
ENDBRANCH   1  11
BRANCH   2  12
ATOM     12  C   UNL     1      30.686  22.499  26.739  0.00  0.00    +0.000 C 
BRANCH  12  13
ATOM     13  C   UNL     1      29.593  22.568  27.740  0.00  0.00    +0.000 A 
ATOM     14  C   UNL     1      29.722  23.139  28.980  0.00  0.00    +0.000 A 
ATOM     15  C   UNL     1      28.695  23.191  29.889  0.00  0.00    +0.000 A 
ATOM     16  C   UNL     1      27.453  22.646  29.568  0.00  0.00    +0.000 A 
ATOM     17  C   UNL     1      27.323  22.071  28.321  0.00  0.00    +0.000 A 
ATOM     18  C   UNL     1      28.367  22.024  27.408  0.00  0.00    +0.000 A 
BRANCH  16  19
ATOM     19  N   UNL     1      26.375  22.681  30.479  0.00  0.00    +0.000 N 
ATOM     20  O   UNL     1      25.973  23.772  30.895  0.00  0.00    +0.000 OA
ATOM     21  O   UNL     1      25.773  21.535  30.908  0.00  0.00    +0.000 OA
ENDBRANCH  16  19
ENDBRANCH  12  13
ENDBRANCH   2  12
TORSDOF 4
ENDMDL
