MODEL 1
REMARK VINA RESULT:      -8.3      0.000      0.000
REMARK  Name = 
REMARK  8 active torsions:
REMARK  status: ('A' for Active; 'I' for Inactive)
REMARK    1  A    between atoms: C_7  and  C_8
REMARK    2  A    between atoms: C_8  and  N_9
REMARK    3  A    between atoms: N_9  and  C_10
REMARK    4  A    between atoms: N_9  and  C_27
REMARK    5  A    between atoms: C_10  and  C_11
REMARK    6  A    between atoms: C_14  and  C_15
REMARK    7  A    between atoms: N_17  and  C_18
REMARK    8  A    between atoms: C_18  and  C_20
REMARK                            x       y       z     vdW  Elec       q    Type
REMARK                         _______ _______ _______ _____ _____    ______ ____
ROOT
ATOM      1  C   UNL     1      36.559   1.578  15.568  0.00  0.00    +0.000 A 
ATOM      2  C   UNL     1      36.073   1.954  14.310  0.00  0.00    +0.000 A 
ATOM      3  C   UNL     1      36.988   2.904  13.891  0.00  0.00    +0.000 A 
ATOM      4  C   UNL     1      37.948   3.062  14.862  0.00  0.00    +0.000 A 
ATOM      5  O   UNL     1      37.632   2.242  15.833  0.00  0.00    +0.000 OA
ENDROOT
BRANCH   4   6
ATOM      6  C   UNL     1      39.129   3.955  14.880  0.00  0.00    +0.000 C 
ATOM      7  O   UNL     1      40.035   3.813  14.019  0.00  0.00    +0.000 OA
ATOM      8  N   UNL     1      39.309   4.969  15.807  0.00  0.00    +0.000 NA
BRANCH   8   9
ATOM      9  C   UNL     1      40.558   5.885  15.786  0.00  0.00    +0.000 C 
ATOM     10  C   UNL     1      39.813   7.310  15.444  0.00  0.00    +0.000 C 
BRANCH   9  11
ATOM     11  C   UNL     1      40.649   6.122  17.382  0.00  0.00    +0.000 A 
ATOM     12  C   UNL     1      41.904   6.423  17.854  0.00  0.00    +0.000 A 
ATOM     13  C   UNL     1      42.032   6.630  19.230  0.00  0.00    +0.000 A 
ATOM     14  C   UNL     1      40.910   6.521  20.014  0.00  0.00    +0.000 A 
ATOM     15  C   UNL     1      39.676   6.219  19.506  0.00  0.00    +0.000 A 
ATOM     16  C   UNL     1      39.568   6.018  18.149  0.00  0.00    +0.000 A 
ENDBRANCH   9  11
ENDBRANCH   8   9
ENDBRANCH   4   6
BRANCH   1  17
ATOM     17  C   UNL     1      35.970   0.569  16.497  0.00  0.00    +0.000 C 
BRANCH  17  18
ATOM     18  N   UNL     1      37.100  -0.285  16.961  0.00  0.00    +0.000 NA
BRANCH  18  19
ATOM     19  C   UNL     1      36.635  -0.875  18.211  0.00  0.00    +0.000 C 
ATOM     20  C   UNL     1      37.849  -1.426  18.959  0.00  0.00    +0.000 C 
ATOM     21  C   UNL     1      35.886   0.067  19.069  0.00  0.00    +0.000 C 
ATOM     22  C   UNL     1      35.774  -2.102  17.903  0.00  0.00    +0.000 C 
ENDBRANCH  18  19
BRANCH  18  23
ATOM     23  C   UNL     1      37.377  -1.179  15.913  0.00  0.00    +0.000 C 
BRANCH  23  30
ATOM     24  C   UNL     1      38.519  -3.703  16.299  0.00  0.00    +0.000 C 
ATOM     25  C   UNL     1      39.330  -2.625  15.626  0.00  0.00    +0.000 A 
ATOM     26  C   UNL     1      40.599  -2.848  15.181  0.00  0.00    +0.000 A 
ATOM     27  C   UNL     1      41.345  -1.842  14.560  0.00  0.00    +0.000 A 
ATOM     28  C   UNL     1      40.757  -0.608  14.408  0.00  0.00    +0.000 A 
ATOM     29  C   UNL     1      39.492  -0.375  14.846  0.00  0.00    +0.000 A 
ATOM     30  C   UNL     1      38.758  -1.355  15.454  0.00  0.00    +0.000 A 
ENDBRANCH  23  30
ENDBRANCH  18  23
ENDBRANCH  17  18
ENDBRANCH   1  17
TORSDOF 8
ENDMDL
MODEL 2
REMARK VINA RESULT:      -8.3      0.305      1.203
REMARK  Name = 
REMARK  8 active torsions:
REMARK  status: ('A' for Active; 'I' for Inactive)
REMARK    1  A    between atoms: C_7  and  C_8
REMARK    2  A    between atoms: C_8  and  N_9
REMARK    3  A    between atoms: N_9  and  C_10
REMARK    4  A    between atoms: N_9  and  C_27
REMARK    5  A    between atoms: C_10  and  C_11
REMARK    6  A    between atoms: C_14  and  C_15
REMARK    7  A    between atoms: N_17  and  C_18
REMARK    8  A    between atoms: C_18  and  C_20
REMARK                            x       y       z     vdW  Elec       q    Type
REMARK                         _______ _______ _______ _____ _____    ______ ____
ROOT
ATOM      1  C   UNL     1      36.336   1.571  15.749  0.00  0.00    +0.000 A 
ATOM      2  C   UNL     1      35.601   2.381  14.874  0.00  0.00    +0.000 A 
ATOM      3  C   UNL     1      36.504   3.371  14.532  0.00  0.00    +0.000 A 
ATOM      4  C   UNL     1      37.695   3.138  15.178  0.00  0.00    +0.000 A 
ATOM      5  O   UNL     1      37.525   2.050  15.887  0.00  0.00    +0.000 OA
ENDROOT
BRANCH   4   6
ATOM      6  C   UNL     1      38.956   3.913  15.134  0.00  0.00    +0.000 C 
ATOM      7  O   UNL     1      39.894   3.539  14.385  0.00  0.00    +0.000 OA
ATOM      8  N   UNL     1      39.180   5.058  15.882  0.00  0.00    +0.000 NA
BRANCH   8   9
ATOM      9  C   UNL     1      40.513   5.841  15.800  0.00  0.00    +0.000 C 
ATOM     10  C   UNL     1      39.905   7.326  15.441  0.00  0.00    +0.000 C 
BRANCH   9  11
ATOM     11  C   UNL     1      40.677   6.106  17.387  0.00  0.00    +0.000 A 
ATOM     12  C   UNL     1      39.519   5.987  18.118  0.00  0.00    +0.000 A 
ATOM     13  C   UNL     1      39.612   6.213  19.493  0.00  0.00    +0.000 A 
ATOM     14  C   UNL     1      40.837   6.535  20.022  0.00  0.00    +0.000 A 
ATOM     15  C   UNL     1      41.968   6.643  19.259  0.00  0.00    +0.000 A 
ATOM     16  C   UNL     1      41.859   6.417  17.906  0.00  0.00    +0.000 A 
ENDBRANCH   9  11
ENDBRANCH   8   9
ENDBRANCH   4   6
BRANCH   1  17
ATOM     17  C   UNL     1      35.867   0.333  16.439  0.00  0.00    +0.000 C 
BRANCH  17  18
ATOM     18  N   UNL     1      37.091  -0.371  16.915  0.00  0.00    +0.000 NA
BRANCH  18  19
ATOM     19  C   UNL     1      36.715  -0.951  18.199  0.00  0.00    +0.000 C 
ATOM     20  C   UNL     1      35.782  -2.133  17.934  0.00  0.00    +0.000 C 
ATOM     21  C   UNL     1      37.868  -1.381  19.017  0.00  0.00    +0.000 C 
ATOM     22  C   UNL     1      35.863   0.053  18.979  0.00  0.00    +0.000 C 
ENDBRANCH  18  19
BRANCH  18  23
ATOM     23  C   UNL     1      37.446  -1.277  15.901  0.00  0.00    +0.000 C 
BRANCH  23  30
ATOM     24  C   UNL     1      38.842  -3.658  16.358  0.00  0.00    +0.000 C 
ATOM     25  C   UNL     1      39.531  -2.529  15.634  0.00  0.00    +0.000 A 
ATOM     26  C   UNL     1      40.811  -2.640  15.178  0.00  0.00    +0.000 A 
ATOM     27  C   UNL     1      41.444  -1.588  14.510  0.00  0.00    +0.000 A 
ATOM     28  C   UNL     1      40.732  -0.425  14.323  0.00  0.00    +0.000 A 
ATOM     29  C   UNL     1      39.456  -0.305  14.773  0.00  0.00    +0.000 A 
ATOM     30  C   UNL     1      38.832  -1.331  15.427  0.00  0.00    +0.000 A 
ENDBRANCH  23  30
ENDBRANCH  18  23
ENDBRANCH  17  18
ENDBRANCH   1  17
TORSDOF 8
ENDMDL
MODEL 3
REMARK VINA RESULT:      -7.9      1.530      4.072
REMARK  Name = 
REMARK  8 active torsions:
REMARK  status: ('A' for Active; 'I' for Inactive)
REMARK    1  A    between atoms: C_7  and  C_8
REMARK    2  A    between atoms: C_8  and  N_9
REMARK    3  A    between atoms: N_9  and  C_10
REMARK    4  A    between atoms: N_9  and  C_27
REMARK    5  A    between atoms: C_10  and  C_11
REMARK    6  A    between atoms: C_14  and  C_15
REMARK    7  A    between atoms: N_17  and  C_18
REMARK    8  A    between atoms: C_18  and  C_20
REMARK                            x       y       z     vdW  Elec       q    Type
REMARK                         _______ _______ _______ _____ _____    ______ ____
ROOT
ATOM      1  C   UNL     1      39.463  -1.234  15.413  0.00  0.00    +0.000 A 
ATOM      2  C   UNL     1      40.485  -1.530  14.503  0.00  0.00    +0.000 A 
ATOM      3  C   UNL     1      40.790  -0.294  13.961  0.00  0.00    +0.000 A 
ATOM      4  C   UNL     1      39.981   0.660  14.534  0.00  0.00    +0.000 A 
ATOM      5  O   UNL     1      39.215   0.031  15.389  0.00  0.00    +0.000 OA
ENDROOT
BRANCH   4   6
ATOM      6  C   UNL     1      39.929   2.119  14.287  0.00  0.00    +0.000 C 
ATOM      7  O   UNL     1      40.652   2.629  13.394  0.00  0.00    +0.000 OA
ATOM      8  N   UNL     1      39.111   2.987  14.993  0.00  0.00    +0.000 NA
BRANCH   8   9
ATOM      9  C   UNL     1      39.083   4.507  14.698  0.00  0.00    +0.000 C 
ATOM     10  C   UNL     1      37.458   4.741  14.761  0.00  0.00    +0.000 C 
BRANCH   9  11
ATOM     11  C   UNL     1      39.383   5.000  16.208  0.00  0.00    +0.000 A 
ATOM     12  C   UNL     1      38.529   4.501  17.162  0.00  0.00    +0.000 A 
ATOM     13  C   UNL     1      38.747   4.905  18.482  0.00  0.00    +0.000 A 
ATOM     14  C   UNL     1      39.786   5.765  18.740  0.00  0.00    +0.000 A 
ATOM     15  C   UNL     1      40.615   6.240  17.761  0.00  0.00    +0.000 A 
ATOM     16  C   UNL     1      40.387   5.832  16.466  0.00  0.00    +0.000 A 
ENDBRANCH   9  11
ENDBRANCH   8   9
ENDBRANCH   4   6
BRANCH   1  17
ATOM     17  C   UNL     1      38.739  -2.194  16.299  0.00  0.00    +0.000 C 
BRANCH  17  18
ATOM     18  N   UNL     1      37.327  -2.220  15.824  0.00  0.00    +0.000 NA
BRANCH  18  19
ATOM     19  C   UNL     1      37.006  -3.635  15.681  0.00  0.00    +0.000 C 
ATOM     20  C   UNL     1      37.144  -4.008  14.204  0.00  0.00    +0.000 C 
ATOM     21  C   UNL     1      37.845  -4.521  16.515  0.00  0.00    +0.000 C 
ATOM     22  C   UNL     1      35.527  -3.856  16.004  0.00  0.00    +0.000 C 
ENDBRANCH  18  19
BRANCH  18  23
ATOM     23  C   UNL     1      36.577  -1.503  16.772  0.00  0.00    +0.000 C 
BRANCH  23  30
ATOM     24  C   UNL     1      35.617   0.066  18.879  0.00  0.00    +0.000 C 
ATOM     25  C   UNL     1      35.555   0.607  17.473  0.00  0.00    +0.000 A 
ATOM     26  C   UNL     1      35.061   1.847  17.198  0.00  0.00    +0.000 A 
ATOM     27  C   UNL     1      35.005   2.340  15.891  0.00  0.00    +0.000 A 
ATOM     28  C   UNL     1      35.468   1.530  14.879  0.00  0.00    +0.000 A 
ATOM     29  C   UNL     1      35.962   0.293  15.143  0.00  0.00    +0.000 A 
ATOM     30  C   UNL     1      36.019  -0.194  16.419  0.00  0.00    +0.000 A 
ENDBRANCH  23  30
ENDBRANCH  18  23
ENDBRANCH  17  18
ENDBRANCH   1  17
TORSDOF 8
ENDMDL
MODEL 4
REMARK VINA RESULT:      -7.9      1.020      1.790
REMARK  Name = 
REMARK  8 active torsions:
REMARK  status: ('A' for Active; 'I' for Inactive)
REMARK    1  A    between atoms: C_7  and  C_8
REMARK    2  A    between atoms: C_8  and  N_9
REMARK    3  A    between atoms: N_9  and  C_10
REMARK    4  A    between atoms: N_9  and  C_27
REMARK    5  A    between atoms: C_10  and  C_11
REMARK    6  A    between atoms: C_14  and  C_15
REMARK    7  A    between atoms: N_17  and  C_18
REMARK    8  A    between atoms: C_18  and  C_20
REMARK                            x       y       z     vdW  Elec       q    Type
REMARK                         _______ _______ _______ _____ _____    ______ ____
ROOT
ATOM      1  C   UNL     1      36.138   1.999  16.527  0.00  0.00    +0.000 A 
ATOM      2  C   UNL     1      35.332   2.826  15.735  0.00  0.00    +0.000 A 
ATOM      3  C   UNL     1      36.221   3.781  15.273  0.00  0.00    +0.000 A 
ATOM      4  C   UNL     1      37.472   3.511  15.776  0.00  0.00    +0.000 A 
ATOM      5  O   UNL     1      37.351   2.436  16.514  0.00  0.00    +0.000 OA
ENDROOT
BRANCH   4   6
ATOM      6  C   UNL     1      38.745   4.239  15.570  0.00  0.00    +0.000 C 
ATOM      7  O   UNL     1      39.505   3.915  14.622  0.00  0.00    +0.000 OA
ATOM      8  N   UNL     1      39.168   5.286  16.373  0.00  0.00    +0.000 NA
BRANCH   8   9
ATOM      9  C   UNL     1      40.505   6.025  16.118  0.00  0.00    +0.000 C 
ATOM     10  C   UNL     1      39.909   7.538  15.879  0.00  0.00    +0.000 C 
BRANCH   9  11
ATOM     11  C   UNL     1      40.901   6.244  17.670  0.00  0.00    +0.000 A 
ATOM     12  C   UNL     1      42.230   6.511  17.898  0.00  0.00    +0.000 A 
ATOM     13  C   UNL     1      42.620   6.701  19.225  0.00  0.00    +0.000 A 
ATOM     14  C   UNL     1      41.665   6.611  20.207  0.00  0.00    +0.000 A 
ATOM     15  C   UNL     1      40.350   6.343  19.939  0.00  0.00    +0.000 A 
ATOM     16  C   UNL     1      39.982   6.158  18.626  0.00  0.00    +0.000 A 
ENDBRANCH   9  11
ENDBRANCH   8   9
ENDBRANCH   4   6
BRANCH   1  17
ATOM     17  C   UNL     1      35.713   0.786  17.285  0.00  0.00    +0.000 C 
BRANCH  17  18
ATOM     18  N   UNL     1      36.824  -0.200  17.157  0.00  0.00    +0.000 NA
BRANCH  18  19
ATOM     19  C   UNL     1      36.555  -1.203  18.181  0.00  0.00    +0.000 C 
ATOM     20  C   UNL     1      35.604  -0.591  19.210  0.00  0.00    +0.000 C 
ATOM     21  C   UNL     1      35.992  -2.460  17.645  0.00  0.00    +0.000 C 
ATOM     22  C   UNL     1      37.841  -1.493  18.958  0.00  0.00    +0.000 C 
ENDBRANCH  18  19
BRANCH  18  23
ATOM     23  C   UNL     1      36.806  -0.646  15.825  0.00  0.00    +0.000 C 
BRANCH  23  30
ATOM     24  C   UNL     1      36.815   0.471  13.261  0.00  0.00    +0.000 C 
ATOM     25  C   UNL     1      38.078  -0.159  13.793  0.00  0.00    +0.000 A 
ATOM     26  C   UNL     1      39.232  -0.185  13.067  0.00  0.00    +0.000 A 
ATOM     27  C   UNL     1      40.398  -0.773  13.567  0.00  0.00    +0.000 A 
ATOM     28  C   UNL     1      40.348  -1.331  14.824  0.00  0.00    +0.000 A 
ATOM     29  C   UNL     1      39.203  -1.309  15.555  0.00  0.00    +0.000 A 
ATOM     30  C   UNL     1      38.060  -0.736  15.071  0.00  0.00    +0.000 A 
ENDBRANCH  23  30
ENDBRANCH  18  23
ENDBRANCH  17  18
ENDBRANCH   1  17
TORSDOF 8
ENDMDL
MODEL 5
REMARK VINA RESULT:      -7.8      1.851      2.396
REMARK  Name = 
REMARK  8 active torsions:
REMARK  status: ('A' for Active; 'I' for Inactive)
REMARK    1  A    between atoms: C_7  and  C_8
REMARK    2  A    between atoms: C_8  and  N_9
REMARK    3  A    between atoms: N_9  and  C_10
REMARK    4  A    between atoms: N_9  and  C_27
REMARK    5  A    between atoms: C_10  and  C_11
REMARK    6  A    between atoms: C_14  and  C_15
REMARK    7  A    between atoms: N_17  and  C_18
REMARK    8  A    between atoms: C_18  and  C_20
REMARK                            x       y       z     vdW  Elec       q    Type
REMARK                         _______ _______ _______ _____ _____    ______ ____
ROOT
ATOM      1  C   UNL     1      36.290   1.690  16.206  0.00  0.00    +0.000 A 
ATOM      2  C   UNL     1      35.886   2.502  15.140  0.00  0.00    +0.000 A 
ATOM      3  C   UNL     1      36.562   3.686  15.373  0.00  0.00    +0.000 A 
ATOM      4  C   UNL     1      37.315   3.556  16.517  0.00  0.00    +0.000 A 
ATOM      5  O   UNL     1      37.106   2.342  16.961  0.00  0.00    +0.000 OA
ENDROOT
BRANCH   4   6
ATOM      6  C   UNL     1      38.206   4.541  17.173  0.00  0.00    +0.000 C 
ATOM      7  O   UNL     1      38.641   4.317  18.331  0.00  0.00    +0.000 OA
ATOM      8  N   UNL     1      38.607   5.727  16.578  0.00  0.00    +0.000 NA
BRANCH   8   9
ATOM      9  C   UNL     1      39.545   6.726  17.299  0.00  0.00    +0.000 C 
ATOM     10  C   UNL     1      39.967   7.647  16.004  0.00  0.00    +0.000 C 
BRANCH   9  11
ATOM     11  C   UNL     1      38.388   7.718  17.840  0.00  0.00    +0.000 A 
ATOM     12  C   UNL     1      37.675   8.366  16.861  0.00  0.00    +0.000 A 
ATOM     13  C   UNL     1      36.668   9.238  17.282  0.00  0.00    +0.000 A 
ATOM     14  C   UNL     1      36.457   9.391  18.630  0.00  0.00    +0.000 A 
ATOM     15  C   UNL     1      37.190   8.726  19.575  0.00  0.00    +0.000 A 
ATOM     16  C   UNL     1      38.178   7.871  19.143  0.00  0.00    +0.000 A 
ENDBRANCH   9  11
ENDBRANCH   8   9
ENDBRANCH   4   6
BRANCH   1  17
ATOM     17  C   UNL     1      35.875   0.281  16.473  0.00  0.00    +0.000 C 
BRANCH  17  18
ATOM     18  N   UNL     1      37.102  -0.440  16.917  0.00  0.00    +0.000 NA
BRANCH  18  19
ATOM     19  C   UNL     1      36.671  -1.247  18.053  0.00  0.00    +0.000 C 
ATOM     20  C   UNL     1      37.914  -1.666  18.839  0.00  0.00    +0.000 C 
ATOM     21  C   UNL     1      35.711  -0.558  18.940  0.00  0.00    +0.000 C 
ATOM     22  C   UNL     1      36.069  -2.558  17.544  0.00  0.00    +0.000 C 
ENDBRANCH  18  19
BRANCH  18  23
ATOM     23  C   UNL     1      37.576  -1.143  15.796  0.00  0.00    +0.000 C 
BRANCH  23  30
ATOM     24  C   UNL     1      39.510  -3.160  15.914  0.00  0.00    +0.000 C 
ATOM     25  C   UNL     1      39.863  -1.838  15.279  0.00  0.00    +0.000 A 
ATOM     26  C   UNL     1      41.094  -1.602  14.743  0.00  0.00    +0.000 A 
ATOM     27  C   UNL     1      41.415  -0.373  14.159  0.00  0.00    +0.000 A 
ATOM     28  C   UNL     1      40.444   0.601  14.139  0.00  0.00    +0.000 A 
ATOM     29  C   UNL     1      39.213   0.375  14.670  0.00  0.00    +0.000 A 
ATOM     30  C   UNL     1      38.895  -0.824  15.242  0.00  0.00    +0.000 A 
ENDBRANCH  23  30
ENDBRANCH  18  23
ENDBRANCH  17  18
ENDBRANCH   1  17
TORSDOF 8
ENDMDL
MODEL 6
REMARK VINA RESULT:      -7.4      3.436      6.225
REMARK  Name = 
REMARK  8 active torsions:
REMARK  status: ('A' for Active; 'I' for Inactive)
REMARK    1  A    between atoms: C_7  and  C_8
REMARK    2  A    between atoms: C_8  and  N_9
REMARK    3  A    between atoms: N_9  and  C_10
REMARK    4  A    between atoms: N_9  and  C_27
REMARK    5  A    between atoms: C_10  and  C_11
REMARK    6  A    between atoms: C_14  and  C_15
REMARK    7  A    between atoms: N_17  and  C_18
REMARK    8  A    between atoms: C_18  and  C_20
REMARK                            x       y       z     vdW  Elec       q    Type
REMARK                         _______ _______ _______ _____ _____    ______ ____
ROOT
ATOM      1  C   UNL     1      38.723   0.316  14.390  0.00  0.00    +0.000 A 
ATOM      2  C   UNL     1      39.495   1.479  14.286  0.00  0.00    +0.000 A 
ATOM      3  C   UNL     1      40.784   0.990  14.167  0.00  0.00    +0.000 A 
ATOM      4  C   UNL     1      40.749  -0.384  14.200  0.00  0.00    +0.000 A 
ATOM      5  O   UNL     1      39.490  -0.719  14.335  0.00  0.00    +0.000 OA
ENDROOT
BRANCH   4   6
ATOM      6  C   UNL     1      41.863  -1.356  14.108  0.00  0.00    +0.000 C 
ATOM      7  O   UNL     1      41.624  -2.557  13.827  0.00  0.00    +0.000 OA
ATOM      8  N   UNL     1      43.191  -1.020  14.314  0.00  0.00    +0.000 NA
BRANCH   8   9
ATOM      9  C   UNL     1      44.327  -2.067  14.202  0.00  0.00    +0.000 C 
ATOM     10  C   UNL     1      45.357  -1.212  13.248  0.00  0.00    +0.000 C 
BRANCH   9  11
ATOM     11  C   UNL     1      45.056  -1.709  15.599  0.00  0.00    +0.000 A 
ATOM     12  C   UNL     1      45.024  -0.380  15.947  0.00  0.00    +0.000 A 
ATOM     13  C   UNL     1      45.647  -0.023  17.146  0.00  0.00    +0.000 A 
ATOM     14  C   UNL     1      46.245  -1.009  17.891  0.00  0.00    +0.000 A 
ATOM     15  C   UNL     1      46.255  -2.323  17.510  0.00  0.00    +0.000 A 
ATOM     16  C   UNL     1      45.636  -2.657  16.327  0.00  0.00    +0.000 A 
ENDBRANCH   9  11
ENDBRANCH   8   9
ENDBRANCH   4   6
BRANCH   1  17
ATOM     17  C   UNL     1      37.240   0.229  14.539  0.00  0.00    +0.000 C 
BRANCH  17  18
ATOM     18  N   UNL     1      36.942   0.549  15.964  0.00  0.00    +0.000 NA
BRANCH  18  19
ATOM     19  C   UNL     1      36.085   1.728  15.912  0.00  0.00    +0.000 C 
ATOM     20  C   UNL     1      35.765   2.020  14.445  0.00  0.00    +0.000 C 
ATOM     21  C   UNL     1      34.838   1.589  16.692  0.00  0.00    +0.000 C 
ATOM     22  C   UNL     1      36.873   2.949  16.392  0.00  0.00    +0.000 C 
ENDBRANCH  18  19
BRANCH  18  23
ATOM     23  C   UNL     1      36.375  -0.611  16.520  0.00  0.00    +0.000 C 
BRANCH  23  30
ATOM     24  C   UNL     1      35.811  -0.439  19.255  0.00  0.00    +0.000 C 
ATOM     25  C   UNL     1      36.883  -1.389  18.783  0.00  0.00    +0.000 A 
ATOM     26  C   UNL     1      37.576  -2.183  19.649  0.00  0.00    +0.000 A 
ATOM     27  C   UNL     1      38.570  -3.059  19.204  0.00  0.00    +0.000 A 
ATOM     28  C   UNL     1      38.833  -3.099  17.854  0.00  0.00    +0.000 A 
ATOM     29  C   UNL     1      38.148  -2.313  16.983  0.00  0.00    +0.000 A 
ATOM     30  C   UNL     1      37.175  -1.455  17.412  0.00  0.00    +0.000 A 
ENDBRANCH  23  30
ENDBRANCH  18  23
ENDBRANCH  17  18
ENDBRANCH   1  17
TORSDOF 8
ENDMDL
MODEL 7
REMARK VINA RESULT:      -7.3      1.576      3.902
REMARK  Name = 
REMARK  8 active torsions:
REMARK  status: ('A' for Active; 'I' for Inactive)
REMARK    1  A    between atoms: C_7  and  C_8
REMARK    2  A    between atoms: C_8  and  N_9
REMARK    3  A    between atoms: N_9  and  C_10
REMARK    4  A    between atoms: N_9  and  C_27
REMARK    5  A    between atoms: C_10  and  C_11
REMARK    6  A    between atoms: C_14  and  C_15
REMARK    7  A    between atoms: N_17  and  C_18
REMARK    8  A    between atoms: C_18  and  C_20
REMARK                            x       y       z     vdW  Elec       q    Type
REMARK                         _______ _______ _______ _____ _____    ______ ____
ROOT
ATOM      1  C   UNL     1      39.423   1.379  14.175  0.00  0.00    +0.000 A 
ATOM      2  C   UNL     1      38.996   1.966  12.978  0.00  0.00    +0.000 A 
ATOM      3  C   UNL     1      38.694   3.262  13.354  0.00  0.00    +0.000 A 
ATOM      4  C   UNL     1      38.936   3.409  14.700  0.00  0.00    +0.000 A 
ATOM      5  O   UNL     1      39.369   2.249  15.126  0.00  0.00    +0.000 OA
ENDROOT
BRANCH   4   6
ATOM      6  C   UNL     1      38.769   4.602  15.561  0.00  0.00    +0.000 C 
ATOM      7  O   UNL     1      37.720   5.291  15.478  0.00  0.00    +0.000 OA
ATOM      8  N   UNL     1      39.716   5.022  16.480  0.00  0.00    +0.000 NA
BRANCH   8   9
ATOM      9  C   UNL     1      39.498   6.274  17.366  0.00  0.00    +0.000 C 
ATOM     10  C   UNL     1      39.046   5.518  18.754  0.00  0.00    +0.000 C 
BRANCH   9  11
ATOM     11  C   UNL     1      41.045   6.484  17.785  0.00  0.00    +0.000 A 
ATOM     12  C   UNL     1      41.280   6.520  19.139  0.00  0.00    +0.000 A 
ATOM     13  C   UNL     1      42.603   6.705  19.548  0.00  0.00    +0.000 A 
ATOM     14  C   UNL     1      43.573   6.839  18.585  0.00  0.00    +0.000 A 
ATOM     15  C   UNL     1      43.298   6.797  17.245  0.00  0.00    +0.000 A 
ATOM     16  C   UNL     1      41.990   6.613  16.859  0.00  0.00    +0.000 A 
ENDBRANCH   9  11
ENDBRANCH   8   9
ENDBRANCH   4   6
BRANCH   1  17
ATOM     17  C   UNL     1      39.883  -0.027  14.377  0.00  0.00    +0.000 C 
BRANCH  17  18
ATOM     18  N   UNL     1      38.664  -0.881  14.301  0.00  0.00    +0.000 NA
BRANCH  18  19
ATOM     19  C   UNL     1      39.069  -2.042  13.516  0.00  0.00    +0.000 C 
ATOM     20  C   UNL     1      37.966  -3.096  13.620  0.00  0.00    +0.000 C 
ATOM     21  C   UNL     1      39.350  -1.731  12.099  0.00  0.00    +0.000 C 
ATOM     22  C   UNL     1      40.294  -2.690  14.165  0.00  0.00    +0.000 C 
ENDBRANCH  18  19
BRANCH  18  23
ATOM     23  C   UNL     1      38.271  -1.130  15.627  0.00  0.00    +0.000 C 
BRANCH  23  30
ATOM     24  C   UNL     1      37.561  -1.778  18.254  0.00  0.00    +0.000 C 
ATOM     25  C   UNL     1      36.713  -0.797  17.483  0.00  0.00    +0.000 A 
ATOM     26  C   UNL     1      35.618  -0.201  18.035  0.00  0.00    +0.000 A 
ATOM     27  C   UNL     1      34.836   0.705  17.314  0.00  0.00    +0.000 A 
ATOM     28  C   UNL     1      35.205   0.982  16.017  0.00  0.00    +0.000 A 
ATOM     29  C   UNL     1      36.295   0.393  15.458  0.00  0.00    +0.000 A 
ATOM     30  C   UNL     1      37.063  -0.493  16.160  0.00  0.00    +0.000 A 
ENDBRANCH  23  30
ENDBRANCH  18  23
ENDBRANCH  17  18
ENDBRANCH   1  17
TORSDOF 8
ENDMDL
MODEL 8
REMARK VINA RESULT:      -7.0     25.189     27.552
REMARK  Name = 
REMARK  8 active torsions:
REMARK  status: ('A' for Active; 'I' for Inactive)
REMARK    1  A    between atoms: C_7  and  C_8
REMARK    2  A    between atoms: C_8  and  N_9
REMARK    3  A    between atoms: N_9  and  C_10
REMARK    4  A    between atoms: N_9  and  C_27
REMARK    5  A    between atoms: C_10  and  C_11
REMARK    6  A    between atoms: C_14  and  C_15
REMARK    7  A    between atoms: N_17  and  C_18
REMARK    8  A    between atoms: C_18  and  C_20
REMARK                            x       y       z     vdW  Elec       q    Type
REMARK                         _______ _______ _______ _____ _____    ______ ____
ROOT
ATOM      1  C   UNL     1      28.916  15.878  37.187  0.00  0.00    +0.000 A 
ATOM      2  C   UNL     1      29.522  15.779  35.929  0.00  0.00    +0.000 A 
ATOM      3  C   UNL     1      30.504  14.825  36.128  0.00  0.00    +0.000 A 
ATOM      4  C   UNL     1      30.461  14.400  37.435  0.00  0.00    +0.000 A 
ATOM      5  O   UNL     1      29.491  15.068  38.009  0.00  0.00    +0.000 OA
ENDROOT
BRANCH   4   6
ATOM      6  C   UNL     1      31.302  13.397  38.126  0.00  0.00    +0.000 C 
ATOM      7  O   UNL     1      32.503  13.246  37.786  0.00  0.00    +0.000 OA
ATOM      8  N   UNL     1      30.844  12.590  39.155  0.00  0.00    +0.000 NA
BRANCH   8   9
ATOM      9  C   UNL     1      31.760  11.556  39.855  0.00  0.00    +0.000 C 
ATOM     10  C   UNL     1      32.028  12.373  41.256  0.00  0.00    +0.000 C 
BRANCH   9  11
ATOM     11  C   UNL     1      30.581  10.614  40.432  0.00  0.00    +0.000 A 
ATOM     12  C   UNL     1      29.309  11.106  40.261  0.00  0.00    +0.000 A 
ATOM     13  C   UNL     1      28.257  10.327  40.750  0.00  0.00    +0.000 A 
ATOM     14  C   UNL     1      28.555   9.135  41.363  0.00  0.00    +0.000 A 
ATOM     15  C   UNL     1      29.837   8.680  41.513  0.00  0.00    +0.000 A 
ATOM     16  C   UNL     1      30.861   9.459  41.026  0.00  0.00    +0.000 A 
ENDBRANCH   9  11
ENDBRANCH   8   9
ENDBRANCH   4   6
BRANCH   1  17
ATOM     17  C   UNL     1      27.776  16.762  37.571  0.00  0.00    +0.000 C 
BRANCH  17  18
ATOM     18  N   UNL     1      26.533  15.987  37.296  0.00  0.00    +0.000 NA
BRANCH  18  19
ATOM     19  C   UNL     1      25.882  15.850  38.594  0.00  0.00    +0.000 C 
ATOM     20  C   UNL     1      26.031  14.399  39.052  0.00  0.00    +0.000 C 
ATOM     21  C   UNL     1      26.411  16.770  39.623  0.00  0.00    +0.000 C 
ATOM     22  C   UNL     1      24.375  16.057  38.430  0.00  0.00    +0.000 C 
ENDBRANCH  18  19
BRANCH  18  23
ATOM     23  C   UNL     1      25.827  16.706  36.317  0.00  0.00    +0.000 C 
BRANCH  23  30
ATOM     24  C   UNL     1      24.751  18.374  34.346  0.00  0.00    +0.000 C 
ATOM     25  C   UNL     1      25.078  16.943  34.000  0.00  0.00    +0.000 A 
ATOM     26  C   UNL     1      24.882  16.441  32.748  0.00  0.00    +0.000 A 
ATOM     27  C   UNL     1      25.185  15.112  32.435  0.00  0.00    +0.000 A 
ATOM     28  C   UNL     1      25.693  14.318  33.437  0.00  0.00    +0.000 A 
ATOM     29  C   UNL     1      25.893  14.809  34.688  0.00  0.00    +0.000 A 
ATOM     30  C   UNL     1      25.598  16.107  34.999  0.00  0.00    +0.000 A 
ENDBRANCH  23  30
ENDBRANCH  18  23
ENDBRANCH  17  18
ENDBRANCH   1  17
TORSDOF 8
ENDMDL
MODEL 9
REMARK VINA RESULT:      -7.0      2.558      8.469
REMARK  Name = 
REMARK  8 active torsions:
REMARK  status: ('A' for Active; 'I' for Inactive)
REMARK    1  A    between atoms: C_7  and  C_8
REMARK    2  A    between atoms: C_8  and  N_9
REMARK    3  A    between atoms: N_9  and  C_10
REMARK    4  A    between atoms: N_9  and  C_27
REMARK    5  A    between atoms: C_10  and  C_11
REMARK    6  A    between atoms: C_14  and  C_15
REMARK    7  A    between atoms: N_17  and  C_18
REMARK    8  A    between atoms: C_18  and  C_20
REMARK                            x       y       z     vdW  Elec       q    Type
REMARK                         _______ _______ _______ _____ _____    ______ ____
ROOT
ATOM      1  C   UNL     1      39.333   5.705  18.097  0.00  0.00    +0.000 A 
ATOM      2  C   UNL     1      40.199   5.815  17.002  0.00  0.00    +0.000 A 
ATOM      3  C   UNL     1      39.539   5.115  16.008  0.00  0.00    +0.000 A 
ATOM      4  C   UNL     1      38.354   4.630  16.510  0.00  0.00    +0.000 A 
ATOM      5  O   UNL     1      38.295   5.018  17.759  0.00  0.00    +0.000 OA
ENDROOT
BRANCH   4   6
ATOM      6  C   UNL     1      37.307   3.827  15.838  0.00  0.00    +0.000 C 
ATOM      7  O   UNL     1      36.589   4.352  14.949  0.00  0.00    +0.000 OA
ATOM      8  N   UNL     1      37.058   2.496  16.129  0.00  0.00    +0.000 NA
BRANCH   8   9
ATOM      9  C   UNL     1      35.956   1.691  15.397  0.00  0.00    +0.000 C 
ATOM     10  C   UNL     1      36.918   0.799  14.406  0.00  0.00    +0.000 C 
BRANCH   9  11
ATOM     11  C   UNL     1      35.772   0.548  16.526  0.00  0.00    +0.000 A 
ATOM     12  C   UNL     1      35.956   0.975  17.819  0.00  0.00    +0.000 A 
ATOM     13  C   UNL     1      35.812   0.020  18.829  0.00  0.00    +0.000 A 
ATOM     14  C   UNL     1      35.501  -1.268  18.471  0.00  0.00    +0.000 A 
ATOM     15  C   UNL     1      35.326  -1.654  17.170  0.00  0.00    +0.000 A 
ATOM     16  C   UNL     1      35.470  -0.701  16.188  0.00  0.00    +0.000 A 
ENDBRANCH   9  11
ENDBRANCH   8   9
ENDBRANCH   4   6
BRANCH   1  17
ATOM     17  C   UNL     1      39.528   6.276  19.462  0.00  0.00    +0.000 C 
BRANCH  17  18
ATOM     18  N   UNL     1      40.590   7.314  19.334  0.00  0.00    +0.000 NA
BRANCH  18  19
ATOM     19  C   UNL     1      39.935   8.566  19.699  0.00  0.00    +0.000 C 
ATOM     20  C   UNL     1      38.711   8.233  20.552  0.00  0.00    +0.000 C 
ATOM     21  C   UNL     1      40.819   9.511  20.414  0.00  0.00    +0.000 C 
ATOM     22  C   UNL     1      39.369   9.227  18.441  0.00  0.00    +0.000 C 
ENDBRANCH  18  19
BRANCH  18  23
ATOM     23  C   UNL     1      41.650   6.901  20.159  0.00  0.00    +0.000 C 
BRANCH  23  30
ATOM     24  C   UNL     1      43.674   6.140  21.933  0.00  0.00    +0.000 C 
ATOM     25  C   UNL     1      44.031   6.458  20.502  0.00  0.00    +0.000 A 
ATOM     26  C   UNL     1      45.311   6.368  20.041  0.00  0.00    +0.000 A 
ATOM     27  C   UNL     1      45.634   6.666  18.714  0.00  0.00    +0.000 A 
ATOM     28  C   UNL     1      44.614   7.058  17.878  0.00  0.00    +0.000 A 
ATOM     29  C   UNL     1      43.335   7.150  18.328  0.00  0.00    +0.000 A 
ATOM     30  C   UNL     1      43.014   6.859  19.624  0.00  0.00    +0.000 A 
ENDBRANCH  23  30
ENDBRANCH  18  23
ENDBRANCH  17  18
ENDBRANCH   1  17
TORSDOF 8
ENDMDL
MODEL 10
REMARK VINA RESULT:      -6.9      2.353      4.548
REMARK  Name = 
REMARK  8 active torsions:
REMARK  status: ('A' for Active; 'I' for Inactive)
REMARK    1  A    between atoms: C_7  and  C_8
REMARK    2  A    between atoms: C_8  and  N_9
REMARK    3  A    between atoms: N_9  and  C_10
REMARK    4  A    between atoms: N_9  and  C_27
REMARK    5  A    between atoms: C_10  and  C_11
REMARK    6  A    between atoms: C_14  and  C_15
REMARK    7  A    between atoms: N_17  and  C_18
REMARK    8  A    between atoms: C_18  and  C_20
REMARK                            x       y       z     vdW  Elec       q    Type
REMARK                         _______ _______ _______ _____ _____    ______ ____
ROOT
ATOM      1  C   UNL     1      38.531   3.159  14.460  0.00  0.00    +0.000 A 
ATOM      2  C   UNL     1      37.527   4.112  14.248  0.00  0.00    +0.000 A 
ATOM      3  C   UNL     1      37.480   4.791  15.453  0.00  0.00    +0.000 A 
ATOM      4  C   UNL     1      38.411   4.253  16.309  0.00  0.00    +0.000 A 
ATOM      5  O   UNL     1      39.002   3.285  15.653  0.00  0.00    +0.000 OA
ENDROOT
BRANCH   4   6
ATOM      6  C   UNL     1      38.740   4.635  17.702  0.00  0.00    +0.000 C 
ATOM      7  O   UNL     1      38.391   3.891  18.654  0.00  0.00    +0.000 OA
ATOM      8  N   UNL     1      39.428   5.790  18.038  0.00  0.00    +0.000 NA
BRANCH   8   9
ATOM      9  C   UNL     1      39.756   6.149  19.508  0.00  0.00    +0.000 C 
ATOM     10  C   UNL     1      41.208   6.880  19.266  0.00  0.00    +0.000 C 
BRANCH   9  11
ATOM     11  C   UNL     1      38.889   7.512  19.570  0.00  0.00    +0.000 A 
ATOM     12  C   UNL     1      38.139   7.774  18.449  0.00  0.00    +0.000 A 
ATOM     13  C   UNL     1      37.378   8.946  18.455  0.00  0.00    +0.000 A 
ATOM     14  C   UNL     1      37.426   9.751  19.566  0.00  0.00    +0.000 A 
ATOM     15  C   UNL     1      38.187   9.454  20.664  0.00  0.00    +0.000 A 
ATOM     16  C   UNL     1      38.930   8.297  20.641  0.00  0.00    +0.000 A 
ENDBRANCH   9  11
ENDBRANCH   8   9
ENDBRANCH   4   6
BRANCH   1  17
ATOM     17  C   UNL     1      39.021   2.137  13.489  0.00  0.00    +0.000 C 
BRANCH  17  18
ATOM     18  N   UNL     1      37.880   1.211  13.242  0.00  0.00    +0.000 NA
BRANCH  18  19
ATOM     19  C   UNL     1      38.012   0.817  11.844  0.00  0.00    +0.000 C 
ATOM     20  C   UNL     1      38.746  -0.523  11.793  0.00  0.00    +0.000 C 
ATOM     21  C   UNL     1      36.722   0.724  11.130  0.00  0.00    +0.000 C 
ATOM     22  C   UNL     1      38.940   1.800  11.127  0.00  0.00    +0.000 C 
ENDBRANCH  18  19
BRANCH  18  23
ATOM     23  C   UNL     1      37.991   0.182  14.194  0.00  0.00    +0.000 C 
BRANCH  23  30
ATOM     24  C   UNL     1      38.542  -1.657  16.228  0.00  0.00    +0.000 C 
ATOM     25  C   UNL     1      37.289  -0.821  16.311  0.00  0.00    +0.000 A 
ATOM     26  C   UNL     1      36.423  -0.922  17.359  0.00  0.00    +0.000 A 
ATOM     27  C   UNL     1      35.262  -0.146  17.428  0.00  0.00    +0.000 A 
ATOM     28  C   UNL     1      35.016   0.732  16.397  0.00  0.00    +0.000 A 
ATOM     29  C   UNL     1      35.873   0.840  15.348  0.00  0.00    +0.000 A 
ATOM     30  C   UNL     1      37.009   0.084  15.277  0.00  0.00    +0.000 A 
ENDBRANCH  23  30
ENDBRANCH  18  23
ENDBRANCH  17  18
ENDBRANCH   1  17
TORSDOF 8
ENDMDL
