MODEL 1
REMARK VINA RESULT:      -7.1      0.000      0.000
REMARK  Name = 
REMARK  3 active torsions:
REMARK  status: ('A' for Active; 'I' for Inactive)
REMARK    1  A    between atoms: C_2  and  O_3
REMARK    2  A    between atoms: O_3  and  C_4
REMARK    3  A    between atoms: C_7  and  N_8
REMARK                            x       y       z     vdW  Elec       q    Type
REMARK                         _______ _______ _______ _____ _____    ______ ____
ROOT
ATOM      1  N   UNL     1      16.322  11.077  35.539  0.00  0.00    +0.000 N 
ATOM      2  C   UNL     1      15.157  11.775  36.032  0.00  0.00    +0.000 C 
ATOM      3  C   UNL     1      14.699  12.514  34.816  0.00  0.00    +0.000 A 
ATOM      4  C   UNL     1      13.935  13.645  34.623  0.00  0.00    +0.000 A 
ATOM      5  N   UNL     1      13.694  14.058  33.374  0.00  0.00    +0.000 NA
ATOM      6  C   UNL     1      14.150  13.436  32.273  0.00  0.00    +0.000 A 
ATOM      7  C   UNL     1      13.811  13.997  30.945  0.00  0.00    +0.000 C 
ATOM      8  C   UNL     1      14.923  12.293  32.432  0.00  0.00    +0.000 A 
ATOM      9  O   UNL     1      15.392  11.656  31.300  0.00  0.00    +0.000 OA
ATOM     10  C   UNL     1      15.180  11.856  33.711  0.00  0.00    +0.000 A 
ATOM     11  C   UNL     1      15.981  10.666  34.184  0.00  0.00    +0.000 C 
ENDROOT
BRANCH   1  15
ATOM     12  C   UNL     1      19.956  10.405  37.645  0.00  0.00    +0.000 A 
ATOM     13  C   UNL     1      19.581   9.610  36.581  0.00  0.00    +0.000 A 
ATOM     14  C   UNL     1      18.401   9.826  35.893  0.00  0.00    +0.000 A 
ATOM     15  C   UNL     1      17.543  10.847  36.243  0.00  0.00    +0.000 A 
ATOM     16  C   UNL     1      17.924  11.638  37.309  0.00  0.00    +0.000 A 
ATOM     17  C   UNL     1      19.102  11.431  38.002  0.00  0.00    +0.000 A 
BRANCH  12  18
ATOM     18  O   UNL     1      21.152  10.148  38.305  0.00  0.00    +0.000 OA
BRANCH  18  20
ATOM     19  C   UNL     1      23.045  10.846  37.006  0.00  0.00    +0.000 C 
ATOM     20  C   UNL     1      22.290   9.688  37.640  0.00  0.00    +0.000 C 
ENDBRANCH  18  20
ENDBRANCH  12  18
ENDBRANCH   1  15
TORSDOF 3
ENDMDL
MODEL 2
REMARK VINA RESULT:      -6.8      1.945      7.288
REMARK  Name = 
REMARK  3 active torsions:
REMARK  status: ('A' for Active; 'I' for Inactive)
REMARK    1  A    between atoms: C_2  and  O_3
REMARK    2  A    between atoms: O_3  and  C_4
REMARK    3  A    between atoms: C_7  and  N_8
REMARK                            x       y       z     vdW  Elec       q    Type
REMARK                         _______ _______ _______ _____ _____    ______ ____
ROOT
ATOM      1  N   UNL     1      16.833  11.430  36.271  0.00  0.00    +0.000 N 
ATOM      2  C   UNL     1      16.645  10.307  37.161  0.00  0.00    +0.000 C 
ATOM      3  C   UNL     1      17.968  10.234  37.854  0.00  0.00    +0.000 A 
ATOM      4  C   UNL     1      18.646   9.225  38.504  0.00  0.00    +0.000 A 
ATOM      5  N   UNL     1      19.844   9.490  39.038  0.00  0.00    +0.000 NA
ATOM      6  C   UNL     1      20.444  10.691  38.985  0.00  0.00    +0.000 A 
ATOM      7  C   UNL     1      21.774  10.852  39.617  0.00  0.00    +0.000 C 
ATOM      8  C   UNL     1      19.788  11.729  38.337  0.00  0.00    +0.000 A 
ATOM      9  O   UNL     1      20.407  12.963  38.284  0.00  0.00    +0.000 OA
ATOM     10  C   UNL     1      18.555  11.474  37.783  0.00  0.00    +0.000 A 
ATOM     11  C   UNL     1      17.625  12.392  37.026  0.00  0.00    +0.000 C 
ENDROOT
BRANCH   1  15
ATOM     12  C   UNL     1      15.355  11.812  32.301  0.00  0.00    +0.000 A 
ATOM     13  C   UNL     1      16.466  11.044  32.587  0.00  0.00    +0.000 A 
ATOM     14  C   UNL     1      16.949  10.917  33.876  0.00  0.00    +0.000 A 
ATOM     15  C   UNL     1      16.341  11.555  34.937  0.00  0.00    +0.000 A 
ATOM     16  C   UNL     1      15.230  12.321  34.643  0.00  0.00    +0.000 A 
ATOM     17  C   UNL     1      14.740  12.454  33.359  0.00  0.00    +0.000 A 
BRANCH  12  18
ATOM     18  O   UNL     1      14.907  11.909  30.990  0.00  0.00    +0.000 OA
BRANCH  18  20
ATOM     19  C   UNL     1      16.197  13.758  30.167  0.00  0.00    +0.000 C 
ATOM     20  C   UNL     1      14.820  13.130  30.316  0.00  0.00    +0.000 C 
ENDBRANCH  18  20
ENDBRANCH  12  18
ENDBRANCH   1  15
TORSDOF 3
ENDMDL
MODEL 3
REMARK VINA RESULT:      -6.5      4.102      8.137
REMARK  Name = 
REMARK  3 active torsions:
REMARK  status: ('A' for Active; 'I' for Inactive)
REMARK    1  A    between atoms: C_2  and  O_3
REMARK    2  A    between atoms: O_3  and  C_4
REMARK    3  A    between atoms: C_7  and  N_8
REMARK                            x       y       z     vdW  Elec       q    Type
REMARK                         _______ _______ _______ _____ _____    ______ ____
ROOT
ATOM      1  N   UNL     1      17.814   9.409  38.664  0.00  0.00    +0.000 N 
ATOM      2  C   UNL     1      17.065   9.721  39.859  0.00  0.00    +0.000 C 
ATOM      3  C   UNL     1      17.114   8.427  40.605  0.00  0.00    +0.000 A 
ATOM      4  C   UNL     1      16.322   7.861  41.581  0.00  0.00    +0.000 A 
ATOM      5  N   UNL     1      16.648   6.655  42.061  0.00  0.00    +0.000 NA
ATOM      6  C   UNL     1      17.712   5.944  41.652  0.00  0.00    +0.000 A 
ATOM      7  C   UNL     1      17.961   4.618  42.265  0.00  0.00    +0.000 C 
ATOM      8  C   UNL     1      18.531   6.484  40.669  0.00  0.00    +0.000 A 
ATOM      9  O   UNL     1      19.623   5.750  40.250  0.00  0.00    +0.000 OA
ATOM     10  C   UNL     1      18.210   7.724  40.166  0.00  0.00    +0.000 A 
ATOM     11  C   UNL     1      18.902   8.546  39.105  0.00  0.00    +0.000 C 
ENDROOT
BRANCH   1  15
ATOM     12  C   UNL     1      16.993  10.738  34.708  0.00  0.00    +0.000 A 
ATOM     13  C   UNL     1      16.413  11.339  35.806  0.00  0.00    +0.000 A 
ATOM     14  C   UNL     1      16.678  10.911  37.094  0.00  0.00    +0.000 A 
ATOM     15  C   UNL     1      17.535   9.859  37.338  0.00  0.00    +0.000 A 
ATOM     16  C   UNL     1      18.111   9.262  36.234  0.00  0.00    +0.000 A 
ATOM     17  C   UNL     1      17.854   9.683  34.944  0.00  0.00    +0.000 A 
BRANCH  12  18
ATOM     18  O   UNL     1      16.696  11.204  33.433  0.00  0.00    +0.000 OA
BRANCH  18  20
ATOM     19  C   UNL     1      15.758  10.943  31.240  0.00  0.00    +0.000 C 
ATOM     20  C   UNL     1      15.549  10.810  32.740  0.00  0.00    +0.000 C 
ENDBRANCH  18  20
ENDBRANCH  12  18
ENDBRANCH   1  15
TORSDOF 3
ENDMDL
MODEL 4
REMARK VINA RESULT:      -6.4      3.297      4.300
REMARK  Name = 
REMARK  3 active torsions:
REMARK  status: ('A' for Active; 'I' for Inactive)
REMARK    1  A    between atoms: C_2  and  O_3
REMARK    2  A    between atoms: O_3  and  C_4
REMARK    3  A    between atoms: C_7  and  N_8
REMARK                            x       y       z     vdW  Elec       q    Type
REMARK                         _______ _______ _______ _____ _____    ______ ____
ROOT
ATOM      1  N   UNL     1      16.708  11.141  36.752  0.00  0.00    +0.000 N 
ATOM      2  C   UNL     1      17.661  10.656  35.781  0.00  0.00    +0.000 C 
ATOM      3  C   UNL     1      16.926  10.858  34.495  0.00  0.00    +0.000 A 
ATOM      4  C   UNL     1      17.021  10.285  33.245  0.00  0.00    +0.000 A 
ATOM      5  N   UNL     1      16.197  10.702  32.277  0.00  0.00    +0.000 NA
ATOM      6  C   UNL     1      15.266  11.657  32.439  0.00  0.00    +0.000 A 
ATOM      7  C   UNL     1      14.415  12.027  31.284  0.00  0.00    +0.000 C 
ATOM      8  C   UNL     1      15.143  12.255  33.686  0.00  0.00    +0.000 A 
ATOM      9  O   UNL     1      14.185  13.237  33.851  0.00  0.00    +0.000 OA
ATOM     10  C   UNL     1      15.983  11.838  34.693  0.00  0.00    +0.000 A 
ATOM     11  C   UNL     1      16.076  12.296  36.129  0.00  0.00    +0.000 C 
ENDROOT
BRANCH   1  15
ATOM     12  C   UNL     1      15.930   9.516  40.605  0.00  0.00    +0.000 A 
ATOM     13  C   UNL     1      17.176   9.419  40.019  0.00  0.00    +0.000 A 
ATOM     14  C   UNL     1      17.433   9.946  38.767  0.00  0.00    +0.000 A 
ATOM     15  C   UNL     1      16.452  10.594  38.046  0.00  0.00    +0.000 A 
ATOM     16  C   UNL     1      15.208  10.686  38.638  0.00  0.00    +0.000 A 
ATOM     17  C   UNL     1      14.942  10.163  39.889  0.00  0.00    +0.000 A 
BRANCH  12  18
ATOM     18  O   UNL     1      15.721   8.970  41.865  0.00  0.00    +0.000 OA
BRANCH  18  20
ATOM     19  C   UNL     1      16.413  10.300  43.738  0.00  0.00    +0.000 C 
ATOM     20  C   UNL     1      16.666   9.064  42.889  0.00  0.00    +0.000 C 
ENDBRANCH  18  20
ENDBRANCH  12  18
ENDBRANCH   1  15
TORSDOF 3
ENDMDL
MODEL 5
REMARK VINA RESULT:      -6.3      1.536      2.461
REMARK  Name = 
REMARK  3 active torsions:
REMARK  status: ('A' for Active; 'I' for Inactive)
REMARK    1  A    between atoms: C_2  and  O_3
REMARK    2  A    between atoms: O_3  and  C_4
REMARK    3  A    between atoms: C_7  and  N_8
REMARK                            x       y       z     vdW  Elec       q    Type
REMARK                         _______ _______ _______ _____ _____    ______ ____
ROOT
ATOM      1  N   UNL     1      18.369  10.174  36.533  0.00  0.00    +0.000 N 
ATOM      2  C   UNL     1      17.111  10.572  37.120  0.00  0.00    +0.000 C 
ATOM      3  C   UNL     1      16.371  11.108  35.937  0.00  0.00    +0.000 A 
ATOM      4  C   UNL     1      15.325  11.994  35.791  0.00  0.00    +0.000 A 
ATOM      5  N   UNL     1      14.876  12.269  34.561  0.00  0.00    +0.000 NA
ATOM      6  C   UNL     1      15.380  11.732  33.437  0.00  0.00    +0.000 A 
ATOM      7  C   UNL     1      14.791  12.121  32.135  0.00  0.00    +0.000 C 
ATOM      8  C   UNL     1      16.435  10.835  33.548  0.00  0.00    +0.000 A 
ATOM      9  O   UNL     1      16.952  10.286  32.391  0.00  0.00    +0.000 OA
ATOM     10  C   UNL     1      16.908  10.542  34.806  0.00  0.00    +0.000 A 
ATOM     11  C   UNL     1      18.030   9.623  35.228  0.00  0.00    +0.000 C 
ENDROOT
BRANCH   1  15
ATOM     12  C   UNL     1      22.223  10.561  38.292  0.00  0.00    +0.000 A 
ATOM     13  C   UNL     1      22.029   9.841  37.130  0.00  0.00    +0.000 A 
ATOM     14  C   UNL     1      20.778   9.714  36.555  0.00  0.00    +0.000 A 
ATOM     15  C   UNL     1      19.665  10.301  37.120  0.00  0.00    +0.000 A 
ATOM     16  C   UNL     1      19.867  11.018  38.282  0.00  0.00    +0.000 A 
ATOM     17  C   UNL     1      21.112  11.152  38.864  0.00  0.00    +0.000 A 
BRANCH  12  18
ATOM     18  O   UNL     1      23.499  10.660  38.832  0.00  0.00    +0.000 OA
BRANCH  18  20
ATOM     19  C   UNL     1      24.587  12.503  37.747  0.00  0.00    +0.000 C 
ATOM     20  C   UNL     1      24.123  11.889  39.059  0.00  0.00    +0.000 C 
ENDBRANCH  18  20
ENDBRANCH  12  18
ENDBRANCH   1  15
TORSDOF 3
ENDMDL
MODEL 6
REMARK VINA RESULT:      -6.2      2.418      7.660
REMARK  Name = 
REMARK  3 active torsions:
REMARK  status: ('A' for Active; 'I' for Inactive)
REMARK    1  A    between atoms: C_2  and  O_3
REMARK    2  A    between atoms: O_3  and  C_4
REMARK    3  A    between atoms: C_7  and  N_8
REMARK                            x       y       z     vdW  Elec       q    Type
REMARK                         _______ _______ _______ _____ _____    ______ ____
ROOT
ATOM      1  N   UNL     1      17.546  10.772  37.040  0.00  0.00    +0.000 N 
ATOM      2  C   UNL     1      16.729  10.567  38.213  0.00  0.00    +0.000 C 
ATOM      3  C   UNL     1      17.607   9.697  39.055  0.00  0.00    +0.000 A 
ATOM      4  C   UNL     1      17.362   8.805  40.078  0.00  0.00    +0.000 A 
ATOM      5  N   UNL     1      18.395   8.171  40.644  0.00  0.00    +0.000 NA
ATOM      6  C   UNL     1      19.677   8.345  40.282  0.00  0.00    +0.000 A 
ATOM      7  C   UNL     1      20.729   7.580  40.992  0.00  0.00    +0.000 C 
ATOM      8  C   UNL     1      19.959   9.236  39.255  0.00  0.00    +0.000 A 
ATOM      9  O   UNL     1      21.277   9.412  38.884  0.00  0.00    +0.000 OA
ATOM     10  C   UNL     1      18.908   9.896  38.661  0.00  0.00    +0.000 A 
ATOM     11  C   UNL     1      18.909  10.903  37.536  0.00  0.00    +0.000 C 
ENDROOT
BRANCH   1  15
ATOM     12  C   UNL     1      16.220  10.940  33.002  0.00  0.00    +0.000 A 
ATOM     13  C   UNL     1      15.587  11.654  33.999  0.00  0.00    +0.000 A 
ATOM     14  C   UNL     1      16.015  11.603  35.313  0.00  0.00    +0.000 A 
ATOM     15  C   UNL     1      17.097  10.832  35.685  0.00  0.00    +0.000 A 
ATOM     16  C   UNL     1      17.724  10.120  34.682  0.00  0.00    +0.000 A 
ATOM     17  C   UNL     1      17.304  10.166  33.367  0.00  0.00    +0.000 A 
BRANCH  12  18
ATOM     18  O   UNL     1      15.752  11.024  31.696  0.00  0.00    +0.000 OA
BRANCH  18  20
ATOM     19  C   UNL     1      14.665  12.815  30.526  0.00  0.00    +0.000 C 
ATOM     20  C   UNL     1      14.505  11.568  31.381  0.00  0.00    +0.000 C 
ENDBRANCH  18  20
ENDBRANCH  12  18
ENDBRANCH   1  15
TORSDOF 3
ENDMDL
MODEL 7
REMARK VINA RESULT:      -6.2      5.020      6.193
REMARK  Name = 
REMARK  3 active torsions:
REMARK  status: ('A' for Active; 'I' for Inactive)
REMARK    1  A    between atoms: C_2  and  O_3
REMARK    2  A    between atoms: O_3  and  C_4
REMARK    3  A    between atoms: C_7  and  N_8
REMARK                            x       y       z     vdW  Elec       q    Type
REMARK                         _______ _______ _______ _____ _____    ______ ____
ROOT
ATOM      1  N   UNL     1      17.246   9.014  39.981  0.00  0.00    +0.000 N 
ATOM      2  C   UNL     1      17.924   9.929  39.093  0.00  0.00    +0.000 C 
ATOM      3  C   UNL     1      16.786  10.522  38.328  0.00  0.00    +0.000 A 
ATOM      4  C   UNL     1      16.684  11.133  37.096  0.00  0.00    +0.000 A 
ATOM      5  N   UNL     1      15.488  11.572  36.688  0.00  0.00    +0.000 NA
ATOM      6  C   UNL     1      14.358  11.460  37.407  0.00  0.00    +0.000 A 
ATOM      7  C   UNL     1      13.096  11.989  36.839  0.00  0.00    +0.000 C 
ATOM      8  C   UNL     1      14.425  10.849  38.652  0.00  0.00    +0.000 A 
ATOM      9  O   UNL     1      13.263  10.734  39.389  0.00  0.00    +0.000 OA
ATOM     10  C   UNL     1      15.648  10.392  39.086  0.00  0.00    +0.000 A 
ATOM     11  C   UNL     1      16.019   9.695  40.373  0.00  0.00    +0.000 C 
ENDROOT
BRANCH   1  15
ATOM     12  C   UNL     1      18.571   5.153  41.178  0.00  0.00    +0.000 A 
ATOM     13  C   UNL     1      19.319   5.942  40.328  0.00  0.00    +0.000 A 
ATOM     14  C   UNL     1      18.893   7.197  39.937  0.00  0.00    +0.000 A 
ATOM     15  C   UNL     1      17.695   7.718  40.380  0.00  0.00    +0.000 A 
ATOM     16  C   UNL     1      16.951   6.923  41.230  0.00  0.00    +0.000 A 
ATOM     17  C   UNL     1      17.370   5.668  41.627  0.00  0.00    +0.000 A 
BRANCH  12  18
ATOM     18  O   UNL     1      19.042   3.898  41.543  0.00  0.00    +0.000 OA
BRANCH  18  20
ATOM     19  C   UNL     1      21.063   2.703  41.048  0.00  0.00    +0.000 C 
ATOM     20  C   UNL     1      19.639   3.027  40.628  0.00  0.00    +0.000 C 
ENDBRANCH  18  20
ENDBRANCH  12  18
ENDBRANCH   1  15
TORSDOF 3
ENDMDL
MODEL 8
REMARK VINA RESULT:      -6.1      4.171      5.432
REMARK  Name = 
REMARK  3 active torsions:
REMARK  status: ('A' for Active; 'I' for Inactive)
REMARK    1  A    between atoms: C_2  and  O_3
REMARK    2  A    between atoms: O_3  and  C_4
REMARK    3  A    between atoms: C_7  and  N_8
REMARK                            x       y       z     vdW  Elec       q    Type
REMARK                         _______ _______ _______ _____ _____    ______ ____
ROOT
ATOM      1  N   UNL     1      17.663  10.097  38.163  0.00  0.00    +0.000 N 
ATOM      2  C   UNL     1      18.579   9.747  37.103  0.00  0.00    +0.000 C 
ATOM      3  C   UNL     1      17.817  10.158  35.884  0.00  0.00    +0.000 A 
ATOM      4  C   UNL     1      17.867   9.780  34.559  0.00  0.00    +0.000 A 
ATOM      5  N   UNL     1      17.030  10.356  33.690  0.00  0.00    +0.000 NA
ATOM      6  C   UNL     1      16.127  11.294  34.021  0.00  0.00    +0.000 A 
ATOM      7  C   UNL     1      15.256  11.853  32.960  0.00  0.00    +0.000 C 
ATOM      8  C   UNL     1      16.049  11.697  35.348  0.00  0.00    +0.000 A 
ATOM      9  O   UNL     1      15.119  12.661  35.687  0.00  0.00    +0.000 OA
ATOM     10  C   UNL     1      16.904  11.115  36.255  0.00  0.00    +0.000 A 
ATOM     11  C   UNL     1      17.043  11.346  37.741  0.00  0.00    +0.000 C 
ENDROOT
BRANCH   1  15
ATOM     12  C   UNL     1      16.968   7.904  41.741  0.00  0.00    +0.000 A 
ATOM     13  C   UNL     1      16.153   8.954  41.368  0.00  0.00    +0.000 A 
ATOM     14  C   UNL     1      16.375   9.669  40.206  0.00  0.00    +0.000 A 
ATOM     15  C   UNL     1      17.425   9.364  39.366  0.00  0.00    +0.000 A 
ATOM     16  C   UNL     1      18.236   8.313  39.745  0.00  0.00    +0.000 A 
ATOM     17  C   UNL     1      18.022   7.592  40.904  0.00  0.00    +0.000 A 
BRANCH  12  18
ATOM     18  O   UNL     1      16.704   7.216  42.919  0.00  0.00    +0.000 OA
BRANCH  18  20
ATOM     19  C   UNL     1      15.179   6.687  44.695  0.00  0.00    +0.000 C 
ATOM     20  C   UNL     1      15.952   7.769  43.958  0.00  0.00    +0.000 C 
ENDBRANCH  18  20
ENDBRANCH  12  18
ENDBRANCH   1  15
TORSDOF 3
ENDMDL
MODEL 9
REMARK VINA RESULT:      -5.9      2.157      3.851
REMARK  Name = 
REMARK  3 active torsions:
REMARK  status: ('A' for Active; 'I' for Inactive)
REMARK    1  A    between atoms: C_2  and  O_3
REMARK    2  A    between atoms: O_3  and  C_4
REMARK    3  A    between atoms: C_7  and  N_8
REMARK                            x       y       z     vdW  Elec       q    Type
REMARK                         _______ _______ _______ _____ _____    ______ ____
ROOT
ATOM      1  N   UNL     1      19.701  10.040  36.955  0.00  0.00    +0.000 N 
ATOM      2  C   UNL     1      18.647  10.297  37.908  0.00  0.00    +0.000 C 
ATOM      3  C   UNL     1      17.557  10.826  37.032  0.00  0.00    +0.000 A 
ATOM      4  C   UNL     1      16.457  11.624  37.261  0.00  0.00    +0.000 A 
ATOM      5  N   UNL     1      15.649  11.921  36.237  0.00  0.00    +0.000 NA
ATOM      6  C   UNL     1      15.836  11.488  34.979  0.00  0.00    +0.000 A 
ATOM      7  C   UNL     1      14.865  11.890  33.934  0.00  0.00    +0.000 C 
ATOM      8  C   UNL     1      16.935  10.682  34.713  0.00  0.00    +0.000 A 
ATOM      9  O   UNL     1      17.126  10.238  33.420  0.00  0.00    +0.000 OA
ATOM     10  C   UNL     1      17.776  10.367  35.756  0.00  0.00    +0.000 A 
ATOM     11  C   UNL     1      19.032   9.528  35.767  0.00  0.00    +0.000 C 
ENDROOT
BRANCH   1  15
ATOM     12  C   UNL     1      23.866  10.673  37.548  0.00  0.00    +0.000 A 
ATOM     13  C   UNL     1      23.399   9.712  36.674  0.00  0.00    +0.000 A 
ATOM     14  C   UNL     1      22.047   9.503  36.478  0.00  0.00    +0.000 A 
ATOM     15  C   UNL     1      21.101  10.249  37.151  0.00  0.00    +0.000 A 
ATOM     16  C   UNL     1      21.575  11.208  38.023  0.00  0.00    +0.000 A 
ATOM     17  C   UNL     1      22.924  11.424  38.225  0.00  0.00    +0.000 A 
BRANCH  12  18
ATOM     18  O   UNL     1      25.235  10.845  37.711  0.00  0.00    +0.000 OA
BRANCH  18  20
ATOM     19  C   UNL     1      27.164   9.434  37.918  0.00  0.00    +0.000 C 
ATOM     20  C   UNL     1      25.982  10.088  38.616  0.00  0.00    +0.000 C 
ENDBRANCH  18  20
ENDBRANCH  12  18
ENDBRANCH   1  15
TORSDOF 3
ENDMDL
MODEL 10
REMARK VINA RESULT:      -5.9     18.652     19.940
REMARK  Name = 
REMARK  3 active torsions:
REMARK  status: ('A' for Active; 'I' for Inactive)
REMARK    1  A    between atoms: C_2  and  O_3
REMARK    2  A    between atoms: O_3  and  C_4
REMARK    3  A    between atoms: C_7  and  N_8
REMARK                            x       y       z     vdW  Elec       q    Type
REMARK                         _______ _______ _______ _____ _____    ______ ____
ROOT
ATOM      1  N   UNL     1      27.079  24.089  24.555  0.00  0.00    +0.000 N 
ATOM      2  C   UNL     1      26.263  25.210  24.150  0.00  0.00    +0.000 C 
ATOM      3  C   UNL     1      27.098  25.830  23.076  0.00  0.00    +0.000 A 
ATOM      4  C   UNL     1      27.166  27.097  22.537  0.00  0.00    +0.000 A 
ATOM      5  N   UNL     1      28.042  27.337  21.555  0.00  0.00    +0.000 NA
ATOM      6  C   UNL     1      28.874  26.413  21.045  0.00  0.00    +0.000 A 
ATOM      7  C   UNL     1      29.798  26.809  19.956  0.00  0.00    +0.000 C 
ATOM      8  C   UNL     1      28.832  25.127  21.565  0.00  0.00    +0.000 A 
ATOM      9  O   UNL     1      29.690  24.179  21.040  0.00  0.00    +0.000 OA
ATOM     10  C   UNL     1      27.937  24.864  22.576  0.00  0.00    +0.000 A 
ATOM     11  C   UNL     1      27.674  23.580  23.327  0.00  0.00    +0.000 C 
ENDROOT
BRANCH   1  15
ATOM     12  C   UNL     1      27.618  22.613  28.508  0.00  0.00    +0.000 A 
ATOM     13  C   UNL     1      26.513  23.365  28.163  0.00  0.00    +0.000 A 
ATOM     14  C   UNL     1      26.334  23.846  26.879  0.00  0.00    +0.000 A 
ATOM     15  C   UNL     1      27.256  23.596  25.884  0.00  0.00    +0.000 A 
ATOM     16  C   UNL     1      28.358  22.844  26.237  0.00  0.00    +0.000 A 
ATOM     17  C   UNL     1      28.546  22.358  27.517  0.00  0.00    +0.000 A 
BRANCH  12  18
ATOM     18  O   UNL     1      27.753  22.153  29.812  0.00  0.00    +0.000 OA
BRANCH  18  20
ATOM     19  C   UNL     1      28.753  23.968  31.020  0.00  0.00    +0.000 C 
ATOM     20  C   UNL     1      28.836  22.503  30.622  0.00  0.00    +0.000 C 
ENDBRANCH  18  20
ENDBRANCH  12  18
ENDBRANCH   1  15
TORSDOF 3
ENDMDL
