MODEL 1
REMARK VINA RESULT:      -8.4      0.000      0.000
REMARK  Name = 
REMARK  8 active torsions:
REMARK  status: ('A' for Active; 'I' for Inactive)
REMARK    1  A    between atoms: C_2  and  C_5
REMARK    2  A    between atoms: C_8  and  N_9
REMARK    3  A    between atoms: C_10  and  C_12
REMARK    4  A    between atoms: C_12  and  O_13
REMARK    5  A    between atoms: O_13  and  C_14
REMARK    6  A    between atoms: C_14  and  C_16
REMARK    7  A    between atoms: C_21  and  N_22
REMARK    8  A    between atoms: N_22  and  C_23
REMARK                            x       y       z     vdW  Elec       q    Type
REMARK                         _______ _______ _______ _____ _____    ______ ____
ROOT
ATOM      1  O   UNL     1      37.281   2.418  15.914  0.00  0.00    +0.000 OA
ENDROOT
BRANCH   1   2
ATOM      2  C   UNL     1      36.297   1.499  16.132  0.00  0.00    +0.000 C 
ATOM      3  O   UNL     1      35.192   1.654  15.523  0.00  0.00    +0.000 OA
BRANCH   2   4
ATOM      4  C   UNL     1      36.419   0.365  17.000  0.00  0.00    +0.000 A 
ATOM      5  C   UNL     1      36.051   0.516  18.341  0.00  0.00    +0.000 A 
ATOM      6  C   UNL     1      36.165  -0.473  19.283  0.00  0.00    +0.000 A 
ATOM      7  C   UNL     1      36.665  -1.697  18.924  0.00  0.00    +0.000 A 
ATOM      8  C   UNL     1      37.028  -1.846  17.604  0.00  0.00    +0.000 A 
ATOM      9  C   UNL     1      36.917  -0.852  16.640  0.00  0.00    +0.000 A 
BRANCH   9  10
ATOM     10  N   UNL     1      37.255  -1.104  15.270  0.00  0.00    +0.000 NA
BRANCH  10  11
ATOM     11  C   UNL     1      38.676  -1.263  15.046  0.00  0.00    +0.000 A 
ATOM     12  C   UNL     1      39.342  -2.458  15.174  0.00  0.00    +0.000 A 
ATOM     13  C   UNL     1      40.714  -2.537  14.908  0.00  0.00    +0.000 A 
ATOM     14  C   UNL     1      41.403  -1.390  14.505  0.00  0.00    +0.000 A 
ATOM     15  C   UNL     1      40.749  -0.174  14.370  0.00  0.00    +0.000 A 
ATOM     16  C   UNL     1      39.377  -0.148  14.652  0.00  0.00    +0.000 A 
ENDBRANCH  10  11
ENDBRANCH   9  10
ENDBRANCH   2   4
ENDBRANCH   1   2
BRANCH   1  17
ATOM     17  C   UNL     1      36.880   3.782  16.316  0.00  0.00    +0.000 C 
BRANCH  17  19
ATOM     18  N   UNL     1      38.704   5.501  16.877  0.00  0.00    +0.000 NA
ATOM     19  C   UNL     1      37.986   4.324  17.173  0.00  0.00    +0.000 C 
ATOM     20  O   UNL     1      38.268   3.682  18.215  0.00  0.00    +0.000 OA
BRANCH  18  24
ATOM     21  C   UNL     1      41.840   6.669  19.403  0.00  0.00    +0.000 A 
ATOM     22  C   UNL     1      42.037   6.476  18.066  0.00  0.00    +0.000 A 
ATOM     23  C   UNL     1      40.994   6.106  17.211  0.00  0.00    +0.000 A 
ATOM     24  C   UNL     1      39.727   5.932  17.765  0.00  0.00    +0.000 A 
ATOM     25  C   UNL     1      39.497   6.114  19.099  0.00  0.00    +0.000 A 
ATOM     26  C   UNL     1      40.569   6.486  19.924  0.00  0.00    +0.000 A 
BRANCH  21  28
ATOM     27  C   UNL     1      43.097   6.017  21.342  0.00  0.00    +0.000 C 
ATOM     28  C   UNL     1      42.986   7.083  20.249  0.00  0.00    +0.000 C 
ATOM     29  C   UNL     1      44.283   6.973  19.460  0.00  0.00    +0.000 C 
ATOM     30  C   UNL     1      42.814   8.464  20.823  0.00  0.00    +0.000 C 
ENDBRANCH  21  28
ENDBRANCH  18  24
ENDBRANCH  17  19
ENDBRANCH   1  17
TORSDOF 8
ENDMDL
MODEL 2
REMARK VINA RESULT:      -8.1      2.201      3.065
REMARK  Name = 
REMARK  8 active torsions:
REMARK  status: ('A' for Active; 'I' for Inactive)
REMARK    1  A    between atoms: C_2  and  C_5
REMARK    2  A    between atoms: C_8  and  N_9
REMARK    3  A    between atoms: C_10  and  C_12
REMARK    4  A    between atoms: C_12  and  O_13
REMARK    5  A    between atoms: O_13  and  C_14
REMARK    6  A    between atoms: C_14  and  C_16
REMARK    7  A    between atoms: C_21  and  N_22
REMARK    8  A    between atoms: N_22  and  C_23
REMARK                            x       y       z     vdW  Elec       q    Type
REMARK                         _______ _______ _______ _____ _____    ______ ____
ROOT
ATOM      1  O   UNL     1      37.960   2.372  13.053  0.00  0.00    +0.000 OA
ENDROOT
BRANCH   1   2
ATOM      2  C   UNL     1      36.968   1.496  13.381  0.00  0.00    +0.000 C 
ATOM      3  O   UNL     1      36.508   0.746  12.464  0.00  0.00    +0.000 OA
BRANCH   2   4
ATOM      4  C   UNL     1      36.403   1.358  14.691  0.00  0.00    +0.000 A 
ATOM      5  C   UNL     1      35.233   2.065  14.986  0.00  0.00    +0.000 A 
ATOM      6  C   UNL     1      34.622   2.059  16.212  0.00  0.00    +0.000 A 
ATOM      7  C   UNL     1      35.161   1.323  17.235  0.00  0.00    +0.000 A 
ATOM      8  C   UNL     1      36.312   0.626  16.945  0.00  0.00    +0.000 A 
ATOM      9  C   UNL     1      36.941   0.625  15.707  0.00  0.00    +0.000 A 
BRANCH   9  10
ATOM     10  N   UNL     1      38.103  -0.180  15.464  0.00  0.00    +0.000 NA
BRANCH  10  11
ATOM     11  C   UNL     1      37.891  -1.590  15.710  0.00  0.00    +0.000 A 
ATOM     12  C   UNL     1      36.914  -2.336  15.096  0.00  0.00    +0.000 A 
ATOM     13  C   UNL     1      36.792  -3.704  15.363  0.00  0.00    +0.000 A 
ATOM     14  C   UNL     1      37.678  -4.311  16.257  0.00  0.00    +0.000 A 
ATOM     15  C   UNL     1      38.672  -3.575  16.888  0.00  0.00    +0.000 A 
ATOM     16  C   UNL     1      38.748  -2.209  16.589  0.00  0.00    +0.000 A 
ENDBRANCH  10  11
ENDBRANCH   9  10
ENDBRANCH   2   4
ENDBRANCH   1   2
BRANCH   1  17
ATOM     17  C   UNL     1      37.471   3.760  12.925  0.00  0.00    +0.000 C 
BRANCH  17  19
ATOM     18  N   UNL     1      38.912   4.027  15.033  0.00  0.00    +0.000 NA
ATOM     19  C   UNL     1      37.904   4.489  14.163  0.00  0.00    +0.000 C 
ATOM     20  O   UNL     1      37.328   5.576  14.417  0.00  0.00    +0.000 OA
BRANCH  18  24
ATOM     21  C   UNL     1      40.097   6.310  18.345  0.00  0.00    +0.000 A 
ATOM     22  C   UNL     1      40.702   6.452  17.129  0.00  0.00    +0.000 A 
ATOM     23  C   UNL     1      40.301   5.711  16.013  0.00  0.00    +0.000 A 
ATOM     24  C   UNL     1      39.254   4.804  16.174  0.00  0.00    +0.000 A 
ATOM     25  C   UNL     1      38.632   4.635  17.377  0.00  0.00    +0.000 A 
ATOM     26  C   UNL     1      39.061   5.399  18.473  0.00  0.00    +0.000 A 
BRANCH  21  28
ATOM     27  C   UNL     1      39.317   7.378  20.348  0.00  0.00    +0.000 C 
ATOM     28  C   UNL     1      40.557   7.145  19.482  0.00  0.00    +0.000 C 
ATOM     29  C   UNL     1      41.508   6.348  20.363  0.00  0.00    +0.000 C 
ATOM     30  C   UNL     1      41.184   8.438  19.035  0.00  0.00    +0.000 C 
ENDBRANCH  21  28
ENDBRANCH  18  24
ENDBRANCH  17  19
ENDBRANCH   1  17
TORSDOF 8
ENDMDL
MODEL 3
REMARK VINA RESULT:      -8.0      1.535      2.266
REMARK  Name = 
REMARK  8 active torsions:
REMARK  status: ('A' for Active; 'I' for Inactive)
REMARK    1  A    between atoms: C_2  and  C_5
REMARK    2  A    between atoms: C_8  and  N_9
REMARK    3  A    between atoms: C_10  and  C_12
REMARK    4  A    between atoms: C_12  and  O_13
REMARK    5  A    between atoms: O_13  and  C_14
REMARK    6  A    between atoms: C_14  and  C_16
REMARK    7  A    between atoms: C_21  and  N_22
REMARK    8  A    between atoms: N_22  and  C_23
REMARK                            x       y       z     vdW  Elec       q    Type
REMARK                         _______ _______ _______ _____ _____    ______ ____
ROOT
ATOM      1  O   UNL     1      35.533   1.434  16.252  0.00  0.00    +0.000 OA
ENDROOT
BRANCH   1   2
ATOM      2  C   UNL     1      36.058   0.449  17.035  0.00  0.00    +0.000 C 
ATOM      3  O   UNL     1      36.594   0.786  18.137  0.00  0.00    +0.000 OA
BRANCH   2   4
ATOM      4  C   UNL     1      36.049  -0.946  16.704  0.00  0.00    +0.000 A 
ATOM      5  C   UNL     1      34.815  -1.598  16.618  0.00  0.00    +0.000 A 
ATOM      6  C   UNL     1      34.671  -2.936  16.360  0.00  0.00    +0.000 A 
ATOM      7  C   UNL     1      35.783  -3.713  16.167  0.00  0.00    +0.000 A 
ATOM      8  C   UNL     1      36.998  -3.071  16.252  0.00  0.00    +0.000 A 
ATOM      9  C   UNL     1      37.157  -1.716  16.513  0.00  0.00    +0.000 A 
BRANCH   9  10
ATOM     10  N   UNL     1      38.455  -1.108  16.521  0.00  0.00    +0.000 NA
BRANCH  10  11
ATOM     11  C   UNL     1      39.255  -1.439  15.361  0.00  0.00    +0.000 A 
ATOM     12  C   UNL     1      40.256  -2.381  15.365  0.00  0.00    +0.000 A 
ATOM     13  C   UNL     1      40.965  -2.668  14.193  0.00  0.00    +0.000 A 
ATOM     14  C   UNL     1      40.642  -1.993  13.013  0.00  0.00    +0.000 A 
ATOM     15  C   UNL     1      39.635  -1.039  12.988  0.00  0.00    +0.000 A 
ATOM     16  C   UNL     1      38.959  -0.786  14.188  0.00  0.00    +0.000 A 
ENDBRANCH  10  11
ENDBRANCH   9  10
ENDBRANCH   2   4
ENDBRANCH   1   2
BRANCH   1  17
ATOM     17  C   UNL     1      36.427   1.807  15.136  0.00  0.00    +0.000 C 
BRANCH  17  19
ATOM     18  N   UNL     1      37.168   3.870  16.472  0.00  0.00    +0.000 NA
ATOM     19  C   UNL     1      37.467   2.728  15.702  0.00  0.00    +0.000 C 
ATOM     20  O   UNL     1      38.668   2.443  15.472  0.00  0.00    +0.000 OA
BRANCH  18  24
ATOM     21  C   UNL     1      40.408   6.183  17.792  0.00  0.00    +0.000 A 
ATOM     22  C   UNL     1      40.062   6.128  16.472  0.00  0.00    +0.000 A 
ATOM     23  C   UNL     1      38.972   5.376  16.024  0.00  0.00    +0.000 A 
ATOM     24  C   UNL     1      38.234   4.668  16.972  0.00  0.00    +0.000 A 
ATOM     25  C   UNL     1      38.555   4.699  18.298  0.00  0.00    +0.000 A 
ATOM     26  C   UNL     1      39.655   5.466  18.709  0.00  0.00    +0.000 A 
BRANCH  21  28
ATOM     27  C   UNL     1      41.841   6.648  19.660  0.00  0.00    +0.000 C 
ATOM     28  C   UNL     1      41.562   7.019  18.202  0.00  0.00    +0.000 C 
ATOM     29  C   UNL     1      42.810   6.593  17.442  0.00  0.00    +0.000 C 
ATOM     30  C   UNL     1      41.300   8.492  18.035  0.00  0.00    +0.000 C 
ENDBRANCH  21  28
ENDBRANCH  18  24
ENDBRANCH  17  19
ENDBRANCH   1  17
TORSDOF 8
ENDMDL
MODEL 4
REMARK VINA RESULT:      -8.0      1.516      3.844
REMARK  Name = 
REMARK  8 active torsions:
REMARK  status: ('A' for Active; 'I' for Inactive)
REMARK    1  A    between atoms: C_2  and  C_5
REMARK    2  A    between atoms: C_8  and  N_9
REMARK    3  A    between atoms: C_10  and  C_12
REMARK    4  A    between atoms: C_12  and  O_13
REMARK    5  A    between atoms: O_13  and  C_14
REMARK    6  A    between atoms: C_14  and  C_16
REMARK    7  A    between atoms: C_21  and  N_22
REMARK    8  A    between atoms: N_22  and  C_23
REMARK                            x       y       z     vdW  Elec       q    Type
REMARK                         _______ _______ _______ _____ _____    ______ ____
ROOT
ATOM      1  O   UNL     1      36.629   1.872  14.382  0.00  0.00    +0.000 OA
ENDROOT
BRANCH   1   2
ATOM      2  C   UNL     1      37.302   0.955  13.630  0.00  0.00    +0.000 C 
ATOM      3  O   UNL     1      36.907   0.756  12.439  0.00  0.00    +0.000 OA
BRANCH   2   4
ATOM      4  C   UNL     1      38.428   0.196  14.088  0.00  0.00    +0.000 A 
ATOM      5  C   UNL     1      39.711   0.661  13.778  0.00  0.00    +0.000 A 
ATOM      6  C   UNL     1      40.866   0.004  14.112  0.00  0.00    +0.000 A 
ATOM      7  C   UNL     1      40.798  -1.182  14.794  0.00  0.00    +0.000 A 
ATOM      8  C   UNL     1      39.537  -1.640  15.099  0.00  0.00    +0.000 A 
ATOM      9  C   UNL     1      38.358  -0.984  14.766  0.00  0.00    +0.000 A 
BRANCH   9  10
ATOM     10  N   UNL     1      37.083  -1.493  15.177  0.00  0.00    +0.000 NA
BRANCH  10  11
ATOM     11  C   UNL     1      36.759  -1.194  16.556  0.00  0.00    +0.000 A 
ATOM     12  C   UNL     1      37.481  -1.658  17.629  0.00  0.00    +0.000 A 
ATOM     13  C   UNL     1      37.123  -1.298  18.934  0.00  0.00    +0.000 A 
ATOM     14  C   UNL     1      36.026  -0.456  19.137  0.00  0.00    +0.000 A 
ATOM     15  C   UNL     1      35.285   0.022  18.066  0.00  0.00    +0.000 A 
ATOM     16  C   UNL     1      35.682  -0.371  16.782  0.00  0.00    +0.000 A 
ENDBRANCH  10  11
ENDBRANCH   9  10
ENDBRANCH   2   4
ENDBRANCH   1   2
BRANCH   1  17
ATOM     17  C   UNL     1      36.699   3.234  13.811  0.00  0.00    +0.000 C 
BRANCH  17  19
ATOM     18  N   UNL     1      38.421   3.645  15.670  0.00  0.00    +0.000 NA
ATOM     19  C   UNL     1      37.384   4.096  14.829  0.00  0.00    +0.000 C 
ATOM     20  O   UNL     1      37.003   5.290  14.916  0.00  0.00    +0.000 OA
BRANCH  18  24
ATOM     21  C   UNL     1      39.996   6.335  18.475  0.00  0.00    +0.000 A 
ATOM     22  C   UNL     1      39.051   5.413  18.825  0.00  0.00    +0.000 A 
ATOM     23  C   UNL     1      38.534   4.498  17.902  0.00  0.00    +0.000 A 
ATOM     24  C   UNL     1      39.011   4.551  16.593  0.00  0.00    +0.000 A 
ATOM     25  C   UNL     1      39.953   5.463  16.211  0.00  0.00    +0.000 A 
ATOM     26  C   UNL     1      40.449   6.363  17.166  0.00  0.00    +0.000 A 
BRANCH  21  28
ATOM     27  C   UNL     1      41.597   6.475  20.258  0.00  0.00    +0.000 C 
ATOM     28  C   UNL     1      40.519   7.261  19.509  0.00  0.00    +0.000 C 
ATOM     29  C   UNL     1      41.260   8.414  18.849  0.00  0.00    +0.000 C 
ATOM     30  C   UNL     1      39.443   7.764  20.435  0.00  0.00    +0.000 C 
ENDBRANCH  21  28
ENDBRANCH  18  24
ENDBRANCH  17  19
ENDBRANCH   1  17
TORSDOF 8
ENDMDL
MODEL 5
REMARK VINA RESULT:      -7.9      2.246      2.795
REMARK  Name = 
REMARK  8 active torsions:
REMARK  status: ('A' for Active; 'I' for Inactive)
REMARK    1  A    between atoms: C_2  and  C_5
REMARK    2  A    between atoms: C_8  and  N_9
REMARK    3  A    between atoms: C_10  and  C_12
REMARK    4  A    between atoms: C_12  and  O_13
REMARK    5  A    between atoms: O_13  and  C_14
REMARK    6  A    between atoms: C_14  and  C_16
REMARK    7  A    between atoms: C_21  and  N_22
REMARK    8  A    between atoms: N_22  and  C_23
REMARK                            x       y       z     vdW  Elec       q    Type
REMARK                         _______ _______ _______ _____ _____    ______ ____
ROOT
ATOM      1  O   UNL     1      37.793   0.778  15.563  0.00  0.00    +0.000 OA
ENDROOT
BRANCH   1   2
ATOM      2  C   UNL     1      37.098  -0.311  15.999  0.00  0.00    +0.000 C 
ATOM      3  O   UNL     1      35.855  -0.368  15.740  0.00  0.00    +0.000 OA
BRANCH   2   4
ATOM      4  C   UNL     1      37.670  -1.403  16.732  0.00  0.00    +0.000 A 
ATOM      5  C   UNL     1      37.326  -1.548  18.080  0.00  0.00    +0.000 A 
ATOM      6  C   UNL     1      37.839  -2.517  18.902  0.00  0.00    +0.000 A 
ATOM      7  C   UNL     1      38.746  -3.417  18.405  0.00  0.00    +0.000 A 
ATOM      8  C   UNL     1      39.084  -3.274  17.079  0.00  0.00    +0.000 A 
ATOM      9  C   UNL     1      38.571  -2.297  16.236  0.00  0.00    +0.000 A 
BRANCH   9  10
ATOM     10  N   UNL     1      38.924  -2.254  14.847  0.00  0.00    +0.000 NA
BRANCH  10  11
ATOM     11  C   UNL     1      40.254  -1.738  14.605  0.00  0.00    +0.000 A 
ATOM     12  C   UNL     1      41.390  -2.512  14.620  0.00  0.00    +0.000 A 
ATOM     13  C   UNL     1      42.639  -1.944  14.344  0.00  0.00    +0.000 A 
ATOM     14  C   UNL     1      42.723  -0.582  14.045  0.00  0.00    +0.000 A 
ATOM     15  C   UNL     1      41.588   0.216  14.024  0.00  0.00    +0.000 A 
ATOM     16  C   UNL     1      40.364  -0.399  14.311  0.00  0.00    +0.000 A 
ENDBRANCH  10  11
ENDBRANCH   9  10
ENDBRANCH   2   4
ENDBRANCH   1   2
BRANCH   1  17
ATOM     17  C   UNL     1      36.909   1.853  15.068  0.00  0.00    +0.000 C 
BRANCH  17  19
ATOM     18  N   UNL     1      38.329   3.752  16.052  0.00  0.00    +0.000 NA
ATOM     19  C   UNL     1      37.118   3.036  15.967  0.00  0.00    +0.000 C 
ATOM     20  O   UNL     1      36.143   3.399  16.670  0.00  0.00    +0.000 OA
BRANCH  18  24
ATOM     21  C   UNL     1      38.632   7.147  18.495  0.00  0.00    +0.000 A 
ATOM     22  C   UNL     1      38.150   7.228  17.219  0.00  0.00    +0.000 A 
ATOM     23  C   UNL     1      38.026   6.099  16.404  0.00  0.00    +0.000 A 
ATOM     24  C   UNL     1      38.416   4.868  16.929  0.00  0.00    +0.000 A 
ATOM     25  C   UNL     1      38.905   4.754  18.199  0.00  0.00    +0.000 A 
ATOM     26  C   UNL     1      39.013   5.909  18.987  0.00  0.00    +0.000 A 
BRANCH  21  28
ATOM     27  C   UNL     1      39.303   7.943  20.658  0.00  0.00    +0.000 C 
ATOM     28  C   UNL     1      38.716   8.381  19.314  0.00  0.00    +0.000 C 
ATOM     29  C   UNL     1      39.749   9.329  18.724  0.00  0.00    +0.000 C 
ATOM     30  C   UNL     1      37.383   9.061  19.476  0.00  0.00    +0.000 C 
ENDBRANCH  21  28
ENDBRANCH  18  24
ENDBRANCH  17  19
ENDBRANCH   1  17
TORSDOF 8
ENDMDL
MODEL 6
REMARK VINA RESULT:      -7.8      1.725      3.298
REMARK  Name = 
REMARK  8 active torsions:
REMARK  status: ('A' for Active; 'I' for Inactive)
REMARK    1  A    between atoms: C_2  and  C_5
REMARK    2  A    between atoms: C_8  and  N_9
REMARK    3  A    between atoms: C_10  and  C_12
REMARK    4  A    between atoms: C_12  and  O_13
REMARK    5  A    between atoms: O_13  and  C_14
REMARK    6  A    between atoms: C_14  and  C_16
REMARK    7  A    between atoms: C_21  and  N_22
REMARK    8  A    between atoms: N_22  and  C_23
REMARK                            x       y       z     vdW  Elec       q    Type
REMARK                         _______ _______ _______ _____ _____    ______ ____
ROOT
ATOM      1  O   UNL     1      36.451   1.601  16.038  0.00  0.00    +0.000 OA
ENDROOT
BRANCH   1   2
ATOM      2  C   UNL     1      36.933   0.884  14.984  0.00  0.00    +0.000 C 
ATOM      3  O   UNL     1      36.264   0.892  13.903  0.00  0.00    +0.000 OA
BRANCH   2   4
ATOM      4  C   UNL     1      38.144   0.119  15.004  0.00  0.00    +0.000 A 
ATOM      5  C   UNL     1      39.208   0.541  14.200  0.00  0.00    +0.000 A 
ATOM      6  C   UNL     1      40.400  -0.127  14.092  0.00  0.00    +0.000 A 
ATOM      7  C   UNL     1      40.596  -1.283  14.802  0.00  0.00    +0.000 A 
ATOM      8  C   UNL     1      39.549  -1.699  15.593  0.00  0.00    +0.000 A 
ATOM      9  C   UNL     1      38.337  -1.030  15.712  0.00  0.00    +0.000 A 
BRANCH   9  10
ATOM     10  N   UNL     1      37.318  -1.492  16.608  0.00  0.00    +0.000 NA
BRANCH  10  11
ATOM     11  C   UNL     1      36.618  -2.666  16.130  0.00  0.00    +0.000 A 
ATOM     12  C   UNL     1      35.653  -2.636  15.152  0.00  0.00    +0.000 A 
ATOM     13  C   UNL     1      35.043  -3.819  14.721  0.00  0.00    +0.000 A 
ATOM     14  C   UNL     1      35.428  -5.037  15.289  0.00  0.00    +0.000 A 
ATOM     15  C   UNL     1      36.401  -5.088  16.277  0.00  0.00    +0.000 A 
ATOM     16  C   UNL     1      36.977  -3.875  16.676  0.00  0.00    +0.000 A 
ENDBRANCH  10  11
ENDBRANCH   9  10
ENDBRANCH   2   4
ENDBRANCH   1   2
BRANCH   1  17
ATOM     17  C   UNL     1      36.361   3.047  15.746  0.00  0.00    +0.000 C 
BRANCH  17  19
ATOM     18  N   UNL     1      38.121   4.870  16.164  0.00  0.00    +0.000 NA
ATOM     19  C   UNL     1      37.412   3.724  16.576  0.00  0.00    +0.000 C 
ATOM     20  O   UNL     1      37.654   3.229  17.706  0.00  0.00    +0.000 OA
BRANCH  18  24
ATOM     21  C   UNL     1      41.110   6.474  18.630  0.00  0.00    +0.000 A 
ATOM     22  C   UNL     1      41.263   6.409  17.274  0.00  0.00    +0.000 A 
ATOM     23  C   UNL     1      40.264   5.895  16.441  0.00  0.00    +0.000 A 
ATOM     24  C   UNL     1      39.090   5.439  17.036  0.00  0.00    +0.000 A 
ATOM     25  C   UNL     1      38.906   5.486  18.388  0.00  0.00    +0.000 A 
ATOM     26  C   UNL     1      39.930   6.011  19.191  0.00  0.00    +0.000 A 
BRANCH  21  28
ATOM     27  C   UNL     1      42.327   6.136  20.671  0.00  0.00    +0.000 C 
ATOM     28  C   UNL     1      42.199   7.053  19.452  0.00  0.00    +0.000 C 
ATOM     29  C   UNL     1      43.528   6.924  18.723  0.00  0.00    +0.000 C 
ATOM     30  C   UNL     1      41.932   8.481  19.847  0.00  0.00    +0.000 C 
ENDBRANCH  21  28
ENDBRANCH  18  24
ENDBRANCH  17  19
ENDBRANCH   1  17
TORSDOF 8
ENDMDL
MODEL 7
REMARK VINA RESULT:      -7.8      2.440      8.984
REMARK  Name = 
REMARK  8 active torsions:
REMARK  status: ('A' for Active; 'I' for Inactive)
REMARK    1  A    between atoms: C_2  and  C_5
REMARK    2  A    between atoms: C_8  and  N_9
REMARK    3  A    between atoms: C_10  and  C_12
REMARK    4  A    between atoms: C_12  and  O_13
REMARK    5  A    between atoms: O_13  and  C_14
REMARK    6  A    between atoms: C_14  and  C_16
REMARK    7  A    between atoms: C_21  and  N_22
REMARK    8  A    between atoms: N_22  and  C_23
REMARK                            x       y       z     vdW  Elec       q    Type
REMARK                         _______ _______ _______ _____ _____    ______ ____
ROOT
ATOM      1  O   UNL     1      39.397   5.837  16.416  0.00  0.00    +0.000 OA
ENDROOT
BRANCH   1   2
ATOM      2  C   UNL     1      39.601   7.098  16.892  0.00  0.00    +0.000 C 
ATOM      3  O   UNL     1      40.256   7.910  16.167  0.00  0.00    +0.000 OA
BRANCH   2   4
ATOM      4  C   UNL     1      39.127   7.577  18.157  0.00  0.00    +0.000 A 
ATOM      5  C   UNL     1      38.194   8.619  18.163  0.00  0.00    +0.000 A 
ATOM      6  C   UNL     1      37.700   9.200  19.301  0.00  0.00    +0.000 A 
ATOM      7  C   UNL     1      38.124   8.757  20.527  0.00  0.00    +0.000 A 
ATOM      8  C   UNL     1      39.042   7.732  20.522  0.00  0.00    +0.000 A 
ATOM      9  C   UNL     1      39.550   7.135  19.375  0.00  0.00    +0.000 A 
BRANCH   9  10
ATOM     10  N   UNL     1      40.456   6.027  19.452  0.00  0.00    +0.000 NA
BRANCH  10  11
ATOM     11  C   UNL     1      41.816   6.413  19.763  0.00  0.00    +0.000 A 
ATOM     12  C   UNL     1      42.602   7.178  18.935  0.00  0.00    +0.000 A 
ATOM     13  C   UNL     1      43.898   7.538  19.321  0.00  0.00    +0.000 A 
ATOM     14  C   UNL     1      44.387   7.120  20.562  0.00  0.00    +0.000 A 
ATOM     15  C   UNL     1      43.608   6.347  21.412  0.00  0.00    +0.000 A 
ATOM     16  C   UNL     1      42.320   6.011  20.977  0.00  0.00    +0.000 A 
ENDBRANCH  10  11
ENDBRANCH   9  10
ENDBRANCH   2   4
ENDBRANCH   1   2
BRANCH   1  17
ATOM     17  C   UNL     1      38.076   5.681  15.771  0.00  0.00    +0.000 C 
BRANCH  17  19
ATOM     18  N   UNL     1      36.701   3.559  15.327  0.00  0.00    +0.000 NA
ATOM     19  C   UNL     1      37.574   4.315  16.134  0.00  0.00    +0.000 C 
ATOM     20  O   UNL     1      37.972   3.832  17.223  0.00  0.00    +0.000 OA
BRANCH  18  24
ATOM     21  C   UNL     1      35.555  -0.317  16.445  0.00  0.00    +0.000 A 
ATOM     22  C   UNL     1      36.647  -0.097  15.654  0.00  0.00    +0.000 A 
ATOM     23  C   UNL     1      37.050   1.193  15.292  0.00  0.00    +0.000 A 
ATOM     24  C   UNL     1      36.296   2.267  15.762  0.00  0.00    +0.000 A 
ATOM     25  C   UNL     1      35.198   2.081  16.551  0.00  0.00    +0.000 A 
ATOM     26  C   UNL     1      34.826   0.773  16.894  0.00  0.00    +0.000 A 
BRANCH  21  28
ATOM     27  C   UNL     1      35.401  -2.534  15.538  0.00  0.00    +0.000 C 
ATOM     28  C   UNL     1      35.198  -1.709  16.810  0.00  0.00    +0.000 C 
ATOM     29  C   UNL     1      36.208  -2.263  17.804  0.00  0.00    +0.000 C 
ATOM     30  C   UNL     1      33.793  -1.827  17.340  0.00  0.00    +0.000 C 
ENDBRANCH  21  28
ENDBRANCH  18  24
ENDBRANCH  17  19
ENDBRANCH   1  17
TORSDOF 8
ENDMDL
MODEL 8
REMARK VINA RESULT:      -7.7      5.510      6.998
REMARK  Name = 
REMARK  8 active torsions:
REMARK  status: ('A' for Active; 'I' for Inactive)
REMARK    1  A    between atoms: C_2  and  C_5
REMARK    2  A    between atoms: C_8  and  N_9
REMARK    3  A    between atoms: C_10  and  C_12
REMARK    4  A    between atoms: C_12  and  O_13
REMARK    5  A    between atoms: O_13  and  C_14
REMARK    6  A    between atoms: C_14  and  C_16
REMARK    7  A    between atoms: C_21  and  N_22
REMARK    8  A    between atoms: N_22  and  C_23
REMARK                            x       y       z     vdW  Elec       q    Type
REMARK                         _______ _______ _______ _____ _____    ______ ____
ROOT
ATOM      1  O   UNL     1      37.036  -4.266  14.938  0.00  0.00    +0.000 OA
ENDROOT
BRANCH   1   2
ATOM      2  C   UNL     1      36.311  -3.935  16.044  0.00  0.00    +0.000 C 
ATOM      3  O   UNL     1      35.116  -4.362  16.123  0.00  0.00    +0.000 OA
BRANCH   2   4
ATOM      4  C   UNL     1      36.800  -3.138  17.131  0.00  0.00    +0.000 A 
ATOM      5  C   UNL     1      37.935  -3.580  17.818  0.00  0.00    +0.000 A 
ATOM      6  C   UNL     1      38.473  -2.939  18.903  0.00  0.00    +0.000 A 
ATOM      7  C   UNL     1      37.889  -1.790  19.369  0.00  0.00    +0.000 A 
ATOM      8  C   UNL     1      36.772  -1.354  18.692  0.00  0.00    +0.000 A 
ATOM      9  C   UNL     1      36.218  -1.995  17.592  0.00  0.00    +0.000 A 
BRANCH   9  10
ATOM     10  N   UNL     1      35.089  -1.444  16.901  0.00  0.00    +0.000 NA
BRANCH  10  11
ATOM     11  C   UNL     1      35.355  -0.154  16.299  0.00  0.00    +0.000 A 
ATOM     12  C   UNL     1      36.163   0.027  15.203  0.00  0.00    +0.000 A 
ATOM     13  C   UNL     1      36.345   1.304  14.659  0.00  0.00    +0.000 A 
ATOM     14  C   UNL     1      35.692   2.396  15.236  0.00  0.00    +0.000 A 
ATOM     15  C   UNL     1      34.871   2.233  16.344  0.00  0.00    +0.000 A 
ATOM     16  C   UNL     1      34.726   0.937  16.851  0.00  0.00    +0.000 A 
ENDBRANCH  10  11
ENDBRANCH   9  10
ENDBRANCH   2   4
ENDBRANCH   1   2
BRANCH   1  17
ATOM     17  C   UNL     1      36.961  -3.236  13.882  0.00  0.00    +0.000 C 
BRANCH  17  19
ATOM     18  N   UNL     1      39.017  -1.929  14.691  0.00  0.00    +0.000 NA
ATOM     19  C   UNL     1      38.347  -2.688  13.711  0.00  0.00    +0.000 C 
ATOM     20  O   UNL     1      38.930  -2.938  12.627  0.00  0.00    +0.000 OA
BRANCH  18  24
ATOM     21  C   UNL     1      42.970  -0.677  14.059  0.00  0.00    +0.000 A 
ATOM     22  C   UNL     1      42.678  -1.963  14.416  0.00  0.00    +0.000 A 
ATOM     23  C   UNL     1      41.362  -2.396  14.609  0.00  0.00    +0.000 A 
ATOM     24  C   UNL     1      40.337  -1.468  14.430  0.00  0.00    +0.000 A 
ATOM     25  C   UNL     1      40.596  -0.175  14.077  0.00  0.00    +0.000 A 
ATOM     26  C   UNL     1      41.928   0.221  13.890  0.00  0.00    +0.000 A 
BRANCH  21  28
ATOM     27  C   UNL     1      44.981  -0.126  15.246  0.00  0.00    +0.000 C 
ATOM     28  C   UNL     1      44.386  -0.291  13.847  0.00  0.00    +0.000 C 
ATOM     29  C   UNL     1      45.155  -1.448  13.227  0.00  0.00    +0.000 C 
ATOM     30  C   UNL     1      44.528   0.960  13.022  0.00  0.00    +0.000 C 
ENDBRANCH  21  28
ENDBRANCH  18  24
ENDBRANCH  17  19
ENDBRANCH   1  17
TORSDOF 8
ENDMDL
MODEL 9
REMARK VINA RESULT:      -7.7      1.921      2.618
REMARK  Name = 
REMARK  8 active torsions:
REMARK  status: ('A' for Active; 'I' for Inactive)
REMARK    1  A    between atoms: C_2  and  C_5
REMARK    2  A    between atoms: C_8  and  N_9
REMARK    3  A    between atoms: C_10  and  C_12
REMARK    4  A    between atoms: C_12  and  O_13
REMARK    5  A    between atoms: O_13  and  C_14
REMARK    6  A    between atoms: C_14  and  C_16
REMARK    7  A    between atoms: C_21  and  N_22
REMARK    8  A    between atoms: N_22  and  C_23
REMARK                            x       y       z     vdW  Elec       q    Type
REMARK                         _______ _______ _______ _____ _____    ______ ____
ROOT
ATOM      1  O   UNL     1      37.383   1.705  15.702  0.00  0.00    +0.000 OA
ENDROOT
BRANCH   1   2
ATOM      2  C   UNL     1      36.142   1.175  15.510  0.00  0.00    +0.000 C 
ATOM      3  O   UNL     1      35.213   1.954  15.130  0.00  0.00    +0.000 OA
BRANCH   2   4
ATOM      4  C   UNL     1      35.806  -0.205  15.705  0.00  0.00    +0.000 A 
ATOM      5  C   UNL     1      34.976  -0.539  16.780  0.00  0.00    +0.000 A 
ATOM      6  C   UNL     1      34.621  -1.822  17.106  0.00  0.00    +0.000 A 
ATOM      7  C   UNL     1      35.088  -2.866  16.352  0.00  0.00    +0.000 A 
ATOM      8  C   UNL     1      35.905  -2.538  15.294  0.00  0.00    +0.000 A 
ATOM      9  C   UNL     1      36.272  -1.243  14.954  0.00  0.00    +0.000 A 
BRANCH   9  10
ATOM     10  N   UNL     1      37.076  -0.977  13.797  0.00  0.00    +0.000 NA
BRANCH  10  11
ATOM     11  C   UNL     1      38.429  -1.479  13.906  0.00  0.00    +0.000 A 
ATOM     12  C   UNL     1      39.266  -1.202  14.961  0.00  0.00    +0.000 A 
ATOM     13  C   UNL     1      40.552  -1.752  15.009  0.00  0.00    +0.000 A 
ATOM     14  C   UNL     1      40.978  -2.594  13.978  0.00  0.00    +0.000 A 
ATOM     15  C   UNL     1      40.148  -2.886  12.905  0.00  0.00    +0.000 A 
ATOM     16  C   UNL     1      38.873  -2.306  12.902  0.00  0.00    +0.000 A 
ENDBRANCH  10  11
ENDBRANCH   9  10
ENDBRANCH   2   4
ENDBRANCH   1   2
BRANCH   1  17
ATOM     17  C   UNL     1      37.672   2.820  14.776  0.00  0.00    +0.000 C 
BRANCH  17  19
ATOM     18  N   UNL     1      39.169   4.103  16.420  0.00  0.00    +0.000 NA
ATOM     19  C   UNL     1      38.011   4.011  15.622  0.00  0.00    +0.000 C 
ATOM     20  O   UNL     1      37.207   4.976  15.598  0.00  0.00    +0.000 OA
BRANCH  18  24
ATOM     21  C   UNL     1      39.689   7.558  18.739  0.00  0.00    +0.000 A 
ATOM     22  C   UNL     1      39.149   6.421  19.267  0.00  0.00    +0.000 A 
ATOM     23  C   UNL     1      38.990   5.257  18.508  0.00  0.00    +0.000 A 
ATOM     24  C   UNL     1      39.399   5.286  17.176  0.00  0.00    +0.000 A 
ATOM     25  C   UNL     1      39.939   6.408  16.617  0.00  0.00    +0.000 A 
ATOM     26  C   UNL     1      40.085   7.555  17.410  0.00  0.00    +0.000 A 
BRANCH  21  28
ATOM     27  C   UNL     1      39.460   9.948  18.737  0.00  0.00    +0.000 C 
ATOM     28  C   UNL     1      39.851   8.751  19.606  0.00  0.00    +0.000 C 
ATOM     29  C   UNL     1      38.821   8.725  20.726  0.00  0.00    +0.000 C 
ATOM     30  C   UNL     1      41.247   8.884  20.154  0.00  0.00    +0.000 C 
ENDBRANCH  21  28
ENDBRANCH  18  24
ENDBRANCH  17  19
ENDBRANCH   1  17
TORSDOF 8
ENDMDL
MODEL 10
REMARK VINA RESULT:      -7.6      1.590      3.536
REMARK  Name = 
REMARK  8 active torsions:
REMARK  status: ('A' for Active; 'I' for Inactive)
REMARK    1  A    between atoms: C_2  and  C_5
REMARK    2  A    between atoms: C_8  and  N_9
REMARK    3  A    between atoms: C_10  and  C_12
REMARK    4  A    between atoms: C_12  and  O_13
REMARK    5  A    between atoms: O_13  and  C_14
REMARK    6  A    between atoms: C_14  and  C_16
REMARK    7  A    between atoms: C_21  and  N_22
REMARK    8  A    between atoms: N_22  and  C_23
REMARK                            x       y       z     vdW  Elec       q    Type
REMARK                         _______ _______ _______ _____ _____    ______ ____
ROOT
ATOM      1  O   UNL     1      37.190   3.792  14.994  0.00  0.00    +0.000 OA
ENDROOT
BRANCH   1   2
ATOM      2  C   UNL     1      36.538   2.805  14.315  0.00  0.00    +0.000 C 
ATOM      3  O   UNL     1      35.268   2.835  14.294  0.00  0.00    +0.000 OA
BRANCH   2   4
ATOM      4  C   UNL     1      37.184   1.731  13.619  0.00  0.00    +0.000 A 
ATOM      5  C   UNL     1      37.195   1.760  12.220  0.00  0.00    +0.000 A 
ATOM      6  C   UNL     1      37.734   0.774  11.437  0.00  0.00    +0.000 A 
ATOM      7  C   UNL     1      38.308  -0.322  12.027  0.00  0.00    +0.000 A 
ATOM      8  C   UNL     1      38.298  -0.351  13.403  0.00  0.00    +0.000 A 
ATOM      9  C   UNL     1      37.754   0.643  14.207  0.00  0.00    +0.000 A 
BRANCH   9  10
ATOM     10  N   UNL     1      37.840   0.571  15.637  0.00  0.00    +0.000 NA
BRANCH  10  11
ATOM     11  C   UNL     1      37.006  -0.461  16.215  0.00  0.00    +0.000 A 
ATOM     12  C   UNL     1      37.487  -1.660  16.683  0.00  0.00    +0.000 A 
ATOM     13  C   UNL     1      36.620  -2.596  17.259  0.00  0.00    +0.000 A 
ATOM     14  C   UNL     1      35.258  -2.299  17.360  0.00  0.00    +0.000 A 
ATOM     15  C   UNL     1      34.753  -1.093  16.893  0.00  0.00    +0.000 A 
ATOM     16  C   UNL     1      35.662  -0.194  16.323  0.00  0.00    +0.000 A 
ENDBRANCH  10  11
ENDBRANCH   9  10
ENDBRANCH   2   4
ENDBRANCH   1   2
BRANCH   1  17
ATOM     17  C   UNL     1      36.702   3.943  16.380  0.00  0.00    +0.000 C 
BRANCH  17  19
ATOM     18  N   UNL     1      38.579   5.605  16.932  0.00  0.00    +0.000 NA
ATOM     19  C   UNL     1      37.864   4.420  17.200  0.00  0.00    +0.000 C 
ATOM     20  O   UNL     1      38.199   3.713  18.182  0.00  0.00    +0.000 OA
BRANCH  18  24
ATOM     21  C   UNL     1      41.876   6.579  19.334  0.00  0.00    +0.000 A 
ATOM     22  C   UNL     1      41.998   6.435  17.982  0.00  0.00    +0.000 A 
ATOM     23  C   UNL     1      40.901   6.131  17.169  0.00  0.00    +0.000 A 
ATOM     24  C   UNL     1      39.659   5.970  17.782  0.00  0.00    +0.000 A 
ATOM     25  C   UNL     1      39.505   6.104  19.132  0.00  0.00    +0.000 A 
ATOM     26  C   UNL     1      40.628   6.412  19.914  0.00  0.00    +0.000 A 
BRANCH  21  28
ATOM     27  C   UNL     1      42.805   8.321  20.699  0.00  0.00    +0.000 C 
ATOM     28  C   UNL     1      43.076   6.925  20.134  0.00  0.00    +0.000 C 
ATOM     29  C   UNL     1      43.169   6.019  21.353  0.00  0.00    +0.000 C 
ATOM     30  C   UNL     1      44.345   6.881  19.326  0.00  0.00    +0.000 C 
ENDBRANCH  21  28
ENDBRANCH  18  24
ENDBRANCH  17  19
ENDBRANCH   1  17
TORSDOF 8
ENDMDL
