MODEL 1
REMARK VINA RESULT:      -7.2      0.000      0.000
REMARK  Name = 
REMARK  0 active torsions:
REMARK  status: ('A' for Active; 'I' for Inactive)
REMARK                            x       y       z     vdW  Elec       q    Type
REMARK                         _______ _______ _______ _____ _____    ______ ____
ROOT
ATOM      1  N   UNL     1      28.363  23.900  14.474  0.00  0.00    +0.000 NA
ATOM      2  C   UNL     1      27.969  23.278  13.282  0.00  0.00    +0.000 A 
ATOM      3  N   UNL     1      26.656  23.193  12.936  0.00  0.00    +0.000 NA
ATOM      4  C   UNL     1      26.417  22.575  11.774  0.00  0.00    +0.000 A 
ATOM      5  N   UNL     1      27.345  22.071  10.994  0.00  0.00    +0.000 NA
ATOM      6  C   UNL     1      28.687  22.120  11.281  0.00  0.00    +0.000 A 
ATOM      7  C   UNL     1      28.967  22.746  12.461  0.00  0.00    +0.000 A 
ATOM      8  S   UNL     1      30.669  22.660  12.556  0.00  0.00    +0.000 S 
ATOM      9  C   UNL     1      30.986  21.834  11.098  0.00  0.00    +0.000 A 
ATOM     10  N   UNL     1      32.135  21.419  10.511  0.00  0.00    +0.000 NA
ATOM     11  C   UNL     1      32.132  20.763   9.316  0.00  0.00    +0.000 A 
ATOM     12  C   UNL     1      30.902  20.561   8.769  0.00  0.00    +0.000 A 
ATOM     13  C   UNL     1      29.728  20.969   9.338  0.00  0.00    +0.000 A 
ATOM     14  C   UNL     1      29.742  21.648  10.576  0.00  0.00    +0.000 A 
ATOM     15  C   UNL     1      30.522  19.883   7.476  0.00  0.00    +0.000 C 
ATOM     16  C   UNL     1      31.078  20.732   6.331  0.00  0.00    +0.000 C 
ATOM     17  C   UNL     1      32.581  20.818   6.529  0.00  0.00    +0.000 C 
ATOM     18  C   UNL     1      33.139  19.448   6.783  0.00  0.00    +0.000 C 
ATOM     19  C   UNL     1      33.673  19.258   8.168  0.00  0.00    +0.000 C 
ATOM     20  C   UNL     1      33.563  20.490   9.030  0.00  0.00    +0.000 C 
ENDROOT
TORSDOF 0
ENDMDL
MODEL 2
REMARK VINA RESULT:      -6.8     32.013     33.177
REMARK  Name = 
REMARK  0 active torsions:
REMARK  status: ('A' for Active; 'I' for Inactive)
REMARK                            x       y       z     vdW  Elec       q    Type
REMARK                         _______ _______ _______ _____ _____    ______ ____
ROOT
ATOM      1  N   UNL     1      33.484  -4.070  34.482  0.00  0.00    +0.000 NA
ATOM      2  C   UNL     1      33.734  -3.149  35.507  0.00  0.00    +0.000 A 
ATOM      3  N   UNL     1      34.012  -3.566  36.771  0.00  0.00    +0.000 NA
ATOM      4  C   UNL     1      34.232  -2.584  37.654  0.00  0.00    +0.000 A 
ATOM      5  N   UNL     1      34.192  -1.303  37.368  0.00  0.00    +0.000 NA
ATOM      6  C   UNL     1      33.919  -0.813  36.115  0.00  0.00    +0.000 A 
ATOM      7  C   UNL     1      33.690  -1.789  35.189  0.00  0.00    +0.000 A 
ATOM      8  S   UNL     1      33.383  -0.907  33.759  0.00  0.00    +0.000 S 
ATOM      9  C   UNL     1      33.553   0.676  34.368  0.00  0.00    +0.000 A 
ATOM     10  N   UNL     1      33.447   1.897  33.790  0.00  0.00    +0.000 NA
ATOM     11  C   UNL     1      33.630   3.045  34.501  0.00  0.00    +0.000 A 
ATOM     12  C   UNL     1      33.925   2.870  35.819  0.00  0.00    +0.000 A 
ATOM     13  C   UNL     1      34.038   1.651  36.428  0.00  0.00    +0.000 A 
ATOM     14  C   UNL     1      33.846   0.468  35.682  0.00  0.00    +0.000 A 
ATOM     15  C   UNL     1      34.188   3.896  36.892  0.00  0.00    +0.000 C 
ATOM     16  C   UNL     1      35.486   4.620  36.526  0.00  0.00    +0.000 C 
ATOM     17  C   UNL     1      35.278   5.243  35.157  0.00  0.00    +0.000 C 
ATOM     18  C   UNL     1      33.973   5.985  35.131  0.00  0.00    +0.000 C 
ATOM     19  C   UNL     1      32.944   5.372  34.234  0.00  0.00    +0.000 C 
ATOM     20  C   UNL     1      33.429   4.138  33.517  0.00  0.00    +0.000 C 
ENDROOT
TORSDOF 0
ENDMDL
MODEL 3
REMARK VINA RESULT:      -6.5     31.993     33.096
REMARK  Name = 
REMARK  0 active torsions:
REMARK  status: ('A' for Active; 'I' for Inactive)
REMARK                            x       y       z     vdW  Elec       q    Type
REMARK                         _______ _______ _______ _____ _____    ______ ____
ROOT
ATOM      1  N   UNL     1      33.439  -3.429  37.942  0.00  0.00    +0.000 NA
ATOM      2  C   UNL     1      33.202  -2.752  36.740  0.00  0.00    +0.000 A 
ATOM      3  N   UNL     1      32.678  -3.397  35.663  0.00  0.00    +0.000 NA
ATOM      4  C   UNL     1      32.502  -2.634  34.578  0.00  0.00    +0.000 A 
ATOM      5  N   UNL     1      32.799  -1.357  34.510  0.00  0.00    +0.000 NA
ATOM      6  C   UNL     1      33.329  -0.643  35.556  0.00  0.00    +0.000 A 
ATOM      7  C   UNL     1      33.522  -1.392  36.681  0.00  0.00    +0.000 A 
ATOM      8  S   UNL     1      34.176  -0.272  37.790  0.00  0.00    +0.000 S 
ATOM      9  C   UNL     1      34.190   1.119  36.803  0.00  0.00    +0.000 A 
ATOM     10  N   UNL     1      34.584   2.396  37.025  0.00  0.00    +0.000 NA
ATOM     11  C   UNL     1      34.496   3.351  36.057  0.00  0.00    +0.000 A 
ATOM     12  C   UNL     1      33.989   2.926  34.868  0.00  0.00    +0.000 A 
ATOM     13  C   UNL     1      33.583   1.644  34.616  0.00  0.00    +0.000 A 
ATOM     14  C   UNL     1      33.679   0.663  35.626  0.00  0.00    +0.000 A 
ATOM     15  C   UNL     1      33.749   3.694  33.591  0.00  0.00    +0.000 C 
ATOM     16  C   UNL     1      32.660   4.730  33.877  0.00  0.00    +0.000 C 
ATOM     17  C   UNL     1      33.167   5.611  35.005  0.00  0.00    +0.000 C 
ATOM     18  C   UNL     1      34.568   6.060  34.709  0.00  0.00    +0.000 C 
ATOM     19  C   UNL     1      35.597   5.488  35.632  0.00  0.00    +0.000 C 
ATOM     20  C   UNL     1      35.019   4.586  36.694  0.00  0.00    +0.000 C 
ENDROOT
TORSDOF 0
ENDMDL
MODEL 4
REMARK VINA RESULT:      -6.1     10.830     13.966
REMARK  Name = 
REMARK  0 active torsions:
REMARK  status: ('A' for Active; 'I' for Inactive)
REMARK                            x       y       z     vdW  Elec       q    Type
REMARK                         _______ _______ _______ _____ _____    ______ ____
ROOT
ATOM      1  N   UNL     1      28.370  30.069  18.781  0.00  0.00    +0.000 NA
ATOM      2  C   UNL     1      28.986  28.828  18.991  0.00  0.00    +0.000 A 
ATOM      3  N   UNL     1      29.985  28.395  18.177  0.00  0.00    +0.000 NA
ATOM      4  C   UNL     1      30.486  27.194  18.488  0.00  0.00    +0.000 A 
ATOM      5  N   UNL     1      30.076  26.453  19.492  0.00  0.00    +0.000 NA
ATOM      6  C   UNL     1      29.074  26.828  20.352  0.00  0.00    +0.000 A 
ATOM      7  C   UNL     1      28.540  28.050  20.063  0.00  0.00    +0.000 A 
ATOM      8  S   UNL     1      27.346  28.250  21.267  0.00  0.00    +0.000 S 
ATOM      9  C   UNL     1      27.552  26.781  22.108  0.00  0.00    +0.000 A 
ATOM     10  N   UNL     1      26.935  26.252  23.192  0.00  0.00    +0.000 NA
ATOM     11  C   UNL     1      27.283  25.032  23.689  0.00  0.00    +0.000 A 
ATOM     12  C   UNL     1      28.285  24.397  23.020  0.00  0.00    +0.000 A 
ATOM     13  C   UNL     1      28.924  24.908  21.924  0.00  0.00    +0.000 A 
ATOM     14  C   UNL     1      28.556  26.172  21.418  0.00  0.00    +0.000 A 
ATOM     15  C   UNL     1      28.920  23.054  23.282  0.00  0.00    +0.000 C 
ATOM     16  C   UNL     1      29.648  23.146  24.625  0.00  0.00    +0.000 C 
ATOM     17  C   UNL     1      28.612  23.519  25.670  0.00  0.00    +0.000 C 
ATOM     18  C   UNL     1      27.409  22.633  25.531  0.00  0.00    +0.000 C 
ATOM     19  C   UNL     1      26.178  23.348  25.069  0.00  0.00    +0.000 C 
ATOM     20  C   UNL     1      26.386  24.826  24.854  0.00  0.00    +0.000 C 
ENDROOT
TORSDOF 0
ENDMDL
MODEL 5
REMARK VINA RESULT:      -6.1     13.860     16.971
REMARK  Name = 
REMARK  0 active torsions:
REMARK  status: ('A' for Active; 'I' for Inactive)
REMARK                            x       y       z     vdW  Elec       q    Type
REMARK                         _______ _______ _______ _____ _____    ______ ____
ROOT
ATOM      1  N   UNL     1      25.577  24.944  31.273  0.00  0.00    +0.000 NA
ATOM      2  C   UNL     1      26.159  24.013  30.403  0.00  0.00    +0.000 A 
ATOM      3  N   UNL     1      26.303  22.710  30.765  0.00  0.00    +0.000 NA
ATOM      4  C   UNL     1      26.874  21.927  29.842  0.00  0.00    +0.000 A 
ATOM      5  N   UNL     1      27.282  22.341  28.664  0.00  0.00    +0.000 NA
ATOM      6  C   UNL     1      27.168  23.640  28.234  0.00  0.00    +0.000 A 
ATOM      7  C   UNL     1      26.588  24.466  29.152  0.00  0.00    +0.000 A 
ATOM      8  S   UNL     1      26.579  25.980  28.364  0.00  0.00    +0.000 S 
ATOM      9  C   UNL     1      27.308  25.530  26.890  0.00  0.00    +0.000 A 
ATOM     10  N   UNL     1      27.624  26.229  25.773  0.00  0.00    +0.000 NA
ATOM     11  C   UNL     1      28.217  25.634  24.700  0.00  0.00    +0.000 A 
ATOM     12  C   UNL     1      28.462  24.302  24.838  0.00  0.00    +0.000 A 
ATOM     13  C   UNL     1      28.154  23.573  25.953  0.00  0.00    +0.000 A 
ATOM     14  C   UNL     1      27.540  24.199  27.059  0.00  0.00    +0.000 A 
ATOM     15  C   UNL     1      29.095  23.333  23.871  0.00  0.00    +0.000 C 
ATOM     16  C   UNL     1      28.157  23.207  22.668  0.00  0.00    +0.000 C 
ATOM     17  C   UNL     1      27.992  24.598  22.082  0.00  0.00    +0.000 C 
ATOM     18  C   UNL     1      29.338  25.241  21.916  0.00  0.00    +0.000 C 
ATOM     19  C   UNL     1      29.568  26.411  22.821  0.00  0.00    +0.000 C 
ATOM     20  C   UNL     1      28.390  26.726  23.708  0.00  0.00    +0.000 C 
ENDROOT
TORSDOF 0
ENDMDL
MODEL 6
REMARK VINA RESULT:      -6.0     15.587     18.827
REMARK  Name = 
REMARK  0 active torsions:
REMARK  status: ('A' for Active; 'I' for Inactive)
REMARK                            x       y       z     vdW  Elec       q    Type
REMARK                         _______ _______ _______ _____ _____    ______ ____
ROOT
ATOM      1  N   UNL     1      30.574  21.546  33.599  0.00  0.00    +0.000 NA
ATOM      2  C   UNL     1      31.363  21.561  32.442  0.00  0.00    +0.000 A 
ATOM      3  N   UNL     1      32.647  21.114  32.463  0.00  0.00    +0.000 NA
ATOM      4  C   UNL     1      33.289  21.184  31.291  0.00  0.00    +0.000 A 
ATOM      5  N   UNL     1      32.761  21.643  30.180  0.00  0.00    +0.000 NA
ATOM      6  C   UNL     1      31.473  22.109  30.086  0.00  0.00    +0.000 A 
ATOM      7  C   UNL     1      30.789  22.052  31.266  0.00  0.00    +0.000 A 
ATOM      8  S   UNL     1      29.256  22.682  30.859  0.00  0.00    +0.000 S 
ATOM      9  C   UNL     1      29.517  23.002  29.205  0.00  0.00    +0.000 A 
ATOM     10  N   UNL     1      28.724  23.516  28.235  0.00  0.00    +0.000 NA
ATOM     11  C   UNL     1      29.170  23.681  26.957  0.00  0.00    +0.000 A 
ATOM     12  C   UNL     1      30.456  23.292  26.738  0.00  0.00    +0.000 A 
ATOM     13  C   UNL     1      31.278  22.770  27.698  0.00  0.00    +0.000 A 
ATOM     14  C   UNL     1      30.806  22.604  29.017  0.00  0.00    +0.000 A 
ATOM     15  C   UNL     1      31.270  23.327  25.469  0.00  0.00    +0.000 C 
ATOM     16  C   UNL     1      30.629  22.345  24.485  0.00  0.00    +0.000 C 
ATOM     17  C   UNL     1      29.195  22.797  24.275  0.00  0.00    +0.000 C 
ATOM     18  C   UNL     1      29.164  24.270  23.989  0.00  0.00    +0.000 C 
ATOM     19  C   UNL     1      28.523  25.085  25.068  0.00  0.00    +0.000 C 
ATOM     20  C   UNL     1      28.016  24.261  26.224  0.00  0.00    +0.000 C 
ENDROOT
TORSDOF 0
ENDMDL
MODEL 7
REMARK VINA RESULT:      -5.9     33.008     33.872
REMARK  Name = 
REMARK  0 active torsions:
REMARK  status: ('A' for Active; 'I' for Inactive)
REMARK                            x       y       z     vdW  Elec       q    Type
REMARK                         _______ _______ _______ _____ _____    ______ ____
ROOT
ATOM      1  N   UNL     1      34.464   4.632  36.445  0.00  0.00    +0.000 NA
ATOM      2  C   UNL     1      34.097   3.751  35.420  0.00  0.00    +0.000 A 
ATOM      3  N   UNL     1      33.871   4.200  34.157  0.00  0.00    +0.000 NA
ATOM      4  C   UNL     1      33.528   3.255  33.274  0.00  0.00    +0.000 A 
ATOM      5  N   UNL     1      33.404   1.980  33.559  0.00  0.00    +0.000 NA
ATOM      6  C   UNL     1      33.617   1.457  34.811  0.00  0.00    +0.000 A 
ATOM      7  C   UNL     1      33.970   2.395  35.737  0.00  0.00    +0.000 A 
ATOM      8  S   UNL     1      34.165   1.481  37.165  0.00  0.00    +0.000 S 
ATOM      9  C   UNL     1      33.796  -0.068  36.556  0.00  0.00    +0.000 A 
ATOM     10  N   UNL     1      33.749  -1.293  37.133  0.00  0.00    +0.000 NA
ATOM     11  C   UNL     1      33.419  -2.408  36.421  0.00  0.00    +0.000 A 
ATOM     12  C   UNL     1      33.146  -2.195  35.105  0.00  0.00    +0.000 A 
ATOM     13  C   UNL     1      33.186  -0.971  34.497  0.00  0.00    +0.000 A 
ATOM     14  C   UNL     1      33.529   0.177  35.243  0.00  0.00    +0.000 A 
ATOM     15  C   UNL     1      32.753  -3.179  34.031  0.00  0.00    +0.000 C 
ATOM     16  C   UNL     1      33.944  -4.113  33.806  0.00  0.00    +0.000 C 
ATOM     17  C   UNL     1      34.242  -4.783  35.135  0.00  0.00    +0.000 C 
ATOM     18  C   UNL     1      32.973  -5.320  35.729  0.00  0.00    +0.000 C 
ATOM     19  C   UNL     1      32.542  -4.617  36.978  0.00  0.00    +0.000 C 
ATOM     20  C   UNL     1      33.483  -3.518  37.405  0.00  0.00    +0.000 C 
ENDROOT
TORSDOF 0
ENDMDL
MODEL 8
REMARK VINA RESULT:      -5.7     29.216     30.143
REMARK  Name = 
REMARK  0 active torsions:
REMARK  status: ('A' for Active; 'I' for Inactive)
REMARK                            x       y       z     vdW  Elec       q    Type
REMARK                         _______ _______ _______ _____ _____    ______ ____
ROOT
ATOM      1  N   UNL     1      23.892  18.262  40.505  0.00  0.00    +0.000 NA
ATOM      2  C   UNL     1      24.755  17.409  39.807  0.00  0.00    +0.000 A 
ATOM      3  N   UNL     1      26.037  17.775  39.538  0.00  0.00    +0.000 NA
ATOM      4  C   UNL     1      26.754  16.868  38.864  0.00  0.00    +0.000 A 
ATOM      5  N   UNL     1      26.298  15.702  38.470  0.00  0.00    +0.000 NA
ATOM      6  C   UNL     1      25.016  15.268  38.707  0.00  0.00    +0.000 A 
ATOM      7  C   UNL     1      24.257  16.170  39.393  0.00  0.00    +0.000 A 
ATOM      8  S   UNL     1      22.750  15.382  39.539  0.00  0.00    +0.000 S 
ATOM      9  C   UNL     1      23.118  13.928  38.727  0.00  0.00    +0.000 A 
ATOM     10  N   UNL     1      22.387  12.820  38.456  0.00  0.00    +0.000 NA
ATOM     11  C   UNL     1      22.914  11.763  37.776  0.00  0.00    +0.000 A 
ATOM     12  C   UNL     1      24.214  11.908  37.397  0.00  0.00    +0.000 A 
ATOM     13  C   UNL     1      24.974  13.014  37.658  0.00  0.00    +0.000 A 
ATOM     14  C   UNL     1      24.418  14.103  38.363  0.00  0.00    +0.000 A 
ATOM     15  C   UNL     1      25.109  10.958  36.642  0.00  0.00    +0.000 C 
ATOM     16  C   UNL     1      25.329   9.731  37.530  0.00  0.00    +0.000 C 
ATOM     17  C   UNL     1      23.961   9.140  37.822  0.00  0.00    +0.000 C 
ATOM     18  C   UNL     1      23.182   9.011  36.546  0.00  0.00    +0.000 C 
ATOM     19  C   UNL     1      21.997   9.921  36.463  0.00  0.00    +0.000 C 
ATOM     20  C   UNL     1      21.808  10.777  37.690  0.00  0.00    +0.000 C 
ENDROOT
TORSDOF 0
ENDMDL
MODEL 9
REMARK VINA RESULT:      -5.7     44.758     46.391
REMARK  Name = 
REMARK  0 active torsions:
REMARK  status: ('A' for Active; 'I' for Inactive)
REMARK                            x       y       z     vdW  Elec       q    Type
REMARK                         _______ _______ _______ _____ _____    ______ ____
ROOT
ATOM      1  N   UNL     1       5.171 -12.601  38.346  0.00  0.00    +0.000 NA
ATOM      2  C   UNL     1       6.142 -11.632  38.629  0.00  0.00    +0.000 A 
ATOM      3  N   UNL     1       6.087 -10.897  39.772  0.00  0.00    +0.000 NA
ATOM      4  C   UNL     1       7.075 -10.007  39.920  0.00  0.00    +0.000 A 
ATOM      5  N   UNL     1       8.045  -9.821  39.055  0.00  0.00    +0.000 NA
ATOM      6  C   UNL     1       8.163 -10.526  37.883  0.00  0.00    +0.000 A 
ATOM      7  C   UNL     1       7.170 -11.444  37.701  0.00  0.00    +0.000 A 
ATOM      8  S   UNL     1       7.564 -12.153  36.199  0.00  0.00    +0.000 S 
ATOM      9  C   UNL     1       8.977 -11.271  35.838  0.00  0.00    +0.000 A 
ATOM     10  N   UNL     1       9.834 -11.302  34.789  0.00  0.00    +0.000 NA
ATOM     11  C   UNL     1      10.919 -10.478  34.725  0.00  0.00    +0.000 A 
ATOM     12  C   UNL     1      11.069  -9.635  35.784  0.00  0.00    +0.000 A 
ATOM     13  C   UNL     1      10.221  -9.583  36.855  0.00  0.00    +0.000 A 
ATOM     14  C   UNL     1       9.101 -10.441  36.911  0.00  0.00    +0.000 A 
ATOM     15  C   UNL     1      12.136  -8.602  36.050  0.00  0.00    +0.000 C 
ATOM     16  C   UNL     1      13.459  -9.347  36.239  0.00  0.00    +0.000 C 
ATOM     17  C   UNL     1      13.712 -10.138  34.968  0.00  0.00    +0.000 C 
ATOM     18  C   UNL     1      13.517  -9.253  33.772  0.00  0.00    +0.000 C 
ATOM     19  C   UNL     1      12.334  -9.620  32.931  0.00  0.00    +0.000 C 
ATOM     20  C   UNL     1      11.582 -10.822  33.443  0.00  0.00    +0.000 C 
ENDROOT
TORSDOF 0
ENDMDL
MODEL 10
REMARK VINA RESULT:      -5.6     17.447     20.611
REMARK  Name = 
REMARK  0 active torsions:
REMARK  status: ('A' for Active; 'I' for Inactive)
REMARK                            x       y       z     vdW  Elec       q    Type
REMARK                         _______ _______ _______ _____ _____    ______ ____
ROOT
ATOM      1  N   UNL     1      34.183  21.720  32.225  0.00  0.00    +0.000 NA
ATOM      2  C   UNL     1      32.813  21.722  32.517  0.00  0.00    +0.000 A 
ATOM      3  N   UNL     1      32.360  21.397  33.757  0.00  0.00    +0.000 NA
ATOM      4  C   UNL     1      31.031  21.438  33.902  0.00  0.00    +0.000 A 
ATOM      5  N   UNL     1      30.188  21.761  32.948  0.00  0.00    +0.000 NA
ATOM      6  C   UNL     1      30.575  22.100  31.675  0.00  0.00    +0.000 A 
ATOM      7  C   UNL     1      31.927  22.068  31.493  0.00  0.00    +0.000 A 
ATOM      8  S   UNL     1      32.112  22.522  29.858  0.00  0.00    +0.000 S 
ATOM      9  C   UNL     1      30.473  22.742  29.444  0.00  0.00    +0.000 A 
ATOM     10  N   UNL     1      29.860  23.108  28.292  0.00  0.00    +0.000 NA
ATOM     11  C   UNL     1      28.504  23.216  28.206  0.00  0.00    +0.000 A 
ATOM     12  C   UNL     1      27.826  22.932  29.352  0.00  0.00    +0.000 A 
ATOM     13  C   UNL     1      28.418  22.561  30.527  0.00  0.00    +0.000 A 
ATOM     14  C   UNL     1      29.823  22.452  30.605  0.00  0.00    +0.000 A 
ATOM     15  C   UNL     1      26.342  22.947  29.623  0.00  0.00    +0.000 C 
ATOM     16  C   UNL     1      25.868  24.398  29.504  0.00  0.00    +0.000 C 
ATOM     17  C   UNL     1      26.213  24.866  28.102  0.00  0.00    +0.000 C 
ATOM     18  C   UNL     1      25.758  23.846  27.099  0.00  0.00    +0.000 C 
ATOM     19  C   UNL     1      26.877  23.152  26.387  0.00  0.00    +0.000 C 
ATOM     20  C   UNL     1      28.245  23.631  26.805  0.00  0.00    +0.000 C 
ENDROOT
TORSDOF 0
ENDMDL
