MODEL 1
REMARK VINA RESULT:      -8.0      0.000      0.000
REMARK  Name = 
REMARK  7 active torsions:
REMARK  status: ('A' for Active; 'I' for Inactive)
REMARK    1  A    between atoms: O_2  and  C_3
REMARK    2  A    between atoms: C_6  and  C_7
REMARK    3  A    between atoms: C_9  and  C_10
REMARK    4  A    between atoms: N_12  and  C_13
REMARK    5  A    between atoms: C_13  and  C_15
REMARK    6  A    between atoms: C_15  and  C_16
REMARK    7  A    between atoms: C_16  and  C_17
REMARK                            x       y       z     vdW  Elec       q    Type
REMARK                         _______ _______ _______ _____ _____    ______ ____
ROOT
ATOM      1  C   UNL     1      38.568   4.900  17.081  0.00  0.00    +0.000 A 
ATOM      2  C   UNL     1      37.571   3.956  17.212  0.00  0.00    +0.000 A 
ATOM      3  C   UNL     1      37.339   2.961  16.288  0.00  0.00    +0.000 A 
ATOM      4  C   UNL     1      38.135   2.909  15.192  0.00  0.00    +0.000 A 
ATOM      5  C   UNL     1      37.904   1.921  14.271  0.00  0.00    +0.000 A 
ATOM      6  C   UNL     1      38.728   1.877  13.151  0.00  0.00    +0.000 A 
ATOM      7  C   UNL     1      39.742   2.800  12.973  0.00  0.00    +0.000 A 
ATOM      8  C   UNL     1      39.935   3.772  13.920  0.00  0.00    +0.000 A 
ATOM      9  C   UNL     1      39.146   3.856  15.047  0.00  0.00    +0.000 A 
ATOM     10  N   UNL     1      39.335   4.811  15.977  0.00  0.00    +0.000 NA
ENDROOT
BRANCH   1  14
ATOM     11  C   UNL     1      39.147   7.982  20.005  0.00  0.00    +0.000 A 
ATOM     12  C   UNL     1      38.209   8.102  19.005  0.00  0.00    +0.000 A 
ATOM     13  C   UNL     1      38.029   7.101  18.062  0.00  0.00    +0.000 A 
ATOM     14  C   UNL     1      38.778   5.940  18.082  0.00  0.00    +0.000 A 
ATOM     15  C   UNL     1      39.714   5.828  19.086  0.00  0.00    +0.000 A 
ATOM     16  C   UNL     1      39.902   6.821  20.032  0.00  0.00    +0.000 A 
BRANCH  11  18
ATOM     17  C   UNL     1      38.446  10.096  20.972  0.00  0.00    +0.000 C 
ATOM     18  O   UNL     1      39.311   8.995  20.940  0.00  0.00    +0.000 OA
ENDBRANCH  11  18
ENDBRANCH   1  14
BRANCH   3  19
ATOM     19  C   UNL     1      36.244   2.034  16.556  0.00  0.00    +0.000 C 
ATOM     20  O   UNL     1      35.073   2.254  16.153  0.00  0.00    +0.000 OA
ATOM     21  N   UNL     1      36.492   0.886  17.268  0.00  0.00    +0.000 NA
BRANCH  21  22
ATOM     22  C   UNL     1      35.323  -0.139  17.573  0.00  0.00    +0.000 C 
ATOM     23  C   UNL     1      35.616  -0.325  19.199  0.00  0.00    +0.000 C 
BRANCH  22  24
ATOM     24  C   UNL     1      36.286  -1.467  17.197  0.00  0.00    +0.000 C 
BRANCH  24  25
ATOM     25  C   UNL     1      36.130  -1.481  15.691  0.00  0.00    +0.000 C 
BRANCH  25  26
ATOM     26  C   UNL     1      37.462  -1.580  15.014  0.00  0.00    +0.000 A 
ATOM     27  C   UNL     1      37.517  -1.838  13.677  0.00  0.00    +0.000 A 
ATOM     28  C   UNL     1      38.739  -1.925  13.062  0.00  0.00    +0.000 A 
ATOM     29  C   UNL     1      39.917  -1.753  13.790  0.00  0.00    +0.000 A 
ATOM     30  C   UNL     1      39.850  -1.492  15.147  0.00  0.00    +0.000 A 
ATOM     31  C   UNL     1      38.617  -1.408  15.748  0.00  0.00    +0.000 A 
ENDBRANCH  25  26
ENDBRANCH  24  25
ENDBRANCH  22  24
ENDBRANCH  21  22
ENDBRANCH   3  19
TORSDOF 7
ENDMDL
MODEL 2
REMARK VINA RESULT:      -7.9      1.201      1.644
REMARK  Name = 
REMARK  7 active torsions:
REMARK  status: ('A' for Active; 'I' for Inactive)
REMARK    1  A    between atoms: O_2  and  C_3
REMARK    2  A    between atoms: C_6  and  C_7
REMARK    3  A    between atoms: C_9  and  C_10
REMARK    4  A    between atoms: N_12  and  C_13
REMARK    5  A    between atoms: C_13  and  C_15
REMARK    6  A    between atoms: C_15  and  C_16
REMARK    7  A    between atoms: C_16  and  C_17
REMARK                            x       y       z     vdW  Elec       q    Type
REMARK                         _______ _______ _______ _____ _____    ______ ____
ROOT
ATOM      1  C   UNL     1      37.855   4.183  16.519  0.00  0.00    +0.000 A 
ATOM      2  C   UNL     1      37.142   3.137  17.069  0.00  0.00    +0.000 A 
ATOM      3  C   UNL     1      36.671   2.069  16.338  0.00  0.00    +0.000 A 
ATOM      4  C   UNL     1      36.923   2.046  15.006  0.00  0.00    +0.000 A 
ATOM      5  C   UNL     1      36.454   0.984  14.278  0.00  0.00    +0.000 A 
ATOM      6  C   UNL     1      36.718   0.971  12.913  0.00  0.00    +0.000 A 
ATOM      7  C   UNL     1      37.428   1.995  12.313  0.00  0.00    +0.000 A 
ATOM      8  C   UNL     1      37.877   3.037  13.081  0.00  0.00    +0.000 A 
ATOM      9  C   UNL     1      37.641   3.094  14.437  0.00  0.00    +0.000 A 
ATOM     10  N   UNL     1      38.082   4.119  15.193  0.00  0.00    +0.000 NA
ENDROOT
BRANCH   1  14
ATOM     11  C   UNL     1      39.240   7.491  18.868  0.00  0.00    +0.000 A 
ATOM     12  C   UNL     1      38.596   7.678  17.666  0.00  0.00    +0.000 A 
ATOM     13  C   UNL     1      38.152   6.602  16.911  0.00  0.00    +0.000 A 
ATOM     14  C   UNL     1      38.333   5.297  17.329  0.00  0.00    +0.000 A 
ATOM     15  C   UNL     1      38.978   5.119  18.532  0.00  0.00    +0.000 A 
ATOM     16  C   UNL     1      39.426   6.186  19.293  0.00  0.00    +0.000 A 
BRANCH  11  18
ATOM     17  C   UNL     1      38.841   9.195  20.550  0.00  0.00    +0.000 C 
ATOM     18  O   UNL     1      39.676   8.581  19.609  0.00  0.00    +0.000 OA
ENDBRANCH  11  18
ENDBRANCH   1  14
BRANCH   3  19
ATOM     19  C   UNL     1      35.928   1.037  17.055  0.00  0.00    +0.000 C 
ATOM     20  O   UNL     1      34.671   1.009  17.063  0.00  0.00    +0.000 OA
ATOM     21  N   UNL     1      36.615   0.066  17.742  0.00  0.00    +0.000 NA
BRANCH  21  22
ATOM     22  C   UNL     1      35.834  -1.066  18.528  0.00  0.00    +0.000 C 
ATOM     23  C   UNL     1      37.109  -1.612  19.445  0.00  0.00    +0.000 C 
BRANCH  22  24
ATOM     24  C   UNL     1      36.139  -2.212  17.333  0.00  0.00    +0.000 C 
BRANCH  24  25
ATOM     25  C   UNL     1      37.647  -2.107  17.252  0.00  0.00    +0.000 C 
BRANCH  25  26
ATOM     26  C   UNL     1      38.106  -2.049  15.829  0.00  0.00    +0.000 A 
ATOM     27  C   UNL     1      39.171  -1.266  15.499  0.00  0.00    +0.000 A 
ATOM     28  C   UNL     1      39.589  -1.218  14.194  0.00  0.00    +0.000 A 
ATOM     29  C   UNL     1      38.935  -1.961  13.209  0.00  0.00    +0.000 A 
ATOM     30  C   UNL     1      37.854  -2.752  13.555  0.00  0.00    +0.000 A 
ATOM     31  C   UNL     1      37.449  -2.789  14.867  0.00  0.00    +0.000 A 
ENDBRANCH  25  26
ENDBRANCH  24  25
ENDBRANCH  22  24
ENDBRANCH  21  22
ENDBRANCH   3  19
TORSDOF 7
ENDMDL
MODEL 3
REMARK VINA RESULT:      -7.8      2.728      8.867
REMARK  Name = 
REMARK  7 active torsions:
REMARK  status: ('A' for Active; 'I' for Inactive)
REMARK    1  A    between atoms: O_2  and  C_3
REMARK    2  A    between atoms: C_6  and  C_7
REMARK    3  A    between atoms: C_9  and  C_10
REMARK    4  A    between atoms: N_12  and  C_13
REMARK    5  A    between atoms: C_13  and  C_15
REMARK    6  A    between atoms: C_15  and  C_16
REMARK    7  A    between atoms: C_16  and  C_17
REMARK                            x       y       z     vdW  Elec       q    Type
REMARK                         _______ _______ _______ _____ _____    ______ ____
ROOT
ATOM      1  C   UNL     1      38.585  -1.349  14.760  0.00  0.00    +0.000 A 
ATOM      2  C   UNL     1      38.327   0.007  14.775  0.00  0.00    +0.000 A 
ATOM      3  C   UNL     1      37.222   0.565  15.380  0.00  0.00    +0.000 A 
ATOM      4  C   UNL     1      36.343  -0.265  15.994  0.00  0.00    +0.000 A 
ATOM      5  C   UNL     1      35.243   0.289  16.595  0.00  0.00    +0.000 A 
ATOM      6  C   UNL     1      34.349  -0.571  17.221  0.00  0.00    +0.000 A 
ATOM      7  C   UNL     1      34.561  -1.938  17.235  0.00  0.00    +0.000 A 
ATOM      8  C   UNL     1      35.675  -2.447  16.619  0.00  0.00    +0.000 A 
ATOM      9  C   UNL     1      36.591  -1.635  15.987  0.00  0.00    +0.000 A 
ATOM     10  N   UNL     1      37.685  -2.135  15.381  0.00  0.00    +0.000 NA
ENDROOT
BRANCH   1  14
ATOM     11  C   UNL     1      42.028  -2.980  12.794  0.00  0.00    +0.000 A 
ATOM     12  C   UNL     1      40.766  -3.097  12.256  0.00  0.00    +0.000 A 
ATOM     13  C   UNL     1      39.657  -2.567  12.899  0.00  0.00    +0.000 A 
ATOM     14  C   UNL     1      39.766  -1.899  14.104  0.00  0.00    +0.000 A 
ATOM     15  C   UNL     1      41.031  -1.787  14.635  0.00  0.00    +0.000 A 
ATOM     16  C   UNL     1      42.145  -2.312  14.002  0.00  0.00    +0.000 A 
BRANCH  11  18
ATOM     17  C   UNL     1      44.411  -3.428  12.682  0.00  0.00    +0.000 C 
ATOM     18  O   UNL     1      43.126  -3.516  12.134  0.00  0.00    +0.000 OA
ENDBRANCH  11  18
ENDBRANCH   1  14
BRANCH   3  19
ATOM     19  C   UNL     1      37.078   2.015  15.312  0.00  0.00    +0.000 C 
ATOM     20  O   UNL     1      36.321   2.569  14.473  0.00  0.00    +0.000 OA
ATOM     21  N   UNL     1      37.784   2.805  16.185  0.00  0.00    +0.000 NA
BRANCH  21  22
ATOM     22  C   UNL     1      37.645   4.382  16.135  0.00  0.00    +0.000 C 
ATOM     23  C   UNL     1      39.022   4.694  15.257  0.00  0.00    +0.000 C 
BRANCH  22  24
ATOM     24  C   UNL     1      38.468   4.578  17.589  0.00  0.00    +0.000 C 
BRANCH  24  25
ATOM     25  C   UNL     1      38.992   5.987  17.403  0.00  0.00    +0.000 C 
BRANCH  25  26
ATOM     26  C   UNL     1      40.226   6.213  18.219  0.00  0.00    +0.000 A 
ATOM     27  C   UNL     1      41.421   6.398  17.591  0.00  0.00    +0.000 A 
ATOM     28  C   UNL     1      42.548   6.608  18.343  0.00  0.00    +0.000 A 
ATOM     29  C   UNL     1      42.479   6.632  19.737  0.00  0.00    +0.000 A 
ATOM     30  C   UNL     1      41.262   6.443  20.365  0.00  0.00    +0.000 A 
ATOM     31  C   UNL     1      40.142   6.234  19.596  0.00  0.00    +0.000 A 
ENDBRANCH  25  26
ENDBRANCH  24  25
ENDBRANCH  22  24
ENDBRANCH  21  22
ENDBRANCH   3  19
TORSDOF 7
ENDMDL
MODEL 4
REMARK VINA RESULT:      -7.3      4.269      5.818
REMARK  Name = 
REMARK  7 active torsions:
REMARK  status: ('A' for Active; 'I' for Inactive)
REMARK    1  A    between atoms: O_2  and  C_3
REMARK    2  A    between atoms: C_6  and  C_7
REMARK    3  A    between atoms: C_9  and  C_10
REMARK    4  A    between atoms: N_12  and  C_13
REMARK    5  A    between atoms: C_13  and  C_15
REMARK    6  A    between atoms: C_15  and  C_16
REMARK    7  A    between atoms: C_16  and  C_17
REMARK                            x       y       z     vdW  Elec       q    Type
REMARK                         _______ _______ _______ _____ _____    ______ ____
ROOT
ATOM      1  C   UNL     1      35.816   3.615  14.338  0.00  0.00    +0.000 A 
ATOM      2  C   UNL     1      37.014   3.013  14.010  0.00  0.00    +0.000 A 
ATOM      3  C   UNL     1      37.444   1.826  14.560  0.00  0.00    +0.000 A 
ATOM      4  C   UNL     1      36.646   1.218  15.471  0.00  0.00    +0.000 A 
ATOM      5  C   UNL     1      37.074   0.037  16.020  0.00  0.00    +0.000 A 
ATOM      6  C   UNL     1      36.246  -0.578  16.954  0.00  0.00    +0.000 A 
ATOM      7  C   UNL     1      35.036  -0.015  17.316  0.00  0.00    +0.000 A 
ATOM      8  C   UNL     1      34.650   1.167  16.742  0.00  0.00    +0.000 A 
ATOM      9  C   UNL     1      35.434   1.814  15.811  0.00  0.00    +0.000 A 
ATOM     10  N   UNL     1      35.056   2.976  15.247  0.00  0.00    +0.000 NA
ENDROOT
BRANCH   1  14
ATOM     11  C   UNL     1      34.619   7.311  12.524  0.00  0.00    +0.000 A 
ATOM     12  C   UNL     1      35.599   6.519  11.970  0.00  0.00    +0.000 A 
ATOM     13  C   UNL     1      35.981   5.325  12.564  0.00  0.00    +0.000 A 
ATOM     14  C   UNL     1      35.399   4.876  13.734  0.00  0.00    +0.000 A 
ATOM     15  C   UNL     1      34.420   5.674  14.281  0.00  0.00    +0.000 A 
ATOM     16  C   UNL     1      34.031   6.868  13.697  0.00  0.00    +0.000 A 
BRANCH  11  18
ATOM     17  C   UNL     1      34.525   9.737  12.516  0.00  0.00    +0.000 C 
ATOM     18  O   UNL     1      34.250   8.503  11.914  0.00  0.00    +0.000 OA
ENDBRANCH  11  18
ENDBRANCH   1  14
BRANCH   3  19
ATOM     19  C   UNL     1      38.736   1.309  14.120  0.00  0.00    +0.000 C 
ATOM     20  O   UNL     1      39.799   1.560  14.745  0.00  0.00    +0.000 OA
ATOM     21  N   UNL     1      38.802   0.526  12.994  0.00  0.00    +0.000 NA
BRANCH  21  22
ATOM     22  C   UNL     1      40.191  -0.049  12.495  0.00  0.00    +0.000 C 
ATOM     23  C   UNL     1      39.863  -0.026  10.865  0.00  0.00    +0.000 C 
BRANCH  22  24
ATOM     24  C   UNL     1      39.667  -1.642  12.629  0.00  0.00    +0.000 C 
BRANCH  24  25
ATOM     25  C   UNL     1      40.223  -1.983  13.995  0.00  0.00    +0.000 C 
BRANCH  25  26
ATOM     26  C   UNL     1      39.219  -2.735  14.811  0.00  0.00    +0.000 A 
ATOM     27  C   UNL     1      39.536  -3.116  16.081  0.00  0.00    +0.000 A 
ATOM     28  C   UNL     1      38.611  -3.803  16.825  0.00  0.00    +0.000 A 
ATOM     29  C   UNL     1      37.357  -4.112  16.294  0.00  0.00    +0.000 A 
ATOM     30  C   UNL     1      37.046  -3.721  15.004  0.00  0.00    +0.000 A 
ATOM     31  C   UNL     1      37.984  -3.034  14.272  0.00  0.00    +0.000 A 
ENDBRANCH  25  26
ENDBRANCH  24  25
ENDBRANCH  22  24
ENDBRANCH  21  22
ENDBRANCH   3  19
TORSDOF 7
ENDMDL
MODEL 5
REMARK VINA RESULT:      -7.2      3.752      8.098
REMARK  Name = 
REMARK  7 active torsions:
REMARK  status: ('A' for Active; 'I' for Inactive)
REMARK    1  A    between atoms: O_2  and  C_3
REMARK    2  A    between atoms: C_6  and  C_7
REMARK    3  A    between atoms: C_9  and  C_10
REMARK    4  A    between atoms: N_12  and  C_13
REMARK    5  A    between atoms: C_13  and  C_15
REMARK    6  A    between atoms: C_15  and  C_16
REMARK    7  A    between atoms: C_16  and  C_17
REMARK                            x       y       z     vdW  Elec       q    Type
REMARK                         _______ _______ _______ _____ _____    ______ ____
ROOT
ATOM      1  C   UNL     1      38.533  -2.398  14.532  0.00  0.00    +0.000 A 
ATOM      2  C   UNL     1      38.064  -1.305  15.231  0.00  0.00    +0.000 A 
ATOM      3  C   UNL     1      36.802  -1.237  15.779  0.00  0.00    +0.000 A 
ATOM      4  C   UNL     1      35.979  -2.302  15.621  0.00  0.00    +0.000 A 
ATOM      5  C   UNL     1      34.723  -2.234  16.164  0.00  0.00    +0.000 A 
ATOM      6  C   UNL     1      33.887  -3.333  15.996  0.00  0.00    +0.000 A 
ATOM      7  C   UNL     1      34.309  -4.453  15.303  0.00  0.00    +0.000 A 
ATOM      8  C   UNL     1      35.574  -4.475  14.776  0.00  0.00    +0.000 A 
ATOM      9  C   UNL     1      36.439  -3.412  14.917  0.00  0.00    +0.000 A 
ATOM     10  N   UNL     1      37.682  -3.433  14.399  0.00  0.00    +0.000 NA
ENDROOT
BRANCH   1  14
ATOM     11  C   UNL     1      42.463  -2.501  12.820  0.00  0.00    +0.000 A 
ATOM     12  C   UNL     1      41.351  -2.875  12.099  0.00  0.00    +0.000 A 
ATOM     13  C   UNL     1      40.083  -2.840  12.661  0.00  0.00    +0.000 A 
ATOM     14  C   UNL     1      39.877  -2.429  13.964  0.00  0.00    +0.000 A 
ATOM     15  C   UNL     1      40.994  -2.057  14.678  0.00  0.00    +0.000 A 
ATOM     16  C   UNL     1      42.264  -2.088  14.127  0.00  0.00    +0.000 A 
BRANCH  11  18
ATOM     17  C   UNL     1      44.545  -3.668  12.376  0.00  0.00    +0.000 C 
ATOM     18  O   UNL     1      43.724  -2.542  12.239  0.00  0.00    +0.000 OA
ENDBRANCH  11  18
ENDBRANCH   1  14
BRANCH   3  19
ATOM     19  C   UNL     1      36.442  -0.014  16.489  0.00  0.00    +0.000 C 
ATOM     20  O   UNL     1      36.689   0.141  17.713  0.00  0.00    +0.000 OA
ATOM     21  N   UNL     1      35.816   1.001  15.809  0.00  0.00    +0.000 NA
BRANCH  21  22
ATOM     22  C   UNL     1      35.414   2.340  16.554  0.00  0.00    +0.000 C 
ATOM     23  C   UNL     1      34.500   3.003  15.333  0.00  0.00    +0.000 C 
BRANCH  22  24
ATOM     24  C   UNL     1      36.795   3.140  16.023  0.00  0.00    +0.000 C 
BRANCH  24  25
ATOM     25  C   UNL     1      36.648   2.948  14.529  0.00  0.00    +0.000 C 
BRANCH  25  26
ATOM     26  C   UNL     1      37.849   2.263  13.954  0.00  0.00    +0.000 A 
ATOM     27  C   UNL     1      39.033   2.310  14.626  0.00  0.00    +0.000 A 
ATOM     28  C   UNL     1      40.129   1.678  14.097  0.00  0.00    +0.000 A 
ATOM     29  C   UNL     1      40.040   0.994  12.883  0.00  0.00    +0.000 A 
ATOM     30  C   UNL     1      38.833   0.953  12.209  0.00  0.00    +0.000 A 
ATOM     31  C   UNL     1      37.744   1.591  12.754  0.00  0.00    +0.000 A 
ENDBRANCH  25  26
ENDBRANCH  24  25
ENDBRANCH  22  24
ENDBRANCH  21  22
ENDBRANCH   3  19
TORSDOF 7
ENDMDL
MODEL 6
REMARK VINA RESULT:      -7.2      2.981      8.369
REMARK  Name = 
REMARK  7 active torsions:
REMARK  status: ('A' for Active; 'I' for Inactive)
REMARK    1  A    between atoms: O_2  and  C_3
REMARK    2  A    between atoms: C_6  and  C_7
REMARK    3  A    between atoms: C_9  and  C_10
REMARK    4  A    between atoms: N_12  and  C_13
REMARK    5  A    between atoms: C_13  and  C_15
REMARK    6  A    between atoms: C_15  and  C_16
REMARK    7  A    between atoms: C_16  and  C_17
REMARK                            x       y       z     vdW  Elec       q    Type
REMARK                         _______ _______ _______ _____ _____    ______ ____
ROOT
ATOM      1  C   UNL     1      39.225  -1.876  14.637  0.00  0.00    +0.000 A 
ATOM      2  C   UNL     1      38.613  -0.772  15.195  0.00  0.00    +0.000 A 
ATOM      3  C   UNL     1      37.310  -0.770  15.643  0.00  0.00    +0.000 A 
ATOM      4  C   UNL     1      36.594  -1.916  15.530  0.00  0.00    +0.000 A 
ATOM      5  C   UNL     1      35.298  -1.914  15.975  0.00  0.00    +0.000 A 
ATOM      6  C   UNL     1      34.573  -3.095  15.855  0.00  0.00    +0.000 A 
ATOM      7  C   UNL     1      35.141  -4.229  15.303  0.00  0.00    +0.000 A 
ATOM      8  C   UNL     1      36.441  -4.183  14.871  0.00  0.00    +0.000 A 
ATOM      9  C   UNL     1      37.200  -3.038  14.970  0.00  0.00    +0.000 A 
ATOM     10  N   UNL     1      38.477  -2.992  14.544  0.00  0.00    +0.000 NA
ENDROOT
BRANCH   1  14
ATOM     11  C   UNL     1      43.292  -1.712  13.290  0.00  0.00    +0.000 A 
ATOM     12  C   UNL     1      42.712  -0.662  13.965  0.00  0.00    +0.000 A 
ATOM     13  C   UNL     1      41.395  -0.723  14.397  0.00  0.00    +0.000 A 
ATOM     14  C   UNL     1      40.607  -1.835  14.171  0.00  0.00    +0.000 A 
ATOM     15  C   UNL     1      41.195  -2.880  13.495  0.00  0.00    +0.000 A 
ATOM     16  C   UNL     1      42.508  -2.830  13.059  0.00  0.00    +0.000 A 
BRANCH  11  18
ATOM     17  C   UNL     1      45.573  -2.541  13.325  0.00  0.00    +0.000 C 
ATOM     18  O   UNL     1      44.612  -1.632  12.867  0.00  0.00    +0.000 OA
ENDBRANCH  11  18
ENDBRANCH   1  14
BRANCH   3  19
ATOM     19  C   UNL     1      36.794   0.473  16.207  0.00  0.00    +0.000 C 
ATOM     20  O   UNL     1      36.607   0.615  17.442  0.00  0.00    +0.000 OA
ATOM     21  N   UNL     1      36.503   1.522  15.370  0.00  0.00    +0.000 NA
BRANCH  21  22
ATOM     22  C   UNL     1      35.942   2.884  15.953  0.00  0.00    +0.000 C 
ATOM     23  C   UNL     1      35.464   3.559  14.511  0.00  0.00    +0.000 C 
BRANCH  22  24
ATOM     24  C   UNL     1      37.446   3.631  15.863  0.00  0.00    +0.000 C 
BRANCH  24  25
ATOM     25  C   UNL     1      37.585   4.110  17.293  0.00  0.00    +0.000 C 
BRANCH  25  26
ATOM     26  C   UNL     1      38.811   4.951  17.462  0.00  0.00    +0.000 A 
ATOM     27  C   UNL     1      39.540   5.302  16.365  0.00  0.00    +0.000 A 
ATOM     28  C   UNL     1      40.661   6.075  16.526  0.00  0.00    +0.000 A 
ATOM     29  C   UNL     1      41.058   6.500  17.795  0.00  0.00    +0.000 A 
ATOM     30  C   UNL     1      40.311   6.137  18.902  0.00  0.00    +0.000 A 
ATOM     31  C   UNL     1      39.190   5.362  18.723  0.00  0.00    +0.000 A 
ENDBRANCH  25  26
ENDBRANCH  24  25
ENDBRANCH  22  24
ENDBRANCH  21  22
ENDBRANCH   3  19
TORSDOF 7
ENDMDL
MODEL 7
REMARK VINA RESULT:      -7.2      1.905      3.890
REMARK  Name = 
REMARK  7 active torsions:
REMARK  status: ('A' for Active; 'I' for Inactive)
REMARK    1  A    between atoms: O_2  and  C_3
REMARK    2  A    between atoms: C_6  and  C_7
REMARK    3  A    between atoms: C_9  and  C_10
REMARK    4  A    between atoms: N_12  and  C_13
REMARK    5  A    between atoms: C_13  and  C_15
REMARK    6  A    between atoms: C_15  and  C_16
REMARK    7  A    between atoms: C_16  and  C_17
REMARK                            x       y       z     vdW  Elec       q    Type
REMARK                         _______ _______ _______ _____ _____    ______ ____
ROOT
ATOM      1  C   UNL     1      37.901   3.775  16.646  0.00  0.00    +0.000 A 
ATOM      2  C   UNL     1      38.490   3.275  15.503  0.00  0.00    +0.000 A 
ATOM      3  C   UNL     1      38.117   2.089  14.910  0.00  0.00    +0.000 A 
ATOM      4  C   UNL     1      37.115   1.377  15.483  0.00  0.00    +0.000 A 
ATOM      5  C   UNL     1      36.744   0.196  14.895  0.00  0.00    +0.000 A 
ATOM      6  C   UNL     1      35.715  -0.526  15.491  0.00  0.00    +0.000 A 
ATOM      7  C   UNL     1      35.092  -0.068  16.637  0.00  0.00    +0.000 A 
ATOM      8  C   UNL     1      35.498   1.118  17.191  0.00  0.00    +0.000 A 
ATOM      9  C   UNL     1      36.511   1.870  16.637  0.00  0.00    +0.000 A 
ATOM     10  N   UNL     1      36.911   3.035  17.181  0.00  0.00    +0.000 NA
ENDROOT
BRANCH   1  14
ATOM     11  C   UNL     1      39.181   7.453  18.441  0.00  0.00    +0.000 A 
ATOM     12  C   UNL     1      39.355   6.242  19.072  0.00  0.00    +0.000 A 
ATOM     13  C   UNL     1      38.937   5.057  18.485  0.00  0.00    +0.000 A 
ATOM     14  C   UNL     1      38.329   5.035  17.244  0.00  0.00    +0.000 A 
ATOM     15  C   UNL     1      38.159   6.250  16.620  0.00  0.00    +0.000 A 
ATOM     16  C   UNL     1      38.572   7.439  17.196  0.00  0.00    +0.000 A 
BRANCH  11  18
ATOM     17  C   UNL     1      40.620   8.617  20.012  0.00  0.00    +0.000 C 
ATOM     18  O   UNL     1      39.607   8.628  19.045  0.00  0.00    +0.000 OA
ENDBRANCH  11  18
ENDBRANCH   1  14
BRANCH   3  19
ATOM     19  C   UNL     1      38.833   1.683  13.705  0.00  0.00    +0.000 C 
ATOM     20  O   UNL     1      38.808   2.372  12.653  0.00  0.00    +0.000 OA
ATOM     21  N   UNL     1      39.558   0.517  13.713  0.00  0.00    +0.000 NA
BRANCH  21  22
ATOM     22  C   UNL     1      40.347   0.052  12.420  0.00  0.00    +0.000 C 
ATOM     23  C   UNL     1      39.028  -0.381  11.505  0.00  0.00    +0.000 C 
BRANCH  22  24
ATOM     24  C   UNL     1      40.524  -1.517  12.999  0.00  0.00    +0.000 C 
BRANCH  24  25
ATOM     25  C   UNL     1      39.134  -2.052  12.728  0.00  0.00    +0.000 C 
BRANCH  25  26
ATOM     26  C   UNL     1      38.580  -2.744  13.934  0.00  0.00    +0.000 A 
ATOM     27  C   UNL     1      37.404  -3.426  13.835  0.00  0.00    +0.000 A 
ATOM     28  C   UNL     1      36.902  -4.060  14.942  0.00  0.00    +0.000 A 
ATOM     29  C   UNL     1      37.583  -4.012  16.161  0.00  0.00    +0.000 A 
ATOM     30  C   UNL     1      38.776  -3.317  16.250  0.00  0.00    +0.000 A 
ATOM     31  C   UNL     1      39.264  -2.687  15.131  0.00  0.00    +0.000 A 
ENDBRANCH  25  26
ENDBRANCH  24  25
ENDBRANCH  22  24
ENDBRANCH  21  22
ENDBRANCH   3  19
TORSDOF 7
ENDMDL
MODEL 8
REMARK VINA RESULT:      -7.0      3.713      6.399
REMARK  Name = 
REMARK  7 active torsions:
REMARK  status: ('A' for Active; 'I' for Inactive)
REMARK    1  A    between atoms: O_2  and  C_3
REMARK    2  A    between atoms: C_6  and  C_7
REMARK    3  A    between atoms: C_9  and  C_10
REMARK    4  A    between atoms: N_12  and  C_13
REMARK    5  A    between atoms: C_13  and  C_15
REMARK    6  A    between atoms: C_15  and  C_16
REMARK    7  A    between atoms: C_16  and  C_17
REMARK                            x       y       z     vdW  Elec       q    Type
REMARK                         _______ _______ _______ _____ _____    ______ ____
ROOT
ATOM      1  C   UNL     1      37.075   0.385  15.931  0.00  0.00    +0.000 A 
ATOM      2  C   UNL     1      37.621  -0.479  15.004  0.00  0.00    +0.000 A 
ATOM      3  C   UNL     1      38.152  -1.707  15.329  0.00  0.00    +0.000 A 
ATOM      4  C   UNL     1      38.136  -2.086  16.630  0.00  0.00    +0.000 A 
ATOM      5  C   UNL     1      38.666  -3.307  16.955  0.00  0.00    +0.000 A 
ATOM      6  C   UNL     1      38.644  -3.685  18.293  0.00  0.00    +0.000 A 
ATOM      7  C   UNL     1      38.108  -2.856  19.261  0.00  0.00    +0.000 A 
ATOM      8  C   UNL     1      37.590  -1.642  18.889  0.00  0.00    +0.000 A 
ATOM      9  C   UNL     1      37.588  -1.224  17.577  0.00  0.00    +0.000 A 
ATOM     10  N   UNL     1      37.080  -0.032  17.211  0.00  0.00    +0.000 NA
ENDROOT
BRANCH   1  14
ATOM     11  C   UNL     1      35.413   4.169  14.790  0.00  0.00    +0.000 A 
ATOM     12  C   UNL     1      34.678   3.008  14.722  0.00  0.00    +0.000 A 
ATOM     13  C   UNL     1      35.223   1.787  15.092  0.00  0.00    +0.000 A 
ATOM     14  C   UNL     1      36.524   1.680  15.545  0.00  0.00    +0.000 A 
ATOM     15  C   UNL     1      37.253   2.846  15.610  0.00  0.00    +0.000 A 
ATOM     16  C   UNL     1      36.718   4.070  15.243  0.00  0.00    +0.000 A 
BRANCH  11  18
ATOM     17  C   UNL     1      35.106   5.939  13.157  0.00  0.00    +0.000 C 
ATOM     18  O   UNL     1      34.849   5.382  14.415  0.00  0.00    +0.000 OA
ENDBRANCH  11  18
ENDBRANCH   1  14
BRANCH   3  19
ATOM     19  C   UNL     1      38.700  -2.512  14.242  0.00  0.00    +0.000 C 
ATOM     20  O   UNL     1      38.064  -3.476  13.743  0.00  0.00    +0.000 OA
ATOM     21  N   UNL     1      39.946  -2.216  13.745  0.00  0.00    +0.000 NA
BRANCH  21  22
ATOM     22  C   UNL     1      40.565  -3.072  12.565  0.00  0.00    +0.000 C 
ATOM     23  C   UNL     1      42.030  -2.292  12.475  0.00  0.00    +0.000 C 
BRANCH  22  24
ATOM     24  C   UNL     1      39.902  -2.070  11.387  0.00  0.00    +0.000 C 
BRANCH  24  25
ATOM     25  C   UNL     1      40.509  -0.747  11.801  0.00  0.00    +0.000 C 
BRANCH  25  26
ATOM     26  C   UNL     1      39.468   0.327  11.861  0.00  0.00    +0.000 A 
ATOM     27  C   UNL     1      38.185   0.037  11.507  0.00  0.00    +0.000 A 
ATOM     28  C   UNL     1      37.234   1.023  11.566  0.00  0.00    +0.000 A 
ATOM     29  C   UNL     1      37.571   2.313  11.982  0.00  0.00    +0.000 A 
ATOM     30  C   UNL     1      38.877   2.597  12.338  0.00  0.00    +0.000 A 
ATOM     31  C   UNL     1      39.817   1.596  12.273  0.00  0.00    +0.000 A 
ENDBRANCH  25  26
ENDBRANCH  24  25
ENDBRANCH  22  24
ENDBRANCH  21  22
ENDBRANCH   3  19
TORSDOF 7
ENDMDL
MODEL 9
REMARK VINA RESULT:      -6.9      3.485      6.155
REMARK  Name = 
REMARK  7 active torsions:
REMARK  status: ('A' for Active; 'I' for Inactive)
REMARK    1  A    between atoms: O_2  and  C_3
REMARK    2  A    between atoms: C_6  and  C_7
REMARK    3  A    between atoms: C_9  and  C_10
REMARK    4  A    between atoms: N_12  and  C_13
REMARK    5  A    between atoms: C_13  and  C_15
REMARK    6  A    between atoms: C_15  and  C_16
REMARK    7  A    between atoms: C_16  and  C_17
REMARK                            x       y       z     vdW  Elec       q    Type
REMARK                         _______ _______ _______ _____ _____    ______ ____
ROOT
ATOM      1  C   UNL     1      41.753   6.751  19.815  0.00  0.00    +0.000 A 
ATOM      2  C   UNL     1      41.208   6.112  18.720  0.00  0.00    +0.000 A 
ATOM      3  C   UNL     1      39.928   6.342  18.265  0.00  0.00    +0.000 A 
ATOM      4  C   UNL     1      39.166   7.244  18.930  0.00  0.00    +0.000 A 
ATOM      5  C   UNL     1      37.892   7.472  18.479  0.00  0.00    +0.000 A 
ATOM      6  C   UNL     1      37.119   8.400  19.169  0.00  0.00    +0.000 A 
ATOM      7  C   UNL     1      37.619   9.067  20.272  0.00  0.00    +0.000 A 
ATOM      8  C   UNL     1      38.899   8.806  20.688  0.00  0.00    +0.000 A 
ATOM      9  C   UNL     1      39.703   7.896  20.037  0.00  0.00    +0.000 A 
ATOM     10  N   UNL     1      40.961   7.639  20.445  0.00  0.00    +0.000 NA
ENDROOT
BRANCH   1  14
ATOM     11  C   UNL     1      45.731   5.921  21.182  0.00  0.00    +0.000 A 
ATOM     12  C   UNL     1      44.627   5.611  21.943  0.00  0.00    +0.000 A 
ATOM     13  C   UNL     1      43.343   5.885  21.493  0.00  0.00    +0.000 A 
ATOM     14  C   UNL     1      43.113   6.477  20.266  0.00  0.00    +0.000 A 
ATOM     15  C   UNL     1      44.223   6.783  19.512  0.00  0.00    +0.000 A 
ATOM     16  C   UNL     1      45.509   6.516  19.951  0.00  0.00    +0.000 A 
BRANCH  11  18
ATOM     17  C   UNL     1      47.586   4.379  21.454  0.00  0.00    +0.000 C 
ATOM     18  O   UNL     1      47.008   5.639  21.649  0.00  0.00    +0.000 OA
ENDBRANCH  11  18
ENDBRANCH   1  14
BRANCH   3  19
ATOM     19  C   UNL     1      39.484   5.589  17.097  0.00  0.00    +0.000 C 
ATOM     20  O   UNL     1      39.931   5.825  15.945  0.00  0.00    +0.000 OA
ATOM     21  N   UNL     1      38.552   4.592  17.251  0.00  0.00    +0.000 NA
BRANCH  21  22
ATOM     22  C   UNL     1      38.052   3.758  16.001  0.00  0.00    +0.000 C 
ATOM     23  C   UNL     1      37.059   4.919  15.347  0.00  0.00    +0.000 C 
BRANCH  22  24
ATOM     24  C   UNL     1      36.777   3.082  16.864  0.00  0.00    +0.000 C 
BRANCH  24  25
ATOM     25  C   UNL     1      35.983   2.478  15.725  0.00  0.00    +0.000 C 
BRANCH  25  26
ATOM     26  C   UNL     1      35.730   1.021  15.959  0.00  0.00    +0.000 A 
ATOM     27  C   UNL     1      36.356   0.098  15.176  0.00  0.00    +0.000 A 
ATOM     28  C   UNL     1      36.122  -1.235  15.395  0.00  0.00    +0.000 A 
ATOM     29  C   UNL     1      35.255  -1.649  16.408  0.00  0.00    +0.000 A 
ATOM     30  C   UNL     1      34.625  -0.703  17.197  0.00  0.00    +0.000 A 
ATOM     31  C   UNL     1      34.870   0.629  16.963  0.00  0.00    +0.000 A 
ENDBRANCH  25  26
ENDBRANCH  24  25
ENDBRANCH  22  24
ENDBRANCH  21  22
ENDBRANCH   3  19
TORSDOF 7
ENDMDL
MODEL 10
REMARK VINA RESULT:      -6.7      4.223      7.988
REMARK  Name = 
REMARK  7 active torsions:
REMARK  status: ('A' for Active; 'I' for Inactive)
REMARK    1  A    between atoms: O_2  and  C_3
REMARK    2  A    between atoms: C_6  and  C_7
REMARK    3  A    between atoms: C_9  and  C_10
REMARK    4  A    between atoms: N_12  and  C_13
REMARK    5  A    between atoms: C_13  and  C_15
REMARK    6  A    between atoms: C_15  and  C_16
REMARK    7  A    between atoms: C_16  and  C_17
REMARK                            x       y       z     vdW  Elec       q    Type
REMARK                         _______ _______ _______ _____ _____    ______ ____
ROOT
ATOM      1  C   UNL     1      41.328  -1.497  14.513  0.00  0.00    +0.000 A 
ATOM      2  C   UNL     1      40.343  -0.658  14.032  0.00  0.00    +0.000 A 
ATOM      3  C   UNL     1      39.007  -0.799  14.339  0.00  0.00    +0.000 A 
ATOM      4  C   UNL     1      38.644  -1.816  15.158  0.00  0.00    +0.000 A 
ATOM      5  C   UNL     1      37.315  -1.958  15.462  0.00  0.00    +0.000 A 
ATOM      6  C   UNL     1      36.954  -3.005  16.303  0.00  0.00    +0.000 A 
ATOM      7  C   UNL     1      37.903  -3.873  16.812  0.00  0.00    +0.000 A 
ATOM      8  C   UNL     1      39.220  -3.693  16.479  0.00  0.00    +0.000 A 
ATOM      9  C   UNL     1      39.627  -2.670  15.651  0.00  0.00    +0.000 A 
ATOM     10  N   UNL     1      40.921  -2.494  15.322  0.00  0.00    +0.000 NA
ENDROOT
BRANCH   1  14
ATOM     11  C   UNL     1      45.452  -1.004  13.451  0.00  0.00    +0.000 A 
ATOM     12  C   UNL     1      44.742  -2.125  13.086  0.00  0.00    +0.000 A 
ATOM     13  C   UNL     1      43.407  -2.277  13.435  0.00  0.00    +0.000 A 
ATOM     14  C   UNL     1      42.731  -1.315  14.161  0.00  0.00    +0.000 A 
ATOM     15  C   UNL     1      43.450  -0.197  14.521  0.00  0.00    +0.000 A 
ATOM     16  C   UNL     1      44.781  -0.035  14.179  0.00  0.00    +0.000 A 
BRANCH  11  18
ATOM     17  C   UNL     1      47.629  -1.986  13.015  0.00  0.00    +0.000 C 
ATOM     18  O   UNL     1      46.787  -0.870  13.091  0.00  0.00    +0.000 OA
ENDBRANCH  11  18
ENDBRANCH   1  14
BRANCH   3  19
ATOM     19  C   UNL     1      38.077   0.161  13.753  0.00  0.00    +0.000 C 
ATOM     20  O   UNL     1      37.526  -0.041  12.641  0.00  0.00    +0.000 OA
ATOM     21  N   UNL     1      37.789   1.321  14.431  0.00  0.00    +0.000 NA
BRANCH  21  22
ATOM     22  C   UNL     1      36.782   2.380  13.820  0.00  0.00    +0.000 C 
ATOM     23  C   UNL     1      37.048   3.595  14.923  0.00  0.00    +0.000 C 
BRANCH  22  24
ATOM     24  C   UNL     1      35.489   1.781  14.715  0.00  0.00    +0.000 C 
BRANCH  24  25
ATOM     25  C   UNL     1      35.970   2.105  16.113  0.00  0.00    +0.000 C 
BRANCH  25  26
ATOM     26  C   UNL     1      35.660   0.989  17.060  0.00  0.00    +0.000 A 
ATOM     27  C   UNL     1      34.673   0.102  16.751  0.00  0.00    +0.000 A 
ATOM     28  C   UNL     1      34.394  -0.920  17.621  0.00  0.00    +0.000 A 
ATOM     29  C   UNL     1      35.109  -1.057  18.813  0.00  0.00    +0.000 A 
ATOM     30  C   UNL     1      36.109  -0.151  19.117  0.00  0.00    +0.000 A 
ATOM     31  C   UNL     1      36.375   0.868  18.234  0.00  0.00    +0.000 A 
ENDBRANCH  25  26
ENDBRANCH  24  25
ENDBRANCH  22  24
ENDBRANCH  21  22
ENDBRANCH   3  19
TORSDOF 7
ENDMDL
