MODEL 1
REMARK VINA RESULT:      -7.5      0.000      0.000
REMARK  Name = 
REMARK  8 active torsions:
REMARK  status: ('A' for Active; 'I' for Inactive)
REMARK    1  A    between atoms: C_2  and  C_3
REMARK    2  A    between atoms: C_6  and  N_7
REMARK    3  A    between atoms: N_7  and  C_8
REMARK    4  A    between atoms: C_9  and  S_10
REMARK    5  A    between atoms: S_10  and  C_11
REMARK    6  A    between atoms: N_20  and  C_21
REMARK    7  A    between atoms: C_21  and  C_22
REMARK    8  A    between atoms: C_22  and  C_23
REMARK                            x       y       z     vdW  Elec       q    Type
REMARK                         _______ _______ _______ _____ _____    ______ ____
ROOT
ATOM      1  C   UNL     1      38.339   2.530  14.282  0.00  0.00    +0.000 C 
ATOM      2  C   UNL     1      37.230   2.224  14.978  0.00  0.00    +0.000 C 
ATOM      3  C   UNL     1      37.020   3.198  16.016  0.00  0.00    +0.000 C 
ATOM      4  O   UNL     1      36.113   3.300  16.895  0.00  0.00    +0.000 OA
ATOM      5  N   UNL     1      38.082   4.175  15.950  0.00  0.00    +0.000 N 
ATOM      6  C   UNL     1      38.878   3.734  14.871  0.00  0.00    +0.000 C 
ATOM      7  O   UNL     1      39.919   4.322  14.482  0.00  0.00    +0.000 OA
ENDROOT
BRANCH   1   8
ATOM      8  N   UNL     1      38.848   1.797  13.195  0.00  0.00    +0.000 NA
BRANCH   8  12
ATOM      9  C   UNL     1      40.845  -1.919  13.260  0.00  0.00    +0.000 A 
ATOM     10  C   UNL     1      40.048  -1.521  12.207  0.00  0.00    +0.000 A 
ATOM     11  C   UNL     1      39.404  -0.302  12.204  0.00  0.00    +0.000 A 
ATOM     12  C   UNL     1      39.542   0.577  13.284  0.00  0.00    +0.000 A 
ATOM     13  C   UNL     1      40.328   0.178  14.317  0.00  0.00    +0.000 A 
ATOM     14  C   UNL     1      40.974  -1.043  14.320  0.00  0.00    +0.000 A 
BRANCH   9  16
ATOM     15  C   UNL     1      42.109  -3.530  11.861  0.00  0.00    +0.000 C 
ATOM     16  C   UNL     1      41.543  -3.245  13.256  0.00  0.00    +0.000 C 
ENDBRANCH   9  16
ENDBRANCH   8  12
ENDBRANCH   1   8
BRANCH   2  17
ATOM     17  S   UNL     1      36.266   0.809  14.573  0.00  0.00    +0.000 S 
BRANCH  17  18
ATOM     18  C   UNL     1      36.925  -0.726  15.131  0.00  0.00    +0.000 A 
ATOM     19  C   UNL     1      37.449  -0.821  16.439  0.00  0.00    +0.000 A 
ATOM     20  C   UNL     1      37.974  -1.989  16.927  0.00  0.00    +0.000 A 
ATOM     21  C   UNL     1      38.027  -3.145  16.179  0.00  0.00    +0.000 A 
ATOM     22  C   UNL     1      38.599  -4.411  16.714  0.00  0.00    +0.000 C 
ATOM     23  C   UNL     1      37.518  -3.080  14.892  0.00  0.00    +0.000 A 
ATOM     24  C   UNL     1      36.997  -1.896  14.425  0.00  0.00    +0.000 A 
ENDBRANCH  17  18
ENDBRANCH   2  17
BRANCH   5  25
ATOM     25  C   UNL     1      38.232   5.317  16.821  0.00  0.00    +0.000 C 
BRANCH  25  26
ATOM     26  C   UNL     1      38.763   5.006  18.178  0.00  0.00    +0.000 C 
BRANCH  26  27
ATOM     27  C   UNL     1      40.024   5.743  18.398  0.00  0.00    +0.000 A 
ATOM     28  C   UNL     1      40.304   6.120  19.709  0.00  0.00    +0.000 A 
ATOM     29  C   UNL     1      41.467   6.811  19.978  0.00  0.00    +0.000 A 
ATOM     30  C   UNL     1      42.321   7.112  18.961  0.00  0.00    +0.000 A 
ATOM     31  C   UNL     1      42.080   6.758  17.647  0.00  0.00    +0.000 A 
ATOM     32  C   UNL     1      40.905   6.063  17.400  0.00  0.00    +0.000 A 
ENDBRANCH  26  27
ENDBRANCH  25  26
ENDBRANCH   5  25
TORSDOF 8
ENDMDL
MODEL 2
REMARK VINA RESULT:      -7.4      3.294      8.892
REMARK  Name = 
REMARK  8 active torsions:
REMARK  status: ('A' for Active; 'I' for Inactive)
REMARK    1  A    between atoms: C_2  and  C_3
REMARK    2  A    between atoms: C_6  and  N_7
REMARK    3  A    between atoms: N_7  and  C_8
REMARK    4  A    between atoms: C_9  and  S_10
REMARK    5  A    between atoms: S_10  and  C_11
REMARK    6  A    between atoms: N_20  and  C_21
REMARK    7  A    between atoms: C_21  and  C_22
REMARK    8  A    between atoms: C_22  and  C_23
REMARK                            x       y       z     vdW  Elec       q    Type
REMARK                         _______ _______ _______ _____ _____    ______ ____
ROOT
ATOM      1  C   UNL     1      37.339   3.879  16.158  0.00  0.00    +0.000 C 
ATOM      2  C   UNL     1      36.527   3.913  15.088  0.00  0.00    +0.000 C 
ATOM      3  C   UNL     1      35.475   2.943  15.242  0.00  0.00    +0.000 C 
ATOM      4  O   UNL     1      34.503   2.638  14.487  0.00  0.00    +0.000 OA
ATOM      5  N   UNL     1      35.658   2.264  16.503  0.00  0.00    +0.000 N 
ATOM      6  C   UNL     1      36.816   2.865  17.043  0.00  0.00    +0.000 C 
ATOM      7  O   UNL     1      37.317   2.548  18.152  0.00  0.00    +0.000 OA
ENDROOT
BRANCH   1   8
ATOM      8  N   UNL     1      38.472   4.690  16.349  0.00  0.00    +0.000 NA
BRANCH   8  12
ATOM      9  C   UNL     1      38.982   7.563  19.397  0.00  0.00    +0.000 A 
ATOM     10  C   UNL     1      39.497   6.287  19.485  0.00  0.00    +0.000 A 
ATOM     11  C   UNL     1      39.319   5.362  18.477  0.00  0.00    +0.000 A 
ATOM     12  C   UNL     1      38.602   5.697  17.323  0.00  0.00    +0.000 A 
ATOM     13  C   UNL     1      38.099   6.956  17.245  0.00  0.00    +0.000 A 
ATOM     14  C   UNL     1      38.276   7.882  18.253  0.00  0.00    +0.000 A 
BRANCH   9  16
ATOM     15  C   UNL     1      37.919   9.422  20.648  0.00  0.00    +0.000 C 
ATOM     16  C   UNL     1      39.179   8.563  20.495  0.00  0.00    +0.000 C 
ENDBRANCH   9  16
ENDBRANCH   8  12
ENDBRANCH   1   8
BRANCH   2  17
ATOM     17  S   UNL     1      36.821   5.030  13.761  0.00  0.00    +0.000 S 
BRANCH  17  18
ATOM     18  C   UNL     1      36.051   6.605  13.928  0.00  0.00    +0.000 A 
ATOM     19  C   UNL     1      34.647   6.679  14.066  0.00  0.00    +0.000 A 
ATOM     20  C   UNL     1      33.994   7.877  14.199  0.00  0.00    +0.000 A 
ATOM     21  C   UNL     1      34.657   9.084  14.208  0.00  0.00    +0.000 A 
ATOM     22  C   UNL     1      33.943  10.382  14.352  0.00  0.00    +0.000 C 
ATOM     23  C   UNL     1      36.036   9.040  14.074  0.00  0.00    +0.000 A 
ATOM     24  C   UNL     1      36.669   7.826  13.942  0.00  0.00    +0.000 A 
ENDBRANCH  17  18
ENDBRANCH   2  17
BRANCH   5  25
ATOM     25  C   UNL     1      34.810   1.220  17.029  0.00  0.00    +0.000 C 
BRANCH  25  26
ATOM     26  C   UNL     1      35.077  -0.140  16.483  0.00  0.00    +0.000 C 
BRANCH  26  27
ATOM     27  C   UNL     1      36.155  -0.784  17.261  0.00  0.00    +0.000 A 
ATOM     28  C   UNL     1      35.988  -0.823  18.642  0.00  0.00    +0.000 A 
ATOM     29  C   UNL     1      36.961  -1.411  19.423  0.00  0.00    +0.000 A 
ATOM     30  C   UNL     1      38.066  -1.944  18.834  0.00  0.00    +0.000 A 
ATOM     31  C   UNL     1      38.271  -1.926  17.467  0.00  0.00    +0.000 A 
ATOM     32  C   UNL     1      37.280  -1.330  16.701  0.00  0.00    +0.000 A 
ENDBRANCH  26  27
ENDBRANCH  25  26
ENDBRANCH   5  25
TORSDOF 8
ENDMDL
MODEL 3
REMARK VINA RESULT:      -7.4      0.954      3.238
REMARK  Name = 
REMARK  8 active torsions:
REMARK  status: ('A' for Active; 'I' for Inactive)
REMARK    1  A    between atoms: C_2  and  C_3
REMARK    2  A    between atoms: C_6  and  N_7
REMARK    3  A    between atoms: N_7  and  C_8
REMARK    4  A    between atoms: C_9  and  S_10
REMARK    5  A    between atoms: S_10  and  C_11
REMARK    6  A    between atoms: N_20  and  C_21
REMARK    7  A    between atoms: C_21  and  C_22
REMARK    8  A    between atoms: C_22  and  C_23
REMARK                            x       y       z     vdW  Elec       q    Type
REMARK                         _______ _______ _______ _____ _____    ______ ____
ROOT
ATOM      1  C   UNL     1      37.363   2.544  14.937  0.00  0.00    +0.000 C 
ATOM      2  C   UNL     1      38.382   3.064  14.231  0.00  0.00    +0.000 C 
ATOM      3  C   UNL     1      38.884   4.240  14.893  0.00  0.00    +0.000 C 
ATOM      4  O   UNL     1      39.823   5.034  14.586  0.00  0.00    +0.000 OA
ATOM      5  N   UNL     1      38.113   4.455  16.095  0.00  0.00    +0.000 N 
ATOM      6  C   UNL     1      37.184   3.391  16.092  0.00  0.00    +0.000 C 
ATOM      7  O   UNL     1      36.317   3.216  16.986  0.00  0.00    +0.000 OA
ENDROOT
BRANCH   1   8
ATOM      8  N   UNL     1      36.634   1.392  14.589  0.00  0.00    +0.000 NA
BRANCH   8  12
ATOM      9  C   UNL     1      37.491  -2.617  15.586  0.00  0.00    +0.000 A 
ATOM     10  C   UNL     1      37.019  -2.244  14.344  0.00  0.00    +0.000 A 
ATOM     11  C   UNL     1      36.745  -0.927  14.038  0.00  0.00    +0.000 A 
ATOM     12  C   UNL     1      36.940   0.079  14.990  0.00  0.00    +0.000 A 
ATOM     13  C   UNL     1      37.405  -0.297  16.210  0.00  0.00    +0.000 A 
ATOM     14  C   UNL     1      37.679  -1.615  16.517  0.00  0.00    +0.000 A 
BRANCH   9  16
ATOM     15  C   UNL     1      38.638  -4.128  17.184  0.00  0.00    +0.000 C 
ATOM     16  C   UNL     1      37.787  -4.049  15.912  0.00  0.00    +0.000 C 
ENDBRANCH   9  16
ENDBRANCH   8  12
ENDBRANCH   1   8
BRANCH   2  17
ATOM     17  S   UNL     1      38.923   2.317  12.734  0.00  0.00    +0.000 S 
BRANCH  17  18
ATOM     18  C   UNL     1      39.629   0.714  12.913  0.00  0.00    +0.000 A 
ATOM     19  C   UNL     1      40.341   0.398  14.093  0.00  0.00    +0.000 A 
ATOM     20  C   UNL     1      40.912  -0.833  14.286  0.00  0.00    +0.000 A 
ATOM     21  C   UNL     1      40.832  -1.841  13.351  0.00  0.00    +0.000 A 
ATOM     22  C   UNL     1      41.454  -3.176  13.568  0.00  0.00    +0.000 C 
ATOM     23  C   UNL     1      40.139  -1.558  12.185  0.00  0.00    +0.000 A 
ATOM     24  C   UNL     1      39.575  -0.316  12.013  0.00  0.00    +0.000 A 
ENDBRANCH  17  18
ENDBRANCH   2  17
BRANCH   5  25
ATOM     25  C   UNL     1      38.305   5.531  17.038  0.00  0.00    +0.000 C 
BRANCH  25  26
ATOM     26  C   UNL     1      38.885   5.122  18.348  0.00  0.00    +0.000 C 
BRANCH  26  27
ATOM     27  C   UNL     1      40.147   5.852  18.581  0.00  0.00    +0.000 A 
ATOM     28  C   UNL     1      40.400   6.257  19.889  0.00  0.00    +0.000 A 
ATOM     29  C   UNL     1      41.563   6.943  20.169  0.00  0.00    +0.000 A 
ATOM     30  C   UNL     1      42.444   7.213  19.168  0.00  0.00    +0.000 A 
ATOM     31  C   UNL     1      42.231   6.829  17.857  0.00  0.00    +0.000 A 
ATOM     32  C   UNL     1      41.056   6.140  17.597  0.00  0.00    +0.000 A 
ENDBRANCH  26  27
ENDBRANCH  25  26
ENDBRANCH   5  25
TORSDOF 8
ENDMDL
MODEL 4
REMARK VINA RESULT:      -7.4      1.976      7.155
REMARK  Name = 
REMARK  8 active torsions:
REMARK  status: ('A' for Active; 'I' for Inactive)
REMARK    1  A    between atoms: C_2  and  C_3
REMARK    2  A    between atoms: C_6  and  N_7
REMARK    3  A    between atoms: N_7  and  C_8
REMARK    4  A    between atoms: C_9  and  S_10
REMARK    5  A    between atoms: S_10  and  C_11
REMARK    6  A    between atoms: N_20  and  C_21
REMARK    7  A    between atoms: C_21  and  C_22
REMARK    8  A    between atoms: C_22  and  C_23
REMARK                            x       y       z     vdW  Elec       q    Type
REMARK                         _______ _______ _______ _____ _____    ______ ____
ROOT
ATOM      1  C   UNL     1      37.167   2.284  15.286  0.00  0.00    +0.000 C 
ATOM      2  C   UNL     1      37.708   1.257  14.609  0.00  0.00    +0.000 C 
ATOM      3  C   UNL     1      37.026   0.035  14.946  0.00  0.00    +0.000 C 
ATOM      4  O   UNL     1      37.201  -1.156  14.551  0.00  0.00    +0.000 OA
ATOM      5  N   UNL     1      35.987   0.339  15.903  0.00  0.00    +0.000 N 
ATOM      6  C   UNL     1      36.101   1.734  16.091  0.00  0.00    +0.000 C 
ATOM      7  O   UNL     1      35.364   2.399  16.862  0.00  0.00    +0.000 OA
ENDROOT
BRANCH   1   8
ATOM      8  N   UNL     1      37.581   3.625  15.203  0.00  0.00    +0.000 NA
BRANCH   8  12
ATOM      9  C   UNL     1      40.015   5.741  17.924  0.00  0.00    +0.000 A 
ATOM     10  C   UNL     1      40.245   5.743  16.564  0.00  0.00    +0.000 A 
ATOM     11  C   UNL     1      39.437   5.045  15.690  0.00  0.00    +0.000 A 
ATOM     12  C   UNL     1      38.349   4.305  16.166  0.00  0.00    +0.000 A 
ATOM     13  C   UNL     1      38.130   4.308  17.506  0.00  0.00    +0.000 A 
ATOM     14  C   UNL     1      38.938   5.007  18.381  0.00  0.00    +0.000 A 
BRANCH   9  16
ATOM     15  C   UNL     1      40.114   6.859  20.136  0.00  0.00    +0.000 C 
ATOM     16  C   UNL     1      40.896   6.502  18.867  0.00  0.00    +0.000 C 
ENDBRANCH   9  16
ENDBRANCH   8  12
ENDBRANCH   1   8
BRANCH   2  17
ATOM     17  S   UNL     1      39.052   1.507  13.502  0.00  0.00    +0.000 S 
BRANCH  17  18
ATOM     18  C   UNL     1      40.473   0.516  13.818  0.00  0.00    +0.000 A 
ATOM     19  C   UNL     1      41.754   1.022  13.501  0.00  0.00    +0.000 A 
ATOM     20  C   UNL     1      42.895   0.295  13.724  0.00  0.00    +0.000 A 
ATOM     21  C   UNL     1      42.872  -0.969  14.270  0.00  0.00    +0.000 A 
ATOM     22  C   UNL     1      44.114  -1.753  14.510  0.00  0.00    +0.000 C 
ATOM     23  C   UNL     1      41.628  -1.488  14.591  0.00  0.00    +0.000 A 
ATOM     24  C   UNL     1      40.497  -0.741  14.357  0.00  0.00    +0.000 A 
ENDBRANCH  17  18
ENDBRANCH   2  17
BRANCH   5  25
ATOM     25  C   UNL     1      35.077  -0.616  16.490  0.00  0.00    +0.000 C 
BRANCH  25  26
ATOM     26  C   UNL     1      35.383  -0.991  17.899  0.00  0.00    +0.000 C 
BRANCH  26  27
ATOM     27  C   UNL     1      36.470  -1.991  17.921  0.00  0.00    +0.000 A 
ATOM     28  C   UNL     1      37.515  -1.754  18.811  0.00  0.00    +0.000 A 
ATOM     29  C   UNL     1      38.560  -2.652  18.878  0.00  0.00    +0.000 A 
ATOM     30  C   UNL     1      38.555  -3.752  18.076  0.00  0.00    +0.000 A 
ATOM     31  C   UNL     1      37.538  -4.024  17.180  0.00  0.00    +0.000 A 
ATOM     32  C   UNL     1      36.497  -3.108  17.129  0.00  0.00    +0.000 A 
ENDBRANCH  26  27
ENDBRANCH  25  26
ENDBRANCH   5  25
TORSDOF 8
ENDMDL
MODEL 5
REMARK VINA RESULT:      -7.3      1.683      4.227
REMARK  Name = 
REMARK  8 active torsions:
REMARK  status: ('A' for Active; 'I' for Inactive)
REMARK    1  A    between atoms: C_2  and  C_3
REMARK    2  A    between atoms: C_6  and  N_7
REMARK    3  A    between atoms: N_7  and  C_8
REMARK    4  A    between atoms: C_9  and  S_10
REMARK    5  A    between atoms: S_10  and  C_11
REMARK    6  A    between atoms: N_20  and  C_21
REMARK    7  A    between atoms: C_21  and  C_22
REMARK    8  A    between atoms: C_22  and  C_23
REMARK                            x       y       z     vdW  Elec       q    Type
REMARK                         _______ _______ _______ _____ _____    ______ ____
ROOT
ATOM      1  C   UNL     1      36.617   1.732  15.312  0.00  0.00    +0.000 C 
ATOM      2  C   UNL     1      37.032   1.910  14.046  0.00  0.00    +0.000 C 
ATOM      3  C   UNL     1      37.625   3.213  13.905  0.00  0.00    +0.000 C 
ATOM      4  O   UNL     1      38.140   3.792  12.902  0.00  0.00    +0.000 OA
ATOM      5  N   UNL     1      37.569   3.884  15.182  0.00  0.00    +0.000 N 
ATOM      6  C   UNL     1      36.942   2.943  16.028  0.00  0.00    +0.000 C 
ATOM      7  O   UNL     1      36.702   3.146  17.245  0.00  0.00    +0.000 OA
ENDROOT
BRANCH   1   8
ATOM      8  N   UNL     1      35.992   0.575  15.811  0.00  0.00    +0.000 NA
BRANCH   8  12
ATOM      9  C   UNL     1      37.371  -1.822  18.997  0.00  0.00    +0.000 A 
ATOM     10  C   UNL     1      36.368  -0.887  19.150  0.00  0.00    +0.000 A 
ATOM     11  C   UNL     1      35.931  -0.113  18.095  0.00  0.00    +0.000 A 
ATOM     12  C   UNL     1      36.500  -0.256  16.825  0.00  0.00    +0.000 A 
ATOM     13  C   UNL     1      37.487  -1.179  16.684  0.00  0.00    +0.000 A 
ATOM     14  C   UNL     1      37.925  -1.954  17.739  0.00  0.00    +0.000 A 
BRANCH   9  16
ATOM     15  C   UNL     1      38.865  -3.689  19.657  0.00  0.00    +0.000 C 
ATOM     16  C   UNL     1      37.840  -2.660  20.147  0.00  0.00    +0.000 C 
ENDBRANCH   9  16
ENDBRANCH   8  12
ENDBRANCH   1   8
BRANCH   2  17
ATOM     17  S   UNL     1      36.820   0.650  12.836  0.00  0.00    +0.000 S 
BRANCH  17  18
ATOM     18  C   UNL     1      38.105  -0.553  12.780  0.00  0.00    +0.000 A 
ATOM     19  C   UNL     1      39.392  -0.172  12.338  0.00  0.00    +0.000 A 
ATOM     20  C   UNL     1      40.430  -1.065  12.273  0.00  0.00    +0.000 A 
ATOM     21  C   UNL     1      40.290  -2.388  12.632  0.00  0.00    +0.000 A 
ATOM     22  C   UNL     1      41.420  -3.354  12.559  0.00  0.00    +0.000 C 
ATOM     23  C   UNL     1      39.038  -2.788  13.069  0.00  0.00    +0.000 A 
ATOM     24  C   UNL     1      38.012  -1.874  13.125  0.00  0.00    +0.000 A 
ENDBRANCH  17  18
ENDBRANCH   2  17
BRANCH   5  25
ATOM     25  C   UNL     1      38.062   5.212  15.459  0.00  0.00    +0.000 C 
BRANCH  25  26
ATOM     26  C   UNL     1      39.544   5.321  15.576  0.00  0.00    +0.000 C 
BRANCH  26  27
ATOM     27  C   UNL     1      39.905   5.718  16.952  0.00  0.00    +0.000 A 
ATOM     28  C   UNL     1      41.220   6.128  17.156  0.00  0.00    +0.000 A 
ATOM     29  C   UNL     1      41.618   6.512  18.420  0.00  0.00    +0.000 A 
ATOM     30  C   UNL     1      40.723   6.484  19.445  0.00  0.00    +0.000 A 
ATOM     31  C   UNL     1      39.410   6.083  19.285  0.00  0.00    +0.000 A 
ATOM     32  C   UNL     1      39.031   5.702  18.006  0.00  0.00    +0.000 A 
ENDBRANCH  26  27
ENDBRANCH  25  26
ENDBRANCH   5  25
TORSDOF 8
ENDMDL
MODEL 6
REMARK VINA RESULT:      -7.3      3.426      8.622
REMARK  Name = 
REMARK  8 active torsions:
REMARK  status: ('A' for Active; 'I' for Inactive)
REMARK    1  A    between atoms: C_2  and  C_3
REMARK    2  A    between atoms: C_6  and  N_7
REMARK    3  A    between atoms: N_7  and  C_8
REMARK    4  A    between atoms: C_9  and  S_10
REMARK    5  A    between atoms: S_10  and  C_11
REMARK    6  A    between atoms: N_20  and  C_21
REMARK    7  A    between atoms: C_21  and  C_22
REMARK    8  A    between atoms: C_22  and  C_23
REMARK                            x       y       z     vdW  Elec       q    Type
REMARK                         _______ _______ _______ _____ _____    ______ ____
ROOT
ATOM      1  C   UNL     1      38.137   4.748  15.251  0.00  0.00    +0.000 C 
ATOM      2  C   UNL     1      37.151   5.549  14.814  0.00  0.00    +0.000 C 
ATOM      3  C   UNL     1      35.938   4.790  14.660  0.00  0.00    +0.000 C 
ATOM      4  O   UNL     1      34.780   5.135  14.278  0.00  0.00    +0.000 OA
ATOM      5  N   UNL     1      36.203   3.420  15.032  0.00  0.00    +0.000 N 
ATOM      6  C   UNL     1      37.568   3.428  15.392  0.00  0.00    +0.000 C 
ATOM      7  O   UNL     1      38.196   2.411  15.782  0.00  0.00    +0.000 OA
ENDROOT
BRANCH   1   8
ATOM      8  N   UNL     1      39.460   5.151  15.514  0.00  0.00    +0.000 NA
BRANCH   8  12
ATOM      9  C   UNL     1      41.139   6.440  19.163  0.00  0.00    +0.000 A 
ATOM     10  C   UNL     1      41.790   6.581  17.954  0.00  0.00    +0.000 A 
ATOM     11  C   UNL     1      41.223   6.153  16.772  0.00  0.00    +0.000 A 
ATOM     12  C   UNL     1      39.957   5.556  16.765  0.00  0.00    +0.000 A 
ATOM     13  C   UNL     1      39.325   5.422  17.959  0.00  0.00    +0.000 A 
ATOM     14  C   UNL     1      39.891   5.850  19.144  0.00  0.00    +0.000 A 
BRANCH   9  16
ATOM     15  C   UNL     1      43.276   7.046  20.266  0.00  0.00    +0.000 C 
ATOM     16  C   UNL     1      41.760   6.907  20.444  0.00  0.00    +0.000 C 
ENDBRANCH   9  16
ENDBRANCH   8  12
ENDBRANCH   1   8
BRANCH   2  17
ATOM     17  S   UNL     1      37.435   7.259  14.514  0.00  0.00    +0.000 S 
BRANCH  17  18
ATOM     18  C   UNL     1      38.044   8.167  15.894  0.00  0.00    +0.000 A 
ATOM     19  C   UNL     1      39.243   8.903  15.766  0.00  0.00    +0.000 A 
ATOM     20  C   UNL     1      39.764   9.627  16.806  0.00  0.00    +0.000 A 
ATOM     21  C   UNL     1      39.157   9.688  18.041  0.00  0.00    +0.000 A 
ATOM     22  C   UNL     1      39.728  10.477  19.168  0.00  0.00    +0.000 C 
ATOM     23  C   UNL     1      37.978   8.977  18.195  0.00  0.00    +0.000 A 
ATOM     24  C   UNL     1      37.476   8.257  17.136  0.00  0.00    +0.000 A 
ENDBRANCH  17  18
ENDBRANCH   2  17
BRANCH   5  25
ATOM     25  C   UNL     1      35.243   2.342  15.017  0.00  0.00    +0.000 C 
BRANCH  25  26
ATOM     26  C   UNL     1      34.709   1.957  16.354  0.00  0.00    +0.000 C 
BRANCH  26  27
ATOM     27  C   UNL     1      35.340   0.698  16.797  0.00  0.00    +0.000 A 
ATOM     28  C   UNL     1      35.555   0.558  18.165  0.00  0.00    +0.000 A 
ATOM     29  C   UNL     1      36.142  -0.597  18.641  0.00  0.00    +0.000 A 
ATOM     30  C   UNL     1      36.500  -1.579  17.769  0.00  0.00    +0.000 A 
ATOM     31  C   UNL     1      36.304  -1.479  16.404  0.00  0.00    +0.000 A 
ATOM     32  C   UNL     1      35.713  -0.310  15.948  0.00  0.00    +0.000 A 
ENDBRANCH  26  27
ENDBRANCH  25  26
ENDBRANCH   5  25
TORSDOF 8
ENDMDL
MODEL 7
REMARK VINA RESULT:      -7.2      3.445      8.288
REMARK  Name = 
REMARK  8 active torsions:
REMARK  status: ('A' for Active; 'I' for Inactive)
REMARK    1  A    between atoms: C_2  and  C_3
REMARK    2  A    between atoms: C_6  and  N_7
REMARK    3  A    between atoms: N_7  and  C_8
REMARK    4  A    between atoms: C_9  and  S_10
REMARK    5  A    between atoms: S_10  and  C_11
REMARK    6  A    between atoms: N_20  and  C_21
REMARK    7  A    between atoms: C_21  and  C_22
REMARK    8  A    between atoms: C_22  and  C_23
REMARK                            x       y       z     vdW  Elec       q    Type
REMARK                         _______ _______ _______ _____ _____    ______ ____
ROOT
ATOM      1  C   UNL     1      36.549   3.967  14.841  0.00  0.00    +0.000 C 
ATOM      2  C   UNL     1      37.844   3.610  14.894  0.00  0.00    +0.000 C 
ATOM      3  C   UNL     1      37.951   2.179  15.006  0.00  0.00    +0.000 C 
ATOM      4  O   UNL     1      38.964   1.421  15.084  0.00  0.00    +0.000 OA
ATOM      5  N   UNL     1      36.620   1.619  15.024  0.00  0.00    +0.000 N 
ATOM      6  C   UNL     1      35.779   2.748  14.921  0.00  0.00    +0.000 C 
ATOM      7  O   UNL     1      34.523   2.687  14.901  0.00  0.00    +0.000 OA
ENDROOT
BRANCH   1   8
ATOM      8  N   UNL     1      36.071   5.286  14.729  0.00  0.00    +0.000 NA
BRANCH   8  12
ATOM      9  C   UNL     1      34.489   6.894  11.163  0.00  0.00    +0.000 A 
ATOM     10  C   UNL     1      35.686   6.210  11.204  0.00  0.00    +0.000 A 
ATOM     11  C   UNL     1      36.186   5.692  12.380  0.00  0.00    +0.000 A 
ATOM     12  C   UNL     1      35.484   5.847  13.581  0.00  0.00    +0.000 A 
ATOM     13  C   UNL     1      34.307   6.521  13.531  0.00  0.00    +0.000 A 
ATOM     14  C   UNL     1      33.805   7.041  12.354  0.00  0.00    +0.000 A 
BRANCH   9  16
ATOM     15  C   UNL     1      35.105   7.974   9.017  0.00  0.00    +0.000 C 
ATOM     16  C   UNL     1      33.951   7.454   9.882  0.00  0.00    +0.000 C 
ENDBRANCH   9  16
ENDBRANCH   8  12
ENDBRANCH   1   8
BRANCH   2  17
ATOM     17  S   UNL     1      39.122   4.816  14.824  0.00  0.00    +0.000 S 
BRANCH  17  18
ATOM     18  C   UNL     1      39.695   5.386  16.389  0.00  0.00    +0.000 A 
ATOM     19  C   UNL     1      38.932   5.114  17.547  0.00  0.00    +0.000 A 
ATOM     20  C   UNL     1      39.329   5.534  18.790  0.00  0.00    +0.000 A 
ATOM     21  C   UNL     1      40.490   6.244  18.995  0.00  0.00    +0.000 A 
ATOM     22  C   UNL     1      40.916   6.698  20.348  0.00  0.00    +0.000 C 
ATOM     23  C   UNL     1      41.258   6.524  17.876  0.00  0.00    +0.000 A 
ATOM     24  C   UNL     1      40.839   6.093  16.639  0.00  0.00    +0.000 A 
ENDBRANCH  17  18
ENDBRANCH   2  17
BRANCH   5  25
ATOM     25  C   UNL     1      36.297   0.215  15.125  0.00  0.00    +0.000 C 
BRANCH  25  26
ATOM     26  C   UNL     1      35.989  -0.261  16.503  0.00  0.00    +0.000 C 
BRANCH  26  27
ATOM     27  C   UNL     1      37.003  -1.248  16.926  0.00  0.00    +0.000 A 
ATOM     28  C   UNL     1      37.845  -1.739  15.932  0.00  0.00    +0.000 A 
ATOM     29  C   UNL     1      38.813  -2.663  16.265  0.00  0.00    +0.000 A 
ATOM     30  C   UNL     1      38.930  -3.081  17.555  0.00  0.00    +0.000 A 
ATOM     31  C   UNL     1      38.114  -2.620  18.571  0.00  0.00    +0.000 A 
ATOM     32  C   UNL     1      37.148  -1.690  18.214  0.00  0.00    +0.000 A 
ENDBRANCH  26  27
ENDBRANCH  25  26
ENDBRANCH   5  25
TORSDOF 8
ENDMDL
MODEL 8
REMARK VINA RESULT:      -7.2      1.577      2.124
REMARK  Name = 
REMARK  8 active torsions:
REMARK  status: ('A' for Active; 'I' for Inactive)
REMARK    1  A    between atoms: C_2  and  C_3
REMARK    2  A    between atoms: C_6  and  N_7
REMARK    3  A    between atoms: N_7  and  C_8
REMARK    4  A    between atoms: C_9  and  S_10
REMARK    5  A    between atoms: S_10  and  C_11
REMARK    6  A    between atoms: N_20  and  C_21
REMARK    7  A    between atoms: C_21  and  C_22
REMARK    8  A    between atoms: C_22  and  C_23
REMARK                            x       y       z     vdW  Elec       q    Type
REMARK                         _______ _______ _______ _____ _____    ______ ____
ROOT
ATOM      1  C   UNL     1      36.859   1.234  14.163  0.00  0.00    +0.000 C 
ATOM      2  C   UNL     1      36.457   1.095  15.438  0.00  0.00    +0.000 C 
ATOM      3  C   UNL     1      36.731   2.303  16.171  0.00  0.00    +0.000 C 
ATOM      4  O   UNL     1      36.521   2.609  17.383  0.00  0.00    +0.000 OA
ATOM      5  N   UNL     1      37.347   3.253  15.276  0.00  0.00    +0.000 N 
ATOM      6  C   UNL     1      37.412   2.563  14.046  0.00  0.00    +0.000 C 
ATOM      7  O   UNL     1      37.891   3.054  12.992  0.00  0.00    +0.000 OA
ENDROOT
BRANCH   1   8
ATOM      8  N   UNL     1      36.747   0.254  13.160  0.00  0.00    +0.000 NA
BRANCH   8  12
ATOM      9  C   UNL     1      39.845  -2.321  11.906  0.00  0.00    +0.000 A 
ATOM     10  C   UNL     1      39.675  -1.054  11.386  0.00  0.00    +0.000 A 
ATOM     11  C   UNL     1      38.655  -0.228  11.810  0.00  0.00    +0.000 A 
ATOM     12  C   UNL     1      37.754  -0.656  12.790  0.00  0.00    +0.000 A 
ATOM     13  C   UNL     1      37.929  -1.904  13.297  0.00  0.00    +0.000 A 
ATOM     14  C   UNL     1      38.950  -2.732  12.873  0.00  0.00    +0.000 A 
BRANCH   9  16
ATOM     15  C   UNL     1      42.257  -2.841  12.160  0.00  0.00    +0.000 C 
ATOM     16  C   UNL     1      40.956  -3.213  11.442  0.00  0.00    +0.000 C 
ENDBRANCH   9  16
ENDBRANCH   8  12
ENDBRANCH   1   8
BRANCH   2  17
ATOM     17  S   UNL     1      35.718  -0.400  15.998  0.00  0.00    +0.000 S 
BRANCH  17  18
ATOM     18  C   UNL     1      36.714  -1.363  17.084  0.00  0.00    +0.000 A 
ATOM     19  C   UNL     1      36.671  -1.108  18.474  0.00  0.00    +0.000 A 
ATOM     20  C   UNL     1      37.425  -1.825  19.366  0.00  0.00    +0.000 A 
ATOM     21  C   UNL     1      38.271  -2.838  18.972  0.00  0.00    +0.000 A 
ATOM     22  C   UNL     1      39.087  -3.614  19.946  0.00  0.00    +0.000 C 
ATOM     23  C   UNL     1      38.332  -3.110  17.615  0.00  0.00    +0.000 A 
ATOM     24  C   UNL     1      37.567  -2.377  16.739  0.00  0.00    +0.000 A 
ENDBRANCH  17  18
ENDBRANCH   2  17
BRANCH   5  25
ATOM     25  C   UNL     1      37.773   4.587  15.627  0.00  0.00    +0.000 C 
BRANCH  25  26
ATOM     26  C   UNL     1      39.240   4.827  15.520  0.00  0.00    +0.000 C 
BRANCH  26  27
ATOM     27  C   UNL     1      39.743   5.402  16.784  0.00  0.00    +0.000 A 
ATOM     28  C   UNL     1      38.954   5.205  17.914  0.00  0.00    +0.000 A 
ATOM     29  C   UNL     1      39.370   5.718  19.125  0.00  0.00    +0.000 A 
ATOM     30  C   UNL     1      40.541   6.407  19.197  0.00  0.00    +0.000 A 
ATOM     31  C   UNL     1      41.353   6.626  18.100  0.00  0.00    +0.000 A 
ATOM     32  C   UNL     1      40.916   6.100  16.892  0.00  0.00    +0.000 A 
ENDBRANCH  26  27
ENDBRANCH  25  26
ENDBRANCH   5  25
TORSDOF 8
ENDMDL
MODEL 9
REMARK VINA RESULT:      -7.2      3.358      8.762
REMARK  Name = 
REMARK  8 active torsions:
REMARK  status: ('A' for Active; 'I' for Inactive)
REMARK    1  A    between atoms: C_2  and  C_3
REMARK    2  A    between atoms: C_6  and  N_7
REMARK    3  A    between atoms: N_7  and  C_8
REMARK    4  A    between atoms: C_9  and  S_10
REMARK    5  A    between atoms: S_10  and  C_11
REMARK    6  A    between atoms: N_20  and  C_21
REMARK    7  A    between atoms: C_21  and  C_22
REMARK    8  A    between atoms: C_22  and  C_23
REMARK                            x       y       z     vdW  Elec       q    Type
REMARK                         _______ _______ _______ _____ _____    ______ ____
ROOT
ATOM      1  C   UNL     1      38.069   4.952  15.206  0.00  0.00    +0.000 C 
ATOM      2  C   UNL     1      37.024   5.664  14.749  0.00  0.00    +0.000 C 
ATOM      3  C   UNL     1      35.877   4.807  14.601  0.00  0.00    +0.000 C 
ATOM      4  O   UNL     1      34.698   5.052  14.205  0.00  0.00    +0.000 OA
ATOM      5  N   UNL     1      36.249   3.470  14.998  0.00  0.00    +0.000 N 
ATOM      6  C   UNL     1      37.607   3.593  15.365  0.00  0.00    +0.000 C 
ATOM      7  O   UNL     1      38.311   2.637  15.777  0.00  0.00    +0.000 OA
ENDROOT
BRANCH   1   8
ATOM      8  N   UNL     1      39.352   5.464  15.470  0.00  0.00    +0.000 NA
BRANCH   8  12
ATOM      9  C   UNL     1      41.120   6.344  19.198  0.00  0.00    +0.000 A 
ATOM     10  C   UNL     1      41.799   6.474  18.004  0.00  0.00    +0.000 A 
ATOM     11  C   UNL     1      41.203   6.181  16.795  0.00  0.00    +0.000 A 
ATOM     12  C   UNL     1      39.877   5.738  16.746  0.00  0.00    +0.000 A 
ATOM     13  C   UNL     1      39.216   5.614  17.926  0.00  0.00    +0.000 A 
ATOM     14  C   UNL     1      39.812   5.907  19.136  0.00  0.00    +0.000 A 
BRANCH   9  16
ATOM     15  C   UNL     1      43.284   6.831  20.308  0.00  0.00    +0.000 C 
ATOM     16  C   UNL     1      41.774   6.665  20.508  0.00  0.00    +0.000 C 
ENDBRANCH   9  16
ENDBRANCH   8  12
ENDBRANCH   1   8
BRANCH   2  17
ATOM     17  S   UNL     1      37.173   7.386  14.421  0.00  0.00    +0.000 S 
BRANCH  17  18
ATOM     18  C   UNL     1      35.987   8.404  15.232  0.00  0.00    +0.000 A 
ATOM     19  C   UNL     1      36.383   9.172  16.351  0.00  0.00    +0.000 A 
ATOM     20  C   UNL     1      35.504   9.981  17.021  0.00  0.00    +0.000 A 
ATOM     21  C   UNL     1      34.182  10.103  16.653  0.00  0.00    +0.000 A 
ATOM     22  C   UNL     1      33.231  10.984  17.386  0.00  0.00    +0.000 C 
ATOM     23  C   UNL     1      33.768   9.361  15.558  0.00  0.00    +0.000 A 
ATOM     24  C   UNL     1      34.668   8.556  14.902  0.00  0.00    +0.000 A 
ENDBRANCH  17  18
ENDBRANCH   2  17
BRANCH   5  25
ATOM     25  C   UNL     1      35.379   2.317  14.995  0.00  0.00    +0.000 C 
BRANCH  25  26
ATOM     26  C   UNL     1      34.843   1.932  16.331  0.00  0.00    +0.000 C 
BRANCH  26  27
ATOM     27  C   UNL     1      35.499   0.690  16.789  0.00  0.00    +0.000 A 
ATOM     28  C   UNL     1      35.627   0.526  18.165  0.00  0.00    +0.000 A 
ATOM     29  C   UNL     1      36.231  -0.614  18.655  0.00  0.00    +0.000 A 
ATOM     30  C   UNL     1      36.692  -1.557  17.788  0.00  0.00    +0.000 A 
ATOM     31  C   UNL     1      36.585  -1.432  16.416  0.00  0.00    +0.000 A 
ATOM     32  C   UNL     1      35.974  -0.279  15.945  0.00  0.00    +0.000 A 
ENDBRANCH  26  27
ENDBRANCH  25  26
ENDBRANCH   5  25
TORSDOF 8
ENDMDL
MODEL 10
REMARK VINA RESULT:      -7.1      2.054      6.714
REMARK  Name = 
REMARK  8 active torsions:
REMARK  status: ('A' for Active; 'I' for Inactive)
REMARK    1  A    between atoms: C_2  and  C_3
REMARK    2  A    between atoms: C_6  and  N_7
REMARK    3  A    between atoms: N_7  and  C_8
REMARK    4  A    between atoms: C_9  and  S_10
REMARK    5  A    between atoms: S_10  and  C_11
REMARK    6  A    between atoms: N_20  and  C_21
REMARK    7  A    between atoms: C_21  and  C_22
REMARK    8  A    between atoms: C_22  and  C_23
REMARK                            x       y       z     vdW  Elec       q    Type
REMARK                         _______ _______ _______ _____ _____    ______ ____
ROOT
ATOM      1  C   UNL     1      37.678   1.143  14.192  0.00  0.00    +0.000 C 
ATOM      2  C   UNL     1      37.269   2.172  14.953  0.00  0.00    +0.000 C 
ATOM      3  C   UNL     1      36.304   1.712  15.918  0.00  0.00    +0.000 C 
ATOM      4  O   UNL     1      35.666   2.332  16.821  0.00  0.00    +0.000 OA
ATOM      5  N   UNL     1      36.110   0.294  15.732  0.00  0.00    +0.000 N 
ATOM      6  C   UNL     1      36.971  -0.026  14.660  0.00  0.00    +0.000 C 
ATOM      7  O   UNL     1      37.098  -1.183  14.184  0.00  0.00    +0.000 OA
ENDROOT
BRANCH   1   8
ATOM      8  N   UNL     1      38.618   1.223  13.148  0.00  0.00    +0.000 NA
BRANCH   8  12
ATOM      9  C   UNL     1      42.741   0.493  13.672  0.00  0.00    +0.000 A 
ATOM     10  C   UNL     1      41.767  -0.333  14.195  0.00  0.00    +0.000 A 
ATOM     11  C   UNL     1      40.424  -0.076  14.012  0.00  0.00    +0.000 A 
ATOM     12  C   UNL     1      40.006   1.043  13.283  0.00  0.00    +0.000 A 
ATOM     13  C   UNL     1      40.972   1.850  12.772  0.00  0.00    +0.000 A 
ATOM     14  C   UNL     1      42.316   1.594  12.955  0.00  0.00    +0.000 A 
BRANCH   9  16
ATOM     15  C   UNL     1      44.424  -0.381  15.270  0.00  0.00    +0.000 C 
ATOM     16  C   UNL     1      44.198   0.208  13.874  0.00  0.00    +0.000 C 
ENDBRANCH   9  16
ENDBRANCH   8  12
ENDBRANCH   1   8
BRANCH   2  17
ATOM     17  S   UNL     1      37.900   3.794  14.702  0.00  0.00    +0.000 S 
BRANCH  17  18
ATOM     18  C   UNL     1      38.644   4.532  16.118  0.00  0.00    +0.000 A 
ATOM     19  C   UNL     1      39.765   5.376  15.951  0.00  0.00    +0.000 A 
ATOM     20  C   UNL     1      40.385   5.977  17.016  0.00  0.00    +0.000 A 
ATOM     21  C   UNL     1      39.960   5.801  18.314  0.00  0.00    +0.000 A 
ATOM     22  C   UNL     1      40.637   6.456  19.467  0.00  0.00    +0.000 C 
ATOM     23  C   UNL     1      38.862   4.978  18.506  0.00  0.00    +0.000 A 
ATOM     24  C   UNL     1      38.257   4.386  17.422  0.00  0.00    +0.000 A 
ENDBRANCH  17  18
ENDBRANCH   2  17
BRANCH   5  25
ATOM     25  C   UNL     1      35.221  -0.543  16.503  0.00  0.00    +0.000 C 
BRANCH  25  26
ATOM     26  C   UNL     1      35.799  -1.070  17.772  0.00  0.00    +0.000 C 
BRANCH  26  27
ATOM     27  C   UNL     1      36.645  -2.245  17.481  0.00  0.00    +0.000 A 
ATOM     28  C   UNL     1      37.971  -2.175  17.899  0.00  0.00    +0.000 A 
ATOM     29  C   UNL     1      38.812  -3.241  17.656  0.00  0.00    +0.000 A 
ATOM     30  C   UNL     1      38.335  -4.342  17.013  0.00  0.00    +0.000 A 
ATOM     31  C   UNL     1      37.026  -4.452  16.581  0.00  0.00    +0.000 A 
ATOM     32  C   UNL     1      36.198  -3.368  16.837  0.00  0.00    +0.000 A 
ENDBRANCH  26  27
ENDBRANCH  25  26
ENDBRANCH   5  25
TORSDOF 8
ENDMDL
