MODEL 1
REMARK VINA RESULT:      -5.8      0.000      0.000
REMARK  Name = 
REMARK  2 active torsions:
REMARK  status: ('A' for Active; 'I' for Inactive)
REMARK    1  A    between atoms: C_6  and  C_7
REMARK    2  A    between atoms: N_11  and  C_12
REMARK                            x       y       z     vdW  Elec       q    Type
REMARK                         _______ _______ _______ _____ _____    ______ ____
ROOT
ATOM      1  C   UNL     1      31.173  23.117  27.104  0.00  0.00    +0.000 C 
ATOM      2  C   UNL     1      29.973  23.042  28.011  0.00  0.00    +0.000 A 
ATOM      3  C   UNL     1      30.122  22.721  29.345  0.00  0.00    +0.000 A 
ATOM      4  C   UNL     1      29.026  22.654  30.168  0.00  0.00    +0.000 A 
ATOM      5  C   UNL     1      29.136  22.309  31.627  0.00  0.00    +0.000 C 
ATOM      6  C   UNL     1      27.792  22.914  29.623  0.00  0.00    +0.000 A 
ATOM      7  C   UNL     1      27.626  23.238  28.278  0.00  0.00    +0.000 A 
ATOM      8  N   UNL     1      26.337  23.504  27.736  0.00  0.00    +0.000 NA
ATOM      9  N   UNL     1      28.743  23.287  27.530  0.00  0.00    +0.000 NA
ENDROOT
BRANCH   8  10
ATOM     10  C   UNL     1      26.239  23.830  26.357  0.00  0.00    +0.000 A 
ATOM     11  C   UNL     1      26.117  22.846  25.401  0.00  0.00    +0.000 A 
ATOM     12  C   UNL     1      26.020  23.142  24.062  0.00  0.00    +0.000 A 
ATOM     13  C   UNL     1      26.044  24.454  23.641  0.00  0.00    +0.000 A 
ATOM     14  C   UNL     1      26.166  25.435  24.601  0.00  0.00    +0.000 A 
ATOM     15  C   UNL     1      26.264  25.161  25.946  0.00  0.00    +0.000 A 
ATOM     16 CL   UNL     1      26.420  26.421  27.161  0.00  0.00    +0.000 Cl
ENDBRANCH   8  10
BRANCH   6  17
ATOM     17  C   UNL     1      26.604  22.858  30.443  0.00  0.00    +0.000 C 
ATOM     18  N   UNL     1      25.956  21.600  30.654  0.00  0.00    +0.000 NA
ATOM     19  O   UNL     1      26.111  23.874  30.983  0.00  0.00    +0.000 OA
ENDBRANCH   6  17
TORSDOF 2
ENDMDL
MODEL 2
REMARK VINA RESULT:      -5.6     31.838     32.689
REMARK  Name = 
REMARK  2 active torsions:
REMARK  status: ('A' for Active; 'I' for Inactive)
REMARK    1  A    between atoms: C_6  and  C_7
REMARK    2  A    between atoms: N_11  and  C_12
REMARK                            x       y       z     vdW  Elec       q    Type
REMARK                         _______ _______ _______ _____ _____    ______ ____
ROOT
ATOM      1  C   UNL     1      22.837 -11.136  27.570  0.00  0.00    +0.000 C 
ATOM      2  C   UNL     1      21.753 -10.133  27.280  0.00  0.00    +0.000 A 
ATOM      3  C   UNL     1      20.589 -10.125  28.020  0.00  0.00    +0.000 A 
ATOM      4  C   UNL     1      19.603  -9.209  27.753  0.00  0.00    +0.000 A 
ATOM      5  C   UNL     1      18.318  -9.160  28.530  0.00  0.00    +0.000 C 
ATOM      6  C   UNL     1      19.814  -8.311  26.734  0.00  0.00    +0.000 A 
ATOM      7  C   UNL     1      20.984  -8.308  25.976  0.00  0.00    +0.000 A 
ATOM      8  N   UNL     1      21.181  -7.368  24.926  0.00  0.00    +0.000 NA
ATOM      9  N   UNL     1      21.907  -9.233  26.294  0.00  0.00    +0.000 NA
ENDROOT
BRANCH   8  10
ATOM     10  C   UNL     1      22.397  -7.419  24.195  0.00  0.00    +0.000 A 
ATOM     11  C   UNL     1      23.474  -6.638  24.551  0.00  0.00    +0.000 A 
ATOM     12  C   UNL     1      24.660  -6.673  23.856  0.00  0.00    +0.000 A 
ATOM     13  C   UNL     1      24.798  -7.508  22.767  0.00  0.00    +0.000 A 
ATOM     14  C   UNL     1      23.718  -8.288  22.415  0.00  0.00    +0.000 A 
ATOM     15  C   UNL     1      22.523  -8.268  23.097  0.00  0.00    +0.000 A 
ATOM     16 CL   UNL     1      21.153  -9.269  22.637  0.00  0.00    +0.000 Cl
ENDBRANCH   8  10
BRANCH   6  17
ATOM     17  C   UNL     1      18.811  -7.325  26.409  0.00  0.00    +0.000 C 
ATOM     18  N   UNL     1      17.732  -7.682  25.540  0.00  0.00    +0.000 NA
ATOM     19  O   UNL     1      18.845  -6.158  26.859  0.00  0.00    +0.000 OA
ENDBRANCH   6  17
TORSDOF 2
ENDMDL
MODEL 3
REMARK VINA RESULT:      -5.5     16.485     18.853
REMARK  Name = 
REMARK  2 active torsions:
REMARK  status: ('A' for Active; 'I' for Inactive)
REMARK    1  A    between atoms: C_6  and  C_7
REMARK    2  A    between atoms: N_11  and  C_12
REMARK                            x       y       z     vdW  Elec       q    Type
REMARK                         _______ _______ _______ _____ _____    ______ ____
ROOT
ATOM      1  C   UNL     1      21.191   8.194  41.560  0.00  0.00    +0.000 C 
ATOM      2  C   UNL     1      20.279   8.834  40.548  0.00  0.00    +0.000 A 
ATOM      3  C   UNL     1      18.918   8.892  40.767  0.00  0.00    +0.000 A 
ATOM      4  C   UNL     1      18.092   9.477  39.841  0.00  0.00    +0.000 A 
ATOM      5  C   UNL     1      16.604   9.566  40.034  0.00  0.00    +0.000 C 
ATOM      6  C   UNL     1      18.660   9.995  38.702  0.00  0.00    +0.000 A 
ATOM      7  C   UNL     1      20.033   9.943  38.467  0.00  0.00    +0.000 A 
ATOM      8  N   UNL     1      20.599  10.487  37.280  0.00  0.00    +0.000 NA
ATOM      9  N   UNL     1      20.783   9.356  39.416  0.00  0.00    +0.000 NA
ENDROOT
BRANCH   8  10
ATOM     10  C   UNL     1      22.006  10.401  37.103  0.00  0.00    +0.000 A 
ATOM     11  C   UNL     1      22.576   9.335  36.444  0.00  0.00    +0.000 A 
ATOM     12  C   UNL     1      23.935   9.235  36.263  0.00  0.00    +0.000 A 
ATOM     13  C   UNL     1      24.771  10.219  36.746  0.00  0.00    +0.000 A 
ATOM     14  C   UNL     1      24.196  11.284  37.404  0.00  0.00    +0.000 A 
ATOM     15  C   UNL     1      22.839  11.404  37.596  0.00  0.00    +0.000 A 
ATOM     16 CL   UNL     1      22.118  12.768  38.438  0.00  0.00    +0.000 Cl
ENDBRANCH   8  10
BRANCH   6  17
ATOM     17  C   UNL     1      17.837  10.622  37.695  0.00  0.00    +0.000 C 
ATOM     18  N   UNL     1      17.264   9.820  36.658  0.00  0.00    +0.000 NA
ATOM     19  O   UNL     1      17.602  11.851  37.689  0.00  0.00    +0.000 OA
ENDBRANCH   6  17
TORSDOF 2
ENDMDL
MODEL 4
REMARK VINA RESULT:      -5.5      3.292      6.299
REMARK  Name = 
REMARK  2 active torsions:
REMARK  status: ('A' for Active; 'I' for Inactive)
REMARK    1  A    between atoms: C_6  and  C_7
REMARK    2  A    between atoms: N_11  and  C_12
REMARK                            x       y       z     vdW  Elec       q    Type
REMARK                         _______ _______ _______ _____ _____    ______ ____
ROOT
ATOM      1  C   UNL     1      27.455  28.225  26.005  0.00  0.00    +0.000 C 
ATOM      2  C   UNL     1      27.369  27.032  25.092  0.00  0.00    +0.000 A 
ATOM      3  C   UNL     1      27.371  27.196  23.721  0.00  0.00    +0.000 A 
ATOM      4  C   UNL     1      27.292  26.105  22.893  0.00  0.00    +0.000 A 
ATOM      5  C   UNL     1      27.291  26.232  21.395  0.00  0.00    +0.000 C 
ATOM      6  C   UNL     1      27.212  24.860  23.469  0.00  0.00    +0.000 A 
ATOM      7  C   UNL     1      27.208  24.679  24.850  0.00  0.00    +0.000 A 
ATOM      8  N   UNL     1      27.124  23.379  25.424  0.00  0.00    +0.000 NA
ATOM      9  N   UNL     1      27.288  25.791  25.602  0.00  0.00    +0.000 NA
ENDROOT
BRANCH   8  10
ATOM     10  C   UNL     1      27.126  23.266  26.840  0.00  0.00    +0.000 A 
ATOM     11  C   UNL     1      26.054  23.694  27.589  0.00  0.00    +0.000 A 
ATOM     12  C   UNL     1      26.037  23.592  28.960  0.00  0.00    +0.000 A 
ATOM     13  C   UNL     1      27.114  23.047  29.625  0.00  0.00    +0.000 A 
ATOM     14  C   UNL     1      28.185  22.619  28.871  0.00  0.00    +0.000 A 
ATOM     15  C   UNL     1      28.223  22.712  27.499  0.00  0.00    +0.000 A 
ATOM     16 CL   UNL     1      29.595  22.162  26.549  0.00  0.00    +0.000 Cl
ENDBRANCH   8  10
BRANCH   6  17
ATOM     17  C   UNL     1      27.127  23.677  22.644  0.00  0.00    +0.000 C 
ATOM     18  N   UNL     1      25.843  23.190  22.247  0.00  0.00    +0.000 NA
ATOM     19  O   UNL     1      28.141  23.054  22.258  0.00  0.00    +0.000 OA
ENDBRANCH   6  17
TORSDOF 2
ENDMDL
MODEL 5
REMARK VINA RESULT:      -5.4      4.028      6.946
REMARK  Name = 
REMARK  2 active torsions:
REMARK  status: ('A' for Active; 'I' for Inactive)
REMARK    1  A    between atoms: C_6  and  C_7
REMARK    2  A    between atoms: N_11  and  C_12
REMARK                            x       y       z     vdW  Elec       q    Type
REMARK                         _______ _______ _______ _____ _____    ______ ____
ROOT
ATOM      1  C   UNL     1      27.871  27.799  26.241  0.00  0.00    +0.000 C 
ATOM      2  C   UNL     1      28.009  26.882  25.056  0.00  0.00    +0.000 A 
ATOM      3  C   UNL     1      27.561  27.272  23.811  0.00  0.00    +0.000 A 
ATOM      4  C   UNL     1      27.690  26.432  22.734  0.00  0.00    +0.000 A 
ATOM      5  C   UNL     1      27.218  26.811  21.358  0.00  0.00    +0.000 C 
ATOM      6  C   UNL     1      28.273  25.205  22.936  0.00  0.00    +0.000 A 
ATOM      7  C   UNL     1      28.730  24.796  24.188  0.00  0.00    +0.000 A 
ATOM      8  N   UNL     1      29.331  23.520  24.375  0.00  0.00    +0.000 NA
ATOM      9  N   UNL     1      28.572  25.670  25.199  0.00  0.00    +0.000 NA
ENDROOT
BRANCH   8  10
ATOM     10  C   UNL     1      29.776  23.168  25.677  0.00  0.00    +0.000 A 
ATOM     11  C   UNL     1      28.890  22.736  26.638  0.00  0.00    +0.000 A 
ATOM     12  C   UNL     1      29.302  22.389  27.903  0.00  0.00    +0.000 A 
ATOM     13  C   UNL     1      30.635  22.469  28.242  0.00  0.00    +0.000 A 
ATOM     14  C   UNL     1      31.518  22.901  27.276  0.00  0.00    +0.000 A 
ATOM     15  C   UNL     1      31.128  23.252  26.004  0.00  0.00    +0.000 A 
ATOM     16 CL   UNL     1      32.265  23.802  24.782  0.00  0.00    +0.000 Cl
ENDBRANCH   8  10
BRANCH   6  17
ATOM     17  C   UNL     1      28.434  24.281  21.838  0.00  0.00    +0.000 C 
ATOM     18  N   UNL     1      29.610  24.354  21.027  0.00  0.00    +0.000 NA
ATOM     19  O   UNL     1      27.579  23.411  21.562  0.00  0.00    +0.000 OA
ENDBRANCH   6  17
TORSDOF 2
ENDMDL
MODEL 6
REMARK VINA RESULT:      -5.4      4.222      6.961
REMARK  Name = 
REMARK  2 active torsions:
REMARK  status: ('A' for Active; 'I' for Inactive)
REMARK    1  A    between atoms: C_6  and  C_7
REMARK    2  A    between atoms: N_11  and  C_12
REMARK                            x       y       z     vdW  Elec       q    Type
REMARK                         _______ _______ _______ _____ _____    ______ ____
ROOT
ATOM      1  C   UNL     1      29.978  28.202  25.882  0.00  0.00    +0.000 C 
ATOM      2  C   UNL     1      29.678  27.269  24.740  0.00  0.00    +0.000 A 
ATOM      3  C   UNL     1      29.391  27.766  23.485  0.00  0.00    +0.000 A 
ATOM      4  C   UNL     1      29.119  26.912  22.446  0.00  0.00    +0.000 A 
ATOM      5  C   UNL     1      28.802  27.404  21.062  0.00  0.00    +0.000 C 
ATOM      6  C   UNL     1      29.140  25.561  22.697  0.00  0.00    +0.000 A 
ATOM      7  C   UNL     1      29.427  25.044  23.960  0.00  0.00    +0.000 A 
ATOM      8  N   UNL     1      29.444  23.641  24.196  0.00  0.00    +0.000 NA
ATOM      9  N   UNL     1      29.685  25.938  24.930  0.00  0.00    +0.000 NA
ENDROOT
BRANCH   8  10
ATOM     10  C   UNL     1      29.745  23.181  25.506  0.00  0.00    +0.000 A 
ATOM     11  C   UNL     1      31.042  23.151  25.968  0.00  0.00    +0.000 A 
ATOM     12  C   UNL     1      31.353  22.710  27.233  0.00  0.00    +0.000 A 
ATOM     13  C   UNL     1      30.354  22.281  28.080  0.00  0.00    +0.000 A 
ATOM     14  C   UNL     1      29.058  22.313  27.613  0.00  0.00    +0.000 A 
ATOM     15  C   UNL     1      28.724  22.751  26.352  0.00  0.00    +0.000 A 
ATOM     16 CL   UNL     1      27.067  22.787  25.769  0.00  0.00    +0.000 Cl
ENDBRANCH   8  10
BRANCH   6  17
ATOM     17  C   UNL     1      28.861  24.617  21.641  0.00  0.00    +0.000 C 
ATOM     18  N   UNL     1      27.557  24.037  21.546  0.00  0.00    +0.000 NA
ATOM     19  O   UNL     1      29.721  24.279  20.797  0.00  0.00    +0.000 OA
ENDBRANCH   6  17
TORSDOF 2
ENDMDL
MODEL 7
REMARK VINA RESULT:      -5.3     15.171     17.259
REMARK  Name = 
REMARK  2 active torsions:
REMARK  status: ('A' for Active; 'I' for Inactive)
REMARK    1  A    between atoms: C_6  and  C_7
REMARK    2  A    between atoms: N_11  and  C_12
REMARK                            x       y       z     vdW  Elec       q    Type
REMARK                         _______ _______ _______ _____ _____    ______ ____
ROOT
ATOM      1  C   UNL     1      23.465   9.531  36.193  0.00  0.00    +0.000 C 
ATOM      2  C   UNL     1      23.361  10.803  36.990  0.00  0.00    +0.000 A 
ATOM      3  C   UNL     1      24.438  11.660  37.086  0.00  0.00    +0.000 A 
ATOM      4  C   UNL     1      24.338  12.819  37.814  0.00  0.00    +0.000 A 
ATOM      5  C   UNL     1      25.482  13.785  37.949  0.00  0.00    +0.000 C 
ATOM      6  C   UNL     1      23.143  13.092  38.436  0.00  0.00    +0.000 A 
ATOM      7  C   UNL     1      22.047  12.235  38.349  0.00  0.00    +0.000 A 
ATOM      8  N   UNL     1      20.820  12.538  39.001  0.00  0.00    +0.000 NA
ATOM      9  N   UNL     1      22.215  11.118  37.619  0.00  0.00    +0.000 NA
ENDROOT
BRANCH   8  10
ATOM     10  C   UNL     1      19.742  11.622  38.870  0.00  0.00    +0.000 A 
ATOM     11  C   UNL     1      18.838  11.731  37.837  0.00  0.00    +0.000 A 
ATOM     12  C   UNL     1      17.789  10.854  37.693  0.00  0.00    +0.000 A 
ATOM     13  C   UNL     1      17.617   9.828  38.597  0.00  0.00    +0.000 A 
ATOM     14  C   UNL     1      18.524   9.723  39.629  0.00  0.00    +0.000 A 
ATOM     15  C   UNL     1      19.581  10.589  39.791  0.00  0.00    +0.000 A 
ATOM     16 CL   UNL     1      20.731  10.443  41.112  0.00  0.00    +0.000 Cl
ENDBRANCH   8  10
BRANCH   6  17
ATOM     17  C   UNL     1      22.983  14.297  39.215  0.00  0.00    +0.000 C 
ATOM     18  N   UNL     1      23.290  14.276  40.612  0.00  0.00    +0.000 NA
ATOM     19  O   UNL     1      22.581  15.372  38.715  0.00  0.00    +0.000 OA
ENDBRANCH   6  17
TORSDOF 2
ENDMDL
MODEL 8
REMARK VINA RESULT:      -5.3     28.539     29.948
REMARK  Name = 
REMARK  2 active torsions:
REMARK  status: ('A' for Active; 'I' for Inactive)
REMARK    1  A    between atoms: C_6  and  C_7
REMARK    2  A    between atoms: N_11  and  C_12
REMARK                            x       y       z     vdW  Elec       q    Type
REMARK                         _______ _______ _______ _____ _____    ______ ____
ROOT
ATOM      1  C   UNL     1      36.710  -7.403  33.938  0.00  0.00    +0.000 C 
ATOM      2  C   UNL     1      35.793  -6.210  33.987  0.00  0.00    +0.000 A 
ATOM      3  C   UNL     1      35.794  -5.368  35.080  0.00  0.00    +0.000 A 
ATOM      4  C   UNL     1      34.957  -4.282  35.120  0.00  0.00    +0.000 A 
ATOM      5  C   UNL     1      34.921  -3.336  36.287  0.00  0.00    +0.000 C 
ATOM      6  C   UNL     1      34.127  -4.066  34.046  0.00  0.00    +0.000 A 
ATOM      7  C   UNL     1      34.114  -4.908  32.935  0.00  0.00    +0.000 A 
ATOM      8  N   UNL     1      33.246  -4.664  31.834  0.00  0.00    +0.000 NA
ATOM      9  N   UNL     1      34.961  -5.952  32.963  0.00  0.00    +0.000 NA
ENDROOT
BRANCH   8  10
ATOM     10  C   UNL     1      33.284  -5.561  30.733  0.00  0.00    +0.000 A 
ATOM     11  C   UNL     1      34.187  -5.389  29.708  0.00  0.00    +0.000 A 
ATOM     12  C   UNL     1      34.240  -6.247  28.634  0.00  0.00    +0.000 A 
ATOM     13  C   UNL     1      33.374  -7.317  28.562  0.00  0.00    +0.000 A 
ATOM     14  C   UNL     1      32.473  -7.485  29.590  0.00  0.00    +0.000 A 
ATOM     15  C   UNL     1      32.403  -6.639  30.674  0.00  0.00    +0.000 A 
ATOM     16 CL   UNL     1      31.249  -6.865  31.980  0.00  0.00    +0.000 Cl
ENDBRANCH   8  10
BRANCH   6  17
ATOM     17  C   UNL     1      33.225  -2.939  34.034  0.00  0.00    +0.000 C 
ATOM     18  N   UNL     1      33.648  -1.707  33.442  0.00  0.00    +0.000 NA
ATOM     19  O   UNL     1      32.075  -2.993  34.526  0.00  0.00    +0.000 OA
ENDBRANCH   6  17
TORSDOF 2
ENDMDL
MODEL 9
REMARK VINA RESULT:      -5.3     33.356     34.376
REMARK  Name = 
REMARK  2 active torsions:
REMARK  status: ('A' for Active; 'I' for Inactive)
REMARK    1  A    between atoms: C_6  and  C_7
REMARK    2  A    between atoms: N_11  and  C_12
REMARK                            x       y       z     vdW  Elec       q    Type
REMARK                         _______ _______ _______ _____ _____    ______ ____
ROOT
ATOM      1  C   UNL     1      14.723  -9.342  24.775  0.00  0.00    +0.000 C 
ATOM      2  C   UNL     1      15.354  -9.759  26.077  0.00  0.00    +0.000 A 
ATOM      3  C   UNL     1      14.826 -10.802  26.809  0.00  0.00    +0.000 A 
ATOM      4  C   UNL     1      15.405 -11.180  27.994  0.00  0.00    +0.000 A 
ATOM      5  C   UNL     1      14.869 -12.309  28.828  0.00  0.00    +0.000 C 
ATOM      6  C   UNL     1      16.515 -10.490  28.420  0.00  0.00    +0.000 A 
ATOM      7  C   UNL     1      17.059  -9.434  27.692  0.00  0.00    +0.000 A 
ATOM      8  N   UNL     1      18.209  -8.734  28.152  0.00  0.00    +0.000 NA
ATOM      9  N   UNL     1      16.441  -9.118  26.539  0.00  0.00    +0.000 NA
ENDROOT
BRANCH   8  10
ATOM     10  C   UNL     1      18.713  -7.668  27.360  0.00  0.00    +0.000 A 
ATOM     11  C   UNL     1      18.164  -6.407  27.434  0.00  0.00    +0.000 A 
ATOM     12  C   UNL     1      18.638  -5.362  26.676  0.00  0.00    +0.000 A 
ATOM     13  C   UNL     1      19.693  -5.560  25.810  0.00  0.00    +0.000 A 
ATOM     14  C   UNL     1      20.238  -6.823  25.740  0.00  0.00    +0.000 A 
ATOM     15  C   UNL     1      19.780  -7.882  26.490  0.00  0.00    +0.000 A 
ATOM     16 CL   UNL     1      20.485  -9.489  26.391  0.00  0.00    +0.000 Cl
ENDBRANCH   8  10
BRANCH   6  17
ATOM     17  C   UNL     1      17.165 -10.844  29.660  0.00  0.00    +0.000 C 
ATOM     18  N   UNL     1      18.202 -11.830  29.652  0.00  0.00    +0.000 NA
ATOM     19  O   UNL     1      16.856 -10.321  30.754  0.00  0.00    +0.000 OA
ENDBRANCH   6  17
TORSDOF 2
ENDMDL
MODEL 10
REMARK VINA RESULT:      -5.2     17.459     19.651
REMARK  Name = 
REMARK  2 active torsions:
REMARK  status: ('A' for Active; 'I' for Inactive)
REMARK    1  A    between atoms: C_6  and  C_7
REMARK    2  A    between atoms: N_11  and  C_12
REMARK                            x       y       z     vdW  Elec       q    Type
REMARK                         _______ _______ _______ _____ _____    ______ ____
ROOT
ATOM      1  C   UNL     1      34.979  19.683  10.154  0.00  0.00    +0.000 C 
ATOM      2  C   UNL     1      33.627  20.306  10.383  0.00  0.00    +0.000 A 
ATOM      3  C   UNL     1      33.126  20.443  11.661  0.00  0.00    +0.000 A 
ATOM      4  C   UNL     1      31.894  21.012  11.865  0.00  0.00    +0.000 A 
ATOM      5  C   UNL     1      31.304  21.184  13.236  0.00  0.00    +0.000 C 
ATOM      6  C   UNL     1      31.186  21.433  10.764  0.00  0.00    +0.000 A 
ATOM      7  C   UNL     1      31.679  21.300   9.468  0.00  0.00    +0.000 A 
ATOM      8  N   UNL     1      30.929  21.744   8.343  0.00  0.00    +0.000 NA
ATOM      9  N   UNL     1      32.893  20.735   9.342  0.00  0.00    +0.000 NA
ENDROOT
BRANCH   8  10
ATOM     10  C   UNL     1      31.491  21.580   7.049  0.00  0.00    +0.000 A 
ATOM     11  C   UNL     1      32.453  22.444   6.577  0.00  0.00    +0.000 A 
ATOM     12  C   UNL     1      33.009  22.301   5.328  0.00  0.00    +0.000 A 
ATOM     13  C   UNL     1      32.608  21.269   4.507  0.00  0.00    +0.000 A 
ATOM     14  C   UNL     1      31.645  20.406   4.984  0.00  0.00    +0.000 A 
ATOM     15  C   UNL     1      31.076  20.531   6.231  0.00  0.00    +0.000 A 
ATOM     16 CL   UNL     1      29.850  19.423   6.828  0.00  0.00    +0.000 Cl
ENDBRANCH   8  10
BRANCH   6  17
ATOM     17  C   UNL     1      29.885  22.039  10.920  0.00  0.00    +0.000 C 
ATOM     18  N   UNL     1      29.791  23.433  11.225  0.00  0.00    +0.000 NA
ATOM     19  O   UNL     1      28.822  21.388  10.800  0.00  0.00    +0.000 OA
ENDBRANCH   6  17
TORSDOF 2
ENDMDL
