MODEL 1
REMARK VINA RESULT:      -8.2      0.000      0.000
REMARK  Name = 
REMARK  7 active torsions:
REMARK  status: ('A' for Active; 'I' for Inactive)
REMARK    1  A    between atoms: C_2  and  O_3
REMARK    2  A    between atoms: O_3  and  C_4
REMARK    3  A    between atoms: C_9  and  N_10
REMARK    4  A    between atoms: N_10  and  C_11
REMARK    5  A    between atoms: C_12  and  S_13
REMARK    6  A    between atoms: S_13  and  C_14
REMARK    7  A    between atoms: N_22  and  C_23
REMARK                            x       y       z     vdW  Elec       q    Type
REMARK                         _______ _______ _______ _____ _____    ______ ____
ROOT
ATOM      1  C   UNL     1      36.761   3.655  15.997  0.00  0.00    +0.000 C 
ATOM      2  C   UNL     1      37.608   4.708  16.116  0.00  0.00    +0.000 C 
ATOM      3  C   UNL     1      37.198   5.704  15.143  0.00  0.00    +0.000 C 
ATOM      4  O   UNL     1      37.664   6.836  14.873  0.00  0.00    +0.000 OA
ATOM      5  N   UNL     1      36.048   5.229  14.400  0.00  0.00    +0.000 N 
ATOM      6  C   UNL     1      35.794   3.952  14.948  0.00  0.00    +0.000 C 
ATOM      7  O   UNL     1      34.876   3.150  14.613  0.00  0.00    +0.000 OA
ENDROOT
BRANCH   5   8
ATOM      8  C   UNL     1      35.334   5.881  13.366  0.00  0.00    +0.000 A 
ATOM      9  C   UNL     1      34.183   6.570  13.686  0.00  0.00    +0.000 A 
ATOM     10  C   UNL     1      33.453   7.228  12.703  0.00  0.00    +0.000 A 
ATOM     11  C   UNL     1      33.871   7.204  11.375  0.00  0.00    +0.000 A 
ATOM     12  C   UNL     1      35.017   6.521  11.051  0.00  0.00    +0.000 A 
ATOM     13  C   UNL     1      35.471   6.496   9.615  0.00  0.00    +0.000 C 
ATOM     14  C   UNL     1      35.717   5.880  12.042  0.00  0.00    +0.000 A 
ATOM     15  C   UNL     1      36.967   5.132  11.714  0.00  0.00    +0.000 C 
ENDBRANCH   5   8
BRANCH   1  16
ATOM     16  N   UNL     1      36.896   2.518  16.799  0.00  0.00    +0.000 NA
BRANCH  16  22
ATOM     17  C   UNL     1      36.982   0.310  15.918  0.00  0.00    +0.000 A 
ATOM     18  C   UNL     1      36.500  -0.962  15.736  0.00  0.00    +0.000 A 
ATOM     19  C   UNL     1      35.305  -1.296  16.334  0.00  0.00    +0.000 A 
ATOM     20  C   UNL     1      34.645  -0.359  17.084  0.00  0.00    +0.000 A 
ATOM     21  C   UNL     1      35.136   0.910  17.260  0.00  0.00    +0.000 A 
ATOM     22  C   UNL     1      36.323   1.261  16.672  0.00  0.00    +0.000 A 
BRANCH  17  23
ATOM     23  O   UNL     1      38.202   0.656  15.308  0.00  0.00    +0.000 OA
BRANCH  23  25
ATOM     24  C   UNL     1      37.811   1.514  13.063  0.00  0.00    +0.000 C 
ATOM     25  C   UNL     1      38.414   0.443  13.936  0.00  0.00    +0.000 C 
ENDBRANCH  23  25
ENDBRANCH  17  23
ENDBRANCH  16  22
ENDBRANCH   1  16
BRANCH   2  26
ATOM     26  S   UNL     1      38.954   4.788  17.263  0.00  0.00    +0.000 S 
BRANCH  26  27
ATOM     27  C   UNL     1      38.873   6.139  18.377  0.00  0.00    +0.000 A 
ATOM     28  C   UNL     1      38.004   7.172  18.393  0.00  0.00    +0.000 A 
ATOM     29  C   UNL     1      38.044   8.175  19.324  0.00  0.00    +0.000 A 
ATOM     30  C   UNL     1      39.028   8.134  20.309  0.00  0.00    +0.000 A 
ATOM     31  C   UNL     1      39.935   7.096  20.327  0.00  0.00    +0.000 A 
ATOM     32  C   UNL     1      39.860   6.124  19.388  0.00  0.00    +0.000 A 
ENDBRANCH  26  27
ENDBRANCH   2  26
TORSDOF 7
ENDMDL
MODEL 2
REMARK VINA RESULT:      -8.1      2.076      7.628
REMARK  Name = 
REMARK  7 active torsions:
REMARK  status: ('A' for Active; 'I' for Inactive)
REMARK    1  A    between atoms: C_2  and  O_3
REMARK    2  A    between atoms: O_3  and  C_4
REMARK    3  A    between atoms: C_9  and  N_10
REMARK    4  A    between atoms: N_10  and  C_11
REMARK    5  A    between atoms: C_12  and  S_13
REMARK    6  A    between atoms: S_13  and  C_14
REMARK    7  A    between atoms: N_22  and  C_23
REMARK                            x       y       z     vdW  Elec       q    Type
REMARK                         _______ _______ _______ _____ _____    ______ ____
ROOT
ATOM      1  C   UNL     1      36.738   5.222  14.665  0.00  0.00    +0.000 C 
ATOM      2  C   UNL     1      37.212   3.951  14.637  0.00  0.00    +0.000 C 
ATOM      3  C   UNL     1      38.500   3.955  15.304  0.00  0.00    +0.000 C 
ATOM      4  O   UNL     1      39.317   3.031  15.529  0.00  0.00    +0.000 OA
ATOM      5  N   UNL     1      38.821   5.293  15.758  0.00  0.00    +0.000 N 
ATOM      6  C   UNL     1      37.711   6.066  15.349  0.00  0.00    +0.000 C 
ATOM      7  O   UNL     1      37.540   7.305  15.527  0.00  0.00    +0.000 OA
ENDROOT
BRANCH   5   8
ATOM      8  C   UNL     1      39.972   5.740  16.451  0.00  0.00    +0.000 A 
ATOM      9  C   UNL     1      41.082   6.116  15.722  0.00  0.00    +0.000 A 
ATOM     10  C   UNL     1      42.231   6.565  16.362  0.00  0.00    +0.000 A 
ATOM     11  C   UNL     1      42.284   6.644  17.751  0.00  0.00    +0.000 A 
ATOM     12  C   UNL     1      41.182   6.272  18.481  0.00  0.00    +0.000 A 
ATOM     13  C   UNL     1      41.238   6.359  19.984  0.00  0.00    +0.000 C 
ATOM     14  C   UNL     1      40.062   5.832  17.823  0.00  0.00    +0.000 A 
ATOM     15  C   UNL     1      38.850   5.424  18.595  0.00  0.00    +0.000 C 
ENDBRANCH   5   8
BRANCH   1  16
ATOM     16  N   UNL     1      35.507   5.554  14.092  0.00  0.00    +0.000 NA
BRANCH  16  22
ATOM     17  C   UNL     1      34.204   7.016  12.741  0.00  0.00    +0.000 A 
ATOM     18  C   UNL     1      33.842   7.597  11.551  0.00  0.00    +0.000 A 
ATOM     19  C   UNL     1      34.522   7.224  10.413  0.00  0.00    +0.000 A 
ATOM     20  C   UNL     1      35.526   6.296  10.504  0.00  0.00    +0.000 A 
ATOM     21  C   UNL     1      35.880   5.722  11.698  0.00  0.00    +0.000 A 
ATOM     22  C   UNL     1      35.215   6.080  12.842  0.00  0.00    +0.000 A 
BRANCH  17  23
ATOM     23  O   UNL     1      33.512   7.393  13.907  0.00  0.00    +0.000 OA
BRANCH  23  25
ATOM     24  C   UNL     1      33.323   8.633  15.994  0.00  0.00    +0.000 C 
ATOM     25  C   UNL     1      33.804   8.599  14.565  0.00  0.00    +0.000 C 
ENDBRANCH  23  25
ENDBRANCH  17  23
ENDBRANCH  16  22
ENDBRANCH   1  16
BRANCH   2  26
ATOM     26  S   UNL     1      36.367   2.582  13.897  0.00  0.00    +0.000 S 
BRANCH  26  27
ATOM     27  C   UNL     1      35.936   1.308  15.020  0.00  0.00    +0.000 A 
ATOM     28  C   UNL     1      36.250  -0.004  14.973  0.00  0.00    +0.000 A 
ATOM     29  C   UNL     1      35.850  -0.908  15.920  0.00  0.00    +0.000 A 
ATOM     30  C   UNL     1      35.081  -0.458  16.991  0.00  0.00    +0.000 A 
ATOM     31  C   UNL     1      34.739   0.874  17.076  0.00  0.00    +0.000 A 
ATOM     32  C   UNL     1      35.156   1.735  16.118  0.00  0.00    +0.000 A 
ENDBRANCH  26  27
ENDBRANCH   2  26
TORSDOF 7
ENDMDL
MODEL 3
REMARK VINA RESULT:      -8.1      1.582      6.568
REMARK  Name = 
REMARK  7 active torsions:
REMARK  status: ('A' for Active; 'I' for Inactive)
REMARK    1  A    between atoms: C_2  and  O_3
REMARK    2  A    between atoms: O_3  and  C_4
REMARK    3  A    between atoms: C_9  and  N_10
REMARK    4  A    between atoms: N_10  and  C_11
REMARK    5  A    between atoms: C_12  and  S_13
REMARK    6  A    between atoms: S_13  and  C_14
REMARK    7  A    between atoms: N_22  and  C_23
REMARK                            x       y       z     vdW  Elec       q    Type
REMARK                         _______ _______ _______ _____ _____    ______ ____
ROOT
ATOM      1  C   UNL     1      36.392   4.274  14.585  0.00  0.00    +0.000 C 
ATOM      2  C   UNL     1      37.709   4.086  14.853  0.00  0.00    +0.000 C 
ATOM      3  C   UNL     1      37.899   2.671  15.112  0.00  0.00    +0.000 C 
ATOM      4  O   UNL     1      38.927   2.014  15.402  0.00  0.00    +0.000 OA
ATOM      5  N   UNL     1      36.636   1.970  14.995  0.00  0.00    +0.000 N 
ATOM      6  C   UNL     1      35.712   2.988  14.667  0.00  0.00    +0.000 C 
ATOM      7  O   UNL     1      34.472   2.852  14.464  0.00  0.00    +0.000 OA
ENDROOT
BRANCH   5   8
ATOM      8  C   UNL     1      36.372   0.590  15.165  0.00  0.00    +0.000 A 
ATOM      9  C   UNL     1      36.853  -0.299  14.226  0.00  0.00    +0.000 A 
ATOM     10  C   UNL     1      36.622  -1.664  14.356  0.00  0.00    +0.000 A 
ATOM     11  C   UNL     1      35.899  -2.160  15.438  0.00  0.00    +0.000 A 
ATOM     12  C   UNL     1      35.419  -1.280  16.376  0.00  0.00    +0.000 A 
ATOM     13  C   UNL     1      34.640  -1.816  17.548  0.00  0.00    +0.000 C 
ATOM     14  C   UNL     1      35.662   0.061  16.222  0.00  0.00    +0.000 A 
ATOM     15  C   UNL     1      35.153   1.037  17.230  0.00  0.00    +0.000 C 
ENDBRANCH   5   8
BRANCH   1  16
ATOM     16  N   UNL     1      35.882   5.543  14.298  0.00  0.00    +0.000 NA
BRANCH  16  22
ATOM     17  C   UNL     1      34.237   6.834  13.163  0.00  0.00    +0.000 A 
ATOM     18  C   UNL     1      33.666   7.392  12.046  0.00  0.00    +0.000 A 
ATOM     19  C   UNL     1      34.264   7.164  10.827  0.00  0.00    +0.000 A 
ATOM     20  C   UNL     1      35.398   6.397  10.768  0.00  0.00    +0.000 A 
ATOM     21  C   UNL     1      35.961   5.844  11.890  0.00  0.00    +0.000 A 
ATOM     22  C   UNL     1      35.380   6.059  13.112  0.00  0.00    +0.000 A 
BRANCH  17  23
ATOM     23  O   UNL     1      33.629   7.064  14.411  0.00  0.00    +0.000 OA
BRANCH  23  25
ATOM     24  C   UNL     1      34.961   8.989  15.080  0.00  0.00    +0.000 C 
ATOM     25  C   UNL     1      33.600   8.348  14.978  0.00  0.00    +0.000 C 
ENDBRANCH  23  25
ENDBRANCH  17  23
ENDBRANCH  16  22
ENDBRANCH   1  16
BRANCH   2  26
ATOM     26  S   UNL     1      38.922   5.375  14.876  0.00  0.00    +0.000 S 
BRANCH  26  27
ATOM     27  C   UNL     1      39.606   5.693  16.458  0.00  0.00    +0.000 A 
ATOM     28  C   UNL     1      40.820   6.193  16.770  0.00  0.00    +0.000 A 
ATOM     29  C   UNL     1      41.242   6.397  18.057  0.00  0.00    +0.000 A 
ATOM     30  C   UNL     1      40.380   6.075  19.103  0.00  0.00    +0.000 A 
ATOM     31  C   UNL     1      39.131   5.561  18.826  0.00  0.00    +0.000 A 
ATOM     32  C   UNL     1      38.754   5.375  17.539  0.00  0.00    +0.000 A 
ENDBRANCH  26  27
ENDBRANCH   2  26
TORSDOF 7
ENDMDL
MODEL 4
REMARK VINA RESULT:      -8.0      2.367      6.670
REMARK  Name = 
REMARK  7 active torsions:
REMARK  status: ('A' for Active; 'I' for Inactive)
REMARK    1  A    between atoms: C_2  and  O_3
REMARK    2  A    between atoms: O_3  and  C_4
REMARK    3  A    between atoms: C_9  and  N_10
REMARK    4  A    between atoms: N_10  and  C_11
REMARK    5  A    between atoms: C_12  and  S_13
REMARK    6  A    between atoms: S_13  and  C_14
REMARK    7  A    between atoms: N_22  and  C_23
REMARK                            x       y       z     vdW  Elec       q    Type
REMARK                         _______ _______ _______ _____ _____    ______ ____
ROOT
ATOM      1  C   UNL     1      37.944   5.562  16.327  0.00  0.00    +0.000 C 
ATOM      2  C   UNL     1      37.297   5.725  15.146  0.00  0.00    +0.000 C 
ATOM      3  C   UNL     1      36.637   4.469  14.839  0.00  0.00    +0.000 C 
ATOM      4  O   UNL     1      35.924   4.127  13.867  0.00  0.00    +0.000 OA
ATOM      5  N   UNL     1      36.899   3.501  15.884  0.00  0.00    +0.000 N 
ATOM      6  C   UNL     1      37.715   4.202  16.800  0.00  0.00    +0.000 C 
ATOM      7  O   UNL     1      38.197   3.761  17.881  0.00  0.00    +0.000 OA
ENDROOT
BRANCH   5   8
ATOM      8  C   UNL     1      36.450   2.162  15.982  0.00  0.00    +0.000 A 
ATOM      9  C   UNL     1      35.311   1.896  16.714  0.00  0.00    +0.000 A 
ATOM     10  C   UNL     1      34.831   0.596  16.832  0.00  0.00    +0.000 A 
ATOM     11  C   UNL     1      35.492  -0.462  16.213  0.00  0.00    +0.000 A 
ATOM     12  C   UNL     1      36.625  -0.202  15.483  0.00  0.00    +0.000 A 
ATOM     13  C   UNL     1      37.339  -1.346  14.812  0.00  0.00    +0.000 C 
ATOM     14  C   UNL     1      37.076   1.090  15.384  0.00  0.00    +0.000 A 
ATOM     15  C   UNL     1      38.305   1.397  14.593  0.00  0.00    +0.000 C 
ENDBRANCH   5   8
BRANCH   1  16
ATOM     16  N   UNL     1      38.688   6.599  16.899  0.00  0.00    +0.000 NA
BRANCH  16  22
ATOM     17  C   UNL     1      39.478   6.940  19.116  0.00  0.00    +0.000 A 
ATOM     18  C   UNL     1      39.434   7.509  20.365  0.00  0.00    +0.000 A 
ATOM     19  C   UNL     1      38.418   8.398  20.638  0.00  0.00    +0.000 A 
ATOM     20  C   UNL     1      37.496   8.684  19.665  0.00  0.00    +0.000 A 
ATOM     21  C   UNL     1      37.550   8.111  18.420  0.00  0.00    +0.000 A 
ATOM     22  C   UNL     1      38.553   7.223  18.130  0.00  0.00    +0.000 A 
BRANCH  17  23
ATOM     23  O   UNL     1      40.514   6.031  18.833  0.00  0.00    +0.000 OA
BRANCH  23  25
ATOM     24  C   UNL     1      42.356   6.497  17.310  0.00  0.00    +0.000 C 
ATOM     25  C   UNL     1      41.848   6.459  18.729  0.00  0.00    +0.000 C 
ENDBRANCH  23  25
ENDBRANCH  17  23
ENDBRANCH  16  22
ENDBRANCH   1  16
BRANCH   2  26
ATOM     26  S   UNL     1      37.301   7.219  14.197  0.00  0.00    +0.000 S 
BRANCH  26  27
ATOM     27  C   UNL     1      36.141   8.418  14.734  0.00  0.00    +0.000 A 
ATOM     28  C   UNL     1      36.368   9.638  15.263  0.00  0.00    +0.000 A 
ATOM     29  C   UNL     1      35.367  10.490  15.647  0.00  0.00    +0.000 A 
ATOM     30  C   UNL     1      34.044  10.084  15.485  0.00  0.00    +0.000 A 
ATOM     31  C   UNL     1      33.770   8.844  14.948  0.00  0.00    +0.000 A 
ATOM     32  C   UNL     1      34.790   8.033  14.582  0.00  0.00    +0.000 A 
ENDBRANCH  26  27
ENDBRANCH   2  26
TORSDOF 7
ENDMDL
MODEL 5
REMARK VINA RESULT:      -8.0      1.704      6.089
REMARK  Name = 
REMARK  7 active torsions:
REMARK  status: ('A' for Active; 'I' for Inactive)
REMARK    1  A    between atoms: C_2  and  O_3
REMARK    2  A    between atoms: O_3  and  C_4
REMARK    3  A    between atoms: C_9  and  N_10
REMARK    4  A    between atoms: N_10  and  C_11
REMARK    5  A    between atoms: C_12  and  S_13
REMARK    6  A    between atoms: S_13  and  C_14
REMARK    7  A    between atoms: N_22  and  C_23
REMARK                            x       y       z     vdW  Elec       q    Type
REMARK                         _______ _______ _______ _____ _____    ______ ____
ROOT
ATOM      1  C   UNL     1      37.948   4.147  16.060  0.00  0.00    +0.000 C 
ATOM      2  C   UNL     1      37.810   5.173  15.183  0.00  0.00    +0.000 C 
ATOM      3  C   UNL     1      38.088   6.400  15.907  0.00  0.00    +0.000 C 
ATOM      4  O   UNL     1      38.090   7.597  15.534  0.00  0.00    +0.000 OA
ATOM      5  N   UNL     1      38.408   6.101  17.288  0.00  0.00    +0.000 N 
ATOM      6  C   UNL     1      38.315   4.693  17.361  0.00  0.00    +0.000 C 
ATOM      7  O   UNL     1      38.511   3.970  18.378  0.00  0.00    +0.000 OA
ENDROOT
BRANCH   5   8
ATOM      8  C   UNL     1      38.741   6.997  18.332  0.00  0.00    +0.000 A 
ATOM      9  C   UNL     1      37.732   7.717  18.936  0.00  0.00    +0.000 A 
ATOM     10  C   UNL     1      38.013   8.605  19.968  0.00  0.00    +0.000 A 
ATOM     11  C   UNL     1      39.321   8.783  20.412  0.00  0.00    +0.000 A 
ATOM     12  C   UNL     1      40.329   8.068  19.815  0.00  0.00    +0.000 A 
ATOM     13  C   UNL     1      41.744   8.259  20.297  0.00  0.00    +0.000 C 
ATOM     14  C   UNL     1      40.022   7.200  18.799  0.00  0.00    +0.000 A 
ATOM     15  C   UNL     1      41.102   6.409  18.136  0.00  0.00    +0.000 C 
ENDBRANCH   5   8
BRANCH   1  16
ATOM     16  N   UNL     1      37.738   2.821  15.669  0.00  0.00    +0.000 NA
BRANCH  16  22
ATOM     17  C   UNL     1      37.033   0.567  15.948  0.00  0.00    +0.000 A 
ATOM     18  C   UNL     1      36.136  -0.406  16.312  0.00  0.00    +0.000 A 
ATOM     19  C   UNL     1      34.914  -0.010  16.809  0.00  0.00    +0.000 A 
ATOM     20  C   UNL     1      34.638   1.327  16.924  0.00  0.00    +0.000 A 
ATOM     21  C   UNL     1      35.542   2.291  16.558  0.00  0.00    +0.000 A 
ATOM     22  C   UNL     1      36.762   1.917  16.061  0.00  0.00    +0.000 A 
BRANCH  17  23
ATOM     23  O   UNL     1      38.283   0.167  15.439  0.00  0.00    +0.000 OA
BRANCH  23  25
ATOM     24  C   UNL     1      39.408  -1.960  15.813  0.00  0.00    +0.000 C 
ATOM     25  C   UNL     1      38.485  -1.135  14.952  0.00  0.00    +0.000 C 
ENDBRANCH  23  25
ENDBRANCH  17  23
ENDBRANCH  16  22
ENDBRANCH   1  16
BRANCH   2  26
ATOM     26  S   UNL     1      37.363   4.984  13.481  0.00  0.00    +0.000 S 
BRANCH  26  27
ATOM     27  C   UNL     1      35.891   5.821  13.025  0.00  0.00    +0.000 A 
ATOM     28  C   UNL     1      34.847   6.180  13.801  0.00  0.00    +0.000 A 
ATOM     29  C   UNL     1      33.744   6.835  13.322  0.00  0.00    +0.000 A 
ATOM     30  C   UNL     1      33.691   7.154  11.967  0.00  0.00    +0.000 A 
ATOM     31  C   UNL     1      34.738   6.804  11.141  0.00  0.00    +0.000 A 
ATOM     32  C   UNL     1      35.809   6.156  11.655  0.00  0.00    +0.000 A 
ENDBRANCH  26  27
ENDBRANCH   2  26
TORSDOF 7
ENDMDL
MODEL 6
REMARK VINA RESULT:      -7.8      1.480      6.056
REMARK  Name = 
REMARK  7 active torsions:
REMARK  status: ('A' for Active; 'I' for Inactive)
REMARK    1  A    between atoms: C_2  and  O_3
REMARK    2  A    between atoms: O_3  and  C_4
REMARK    3  A    between atoms: C_9  and  N_10
REMARK    4  A    between atoms: N_10  and  C_11
REMARK    5  A    between atoms: C_12  and  S_13
REMARK    6  A    between atoms: S_13  and  C_14
REMARK    7  A    between atoms: N_22  and  C_23
REMARK                            x       y       z     vdW  Elec       q    Type
REMARK                         _______ _______ _______ _____ _____    ______ ____
ROOT
ATOM      1  C   UNL     1      36.726   4.338  14.703  0.00  0.00    +0.000 C 
ATOM      2  C   UNL     1      38.038   4.064  14.914  0.00  0.00    +0.000 C 
ATOM      3  C   UNL     1      38.157   2.628  15.085  0.00  0.00    +0.000 C 
ATOM      4  O   UNL     1      39.156   1.901  15.300  0.00  0.00    +0.000 OA
ATOM      5  N   UNL     1      36.854   2.004  14.973  0.00  0.00    +0.000 N 
ATOM      6  C   UNL     1      35.978   3.087  14.736  0.00  0.00    +0.000 C 
ATOM      7  O   UNL     1      34.727   3.030  14.570  0.00  0.00    +0.000 OA
ENDROOT
BRANCH   5   8
ATOM      8  C   UNL     1      36.520   0.632  15.074  0.00  0.00    +0.000 A 
ATOM      9  C   UNL     1      36.934  -0.227  14.077  0.00  0.00    +0.000 A 
ATOM     10  C   UNL     1      36.631  -1.583  14.138  0.00  0.00    +0.000 A 
ATOM     11  C   UNL     1      35.905  -2.099  15.208  0.00  0.00    +0.000 A 
ATOM     12  C   UNL     1      35.492  -1.249  16.203  0.00  0.00    +0.000 A 
ATOM     13  C   UNL     1      34.708  -1.807  17.362  0.00  0.00    +0.000 C 
ATOM     14  C   UNL     1      35.804   0.084  16.117  0.00  0.00    +0.000 A 
ATOM     15  C   UNL     1      35.368   1.028  17.188  0.00  0.00    +0.000 C 
ENDBRANCH   5   8
BRANCH   1  16
ATOM     16  N   UNL     1      36.278   5.647  14.507  0.00  0.00    +0.000 NA
BRANCH  16  22
ATOM     17  C   UNL     1      35.733   6.138  12.244  0.00  0.00    +0.000 A 
ATOM     18  C   UNL     1      34.914   6.614  11.251  0.00  0.00    +0.000 A 
ATOM     19  C   UNL     1      33.690   7.133  11.611  0.00  0.00    +0.000 A 
ATOM     20  C   UNL     1      33.333   7.155  12.934  0.00  0.00    +0.000 A 
ATOM     21  C   UNL     1      34.159   6.676  13.919  0.00  0.00    +0.000 A 
ATOM     22  C   UNL     1      35.381   6.157  13.580  0.00  0.00    +0.000 A 
BRANCH  17  23
ATOM     23  O   UNL     1      36.985   5.608  11.881  0.00  0.00    +0.000 OA
BRANCH  23  25
ATOM     24  C   UNL     1      37.895   3.434  11.270  0.00  0.00    +0.000 C 
ATOM     25  C   UNL     1      37.098   4.647  10.863  0.00  0.00    +0.000 C 
ENDBRANCH  23  25
ENDBRANCH  17  23
ENDBRANCH  16  22
ENDBRANCH   1  16
BRANCH   2  26
ATOM     26  S   UNL     1      39.321   5.282  14.967  0.00  0.00    +0.000 S 
BRANCH  26  27
ATOM     27  C   UNL     1      39.874   5.678  16.583  0.00  0.00    +0.000 A 
ATOM     28  C   UNL     1      41.055   6.204  16.968  0.00  0.00    +0.000 A 
ATOM     29  C   UNL     1      41.370   6.469  18.273  0.00  0.00    +0.000 A 
ATOM     30  C   UNL     1      40.429   6.186  19.260  0.00  0.00    +0.000 A 
ATOM     31  C   UNL     1      39.210   5.647  18.908  0.00  0.00    +0.000 A 
ATOM     32  C   UNL     1      38.939   5.400  17.605  0.00  0.00    +0.000 A 
ENDBRANCH  26  27
ENDBRANCH   2  26
TORSDOF 7
ENDMDL
MODEL 7
REMARK VINA RESULT:      -7.8      1.962      7.332
REMARK  Name = 
REMARK  7 active torsions:
REMARK  status: ('A' for Active; 'I' for Inactive)
REMARK    1  A    between atoms: C_2  and  O_3
REMARK    2  A    between atoms: O_3  and  C_4
REMARK    3  A    between atoms: C_9  and  N_10
REMARK    4  A    between atoms: N_10  and  C_11
REMARK    5  A    between atoms: C_12  and  S_13
REMARK    6  A    between atoms: S_13  and  C_14
REMARK    7  A    between atoms: N_22  and  C_23
REMARK                            x       y       z     vdW  Elec       q    Type
REMARK                         _______ _______ _______ _____ _____    ______ ____
ROOT
ATOM      1  C   UNL     1      37.850   5.231  16.221  0.00  0.00    +0.000 C 
ATOM      2  C   UNL     1      37.291   5.284  14.985  0.00  0.00    +0.000 C 
ATOM      3  C   UNL     1      36.634   4.012  14.753  0.00  0.00    +0.000 C 
ATOM      4  O   UNL     1      35.985   3.584  13.769  0.00  0.00    +0.000 OA
ATOM      5  N   UNL     1      36.802   3.147  15.903  0.00  0.00    +0.000 N 
ATOM      6  C   UNL     1      37.563   3.926  16.805  0.00  0.00    +0.000 C 
ATOM      7  O   UNL     1      37.958   3.587  17.955  0.00  0.00    +0.000 OA
ENDROOT
BRANCH   5   8
ATOM      8  C   UNL     1      36.323   1.829  16.096  0.00  0.00    +0.000 A 
ATOM      9  C   UNL     1      35.178   1.642  16.843  0.00  0.00    +0.000 A 
ATOM     10  C   UNL     1      34.670   0.365  17.054  0.00  0.00    +0.000 A 
ATOM     11  C   UNL     1      35.307  -0.749  16.514  0.00  0.00    +0.000 A 
ATOM     12  C   UNL     1      36.446  -0.568  15.769  0.00  0.00    +0.000 A 
ATOM     13  C   UNL     1      37.134  -1.773  15.183  0.00  0.00    +0.000 C 
ATOM     14  C   UNL     1      36.925   0.703  15.578  0.00  0.00    +0.000 A 
ATOM     15  C   UNL     1      38.161   0.925  14.769  0.00  0.00    +0.000 C 
ENDBRANCH   5   8
BRANCH   1  16
ATOM     16  N   UNL     1      38.569   6.309  16.743  0.00  0.00    +0.000 NA
BRANCH  16  22
ATOM     17  C   UNL     1      40.198   6.571  18.455  0.00  0.00    +0.000 A 
ATOM     18  C   UNL     1      41.484   6.667  18.926  0.00  0.00    +0.000 A 
ATOM     19  C   UNL     1      42.517   6.589  18.018  0.00  0.00    +0.000 A 
ATOM     20  C   UNL     1      42.230   6.419  16.689  0.00  0.00    +0.000 A 
ATOM     21  C   UNL     1      40.941   6.323  16.229  0.00  0.00    +0.000 A 
ATOM     22  C   UNL     1      39.901   6.399  17.117  0.00  0.00    +0.000 A 
BRANCH  17  23
ATOM     23  O   UNL     1      39.141   6.651  19.380  0.00  0.00    +0.000 OA
BRANCH  23  25
ATOM     24  C   UNL     1      38.070   8.601  20.368  0.00  0.00    +0.000 C 
ATOM     25  C   UNL     1      39.170   7.573  20.439  0.00  0.00    +0.000 C 
ENDBRANCH  23  25
ENDBRANCH  17  23
ENDBRANCH  16  22
ENDBRANCH   1  16
BRANCH   2  26
ATOM     26  S   UNL     1      37.391   6.679  13.899  0.00  0.00    +0.000 S 
BRANCH  26  27
ATOM     27  C   UNL     1      35.991   6.889  12.865  0.00  0.00    +0.000 A 
ATOM     28  C   UNL     1      35.944   7.035  11.525  0.00  0.00    +0.000 A 
ATOM     29  C   UNL     1      34.777   7.193  10.826  0.00  0.00    +0.000 A 
ATOM     30  C   UNL     1      33.573   7.203  11.527  0.00  0.00    +0.000 A 
ATOM     31  C   UNL     1      33.579   7.057  12.897  0.00  0.00    +0.000 A 
ATOM     32  C   UNL     1      34.755   6.903  13.549  0.00  0.00    +0.000 A 
ENDBRANCH  26  27
ENDBRANCH   2  26
TORSDOF 7
ENDMDL
MODEL 8
REMARK VINA RESULT:      -7.7      4.791      8.322
REMARK  Name = 
REMARK  7 active torsions:
REMARK  status: ('A' for Active; 'I' for Inactive)
REMARK    1  A    between atoms: C_2  and  O_3
REMARK    2  A    between atoms: O_3  and  C_4
REMARK    3  A    between atoms: C_9  and  N_10
REMARK    4  A    between atoms: N_10  and  C_11
REMARK    5  A    between atoms: C_12  and  S_13
REMARK    6  A    between atoms: S_13  and  C_14
REMARK    7  A    between atoms: N_22  and  C_23
REMARK                            x       y       z     vdW  Elec       q    Type
REMARK                         _______ _______ _______ _____ _____    ______ ____
ROOT
ATOM      1  C   UNL     1      38.712  -2.149  14.947  0.00  0.00    +0.000 C 
ATOM      2  C   UNL     1      38.662  -1.121  14.063  0.00  0.00    +0.000 C 
ATOM      3  C   UNL     1      40.007  -0.921  13.557  0.00  0.00    +0.000 C 
ATOM      4  O   UNL     1      40.465  -0.100  12.727  0.00  0.00    +0.000 OA
ATOM      5  N   UNL     1      40.914  -1.873  14.166  0.00  0.00    +0.000 N 
ATOM      6  C   UNL     1      40.087  -2.627  15.028  0.00  0.00    +0.000 C 
ATOM      7  O   UNL     1      40.439  -3.582  15.776  0.00  0.00    +0.000 OA
ENDROOT
BRANCH   5   8
ATOM      8  C   UNL     1      42.306  -2.027  13.956  0.00  0.00    +0.000 A 
ATOM      9  C   UNL     1      43.181  -1.344  14.776  0.00  0.00    +0.000 A 
ATOM     10  C   UNL     1      44.555  -1.469  14.608  0.00  0.00    +0.000 A 
ATOM     11  C   UNL     1      45.075  -2.288  13.609  0.00  0.00    +0.000 A 
ATOM     12  C   UNL     1      44.209  -2.971  12.792  0.00  0.00    +0.000 A 
ATOM     13  C   UNL     1      44.770  -3.859  11.712  0.00  0.00    +0.000 C 
ATOM     14  C   UNL     1      42.857  -2.828  12.979  0.00  0.00    +0.000 A 
ATOM     15  C   UNL     1      41.896  -3.562  12.104  0.00  0.00    +0.000 C 
ENDBRANCH   5   8
BRANCH   1  16
ATOM     16  N   UNL     1      37.568  -2.586  15.620  0.00  0.00    +0.000 NA
BRANCH  16  22
ATOM     17  C   UNL     1      35.421  -2.045  16.488  0.00  0.00    +0.000 A 
ATOM     18  C   UNL     1      34.571  -1.454  17.390  0.00  0.00    +0.000 A 
ATOM     19  C   UNL     1      35.122  -0.736  18.428  0.00  0.00    +0.000 A 
ATOM     20  C   UNL     1      36.485  -0.636  18.527  0.00  0.00    +0.000 A 
ATOM     21  C   UNL     1      37.325  -1.231  17.620  0.00  0.00    +0.000 A 
ATOM     22  C   UNL     1      36.796  -1.949  16.581  0.00  0.00    +0.000 A 
BRANCH  17  23
ATOM     23  O   UNL     1      34.862  -2.779  15.426  0.00  0.00    +0.000 OA
BRANCH  23  25
ATOM     24  C   UNL     1      33.738  -4.675  14.392  0.00  0.00    +0.000 C 
ATOM     25  C   UNL     1      34.391  -4.088  15.617  0.00  0.00    +0.000 C 
ENDBRANCH  23  25
ENDBRANCH  17  23
ENDBRANCH  16  22
ENDBRANCH   1  16
BRANCH   2  26
ATOM     26  S   UNL     1      37.193  -0.223  13.651  0.00  0.00    +0.000 S 
BRANCH  26  27
ATOM     27  C   UNL     1      36.852   1.128  14.714  0.00  0.00    +0.000 A 
ATOM     28  C   UNL     1      37.694   2.076  15.175  0.00  0.00    +0.000 A 
ATOM     29  C   UNL     1      37.303   3.089  16.009  0.00  0.00    +0.000 A 
ATOM     30  C   UNL     1      35.969   3.153  16.405  0.00  0.00    +0.000 A 
ATOM     31  C   UNL     1      35.077   2.203  15.956  0.00  0.00    +0.000 A 
ATOM     32  C   UNL     1      35.506   1.218  15.133  0.00  0.00    +0.000 A 
ENDBRANCH  26  27
ENDBRANCH   2  26
TORSDOF 7
ENDMDL
MODEL 9
REMARK VINA RESULT:      -7.6     23.528     26.455
REMARK  Name = 
REMARK  7 active torsions:
REMARK  status: ('A' for Active; 'I' for Inactive)
REMARK    1  A    between atoms: C_2  and  O_3
REMARK    2  A    between atoms: O_3  and  C_4
REMARK    3  A    between atoms: C_9  and  N_10
REMARK    4  A    between atoms: N_10  and  C_11
REMARK    5  A    between atoms: C_12  and  S_13
REMARK    6  A    between atoms: S_13  and  C_14
REMARK    7  A    between atoms: N_22  and  C_23
REMARK                            x       y       z     vdW  Elec       q    Type
REMARK                         _______ _______ _______ _____ _____    ______ ____
ROOT
ATOM      1  C   UNL     1      27.460  15.289  38.206  0.00  0.00    +0.000 C 
ATOM      2  C   UNL     1      28.629  15.497  37.549  0.00  0.00    +0.000 C 
ATOM      3  C   UNL     1      28.311  15.664  36.143  0.00  0.00    +0.000 C 
ATOM      4  O   UNL     1      29.045  15.878  35.150  0.00  0.00    +0.000 OA
ATOM      5  N   UNL     1      26.881  15.551  35.940  0.00  0.00    +0.000 N 
ATOM      6  C   UNL     1      26.371  15.317  37.237  0.00  0.00    +0.000 C 
ATOM      7  O   UNL     1      25.161  15.151  37.559  0.00  0.00    +0.000 OA
ENDROOT
BRANCH   5   8
ATOM      8  C   UNL     1      26.150  15.651  34.732  0.00  0.00    +0.000 A 
ATOM      9  C   UNL     1      26.002  14.524  33.949  0.00  0.00    +0.000 A 
ATOM     10  C   UNL     1      25.288  14.576  32.758  0.00  0.00    +0.000 A 
ATOM     11  C   UNL     1      24.706  15.767  32.332  0.00  0.00    +0.000 A 
ATOM     12  C   UNL     1      24.849  16.891  33.107  0.00  0.00    +0.000 A 
ATOM     13  C   UNL     1      24.218  18.180  32.648  0.00  0.00    +0.000 C 
ATOM     14  C   UNL     1      25.560  16.811  34.278  0.00  0.00    +0.000 A 
ATOM     15  C   UNL     1      25.726  18.019  35.139  0.00  0.00    +0.000 C 
ENDBRANCH   5   8
BRANCH   1  16
ATOM     16  N   UNL     1      27.427  15.083  39.587  0.00  0.00    +0.000 NA
BRANCH  16  22
ATOM     17  C   UNL     1      26.197  13.456  40.812  0.00  0.00    +0.000 A 
ATOM     18  C   UNL     1      26.073  12.299  41.541  0.00  0.00    +0.000 A 
ATOM     19  C   UNL     1      27.208  11.559  41.785  0.00  0.00    +0.000 A 
ATOM     20  C   UNL     1      28.412  11.996  41.297  0.00  0.00    +0.000 A 
ATOM     21  C   UNL     1      28.525  13.153  40.569  0.00  0.00    +0.000 A 
ATOM     22  C   UNL     1      27.407  13.903  40.316  0.00  0.00    +0.000 A 
BRANCH  17  23
ATOM     23  O   UNL     1      25.040  14.215  40.561  0.00  0.00    +0.000 OA
BRANCH  23  25
ATOM     24  C   UNL     1      24.538  16.506  41.215  0.00  0.00    +0.000 C 
ATOM     25  C   UNL     1      24.482  15.038  41.553  0.00  0.00    +0.000 C 
ENDBRANCH  23  25
ENDBRANCH  17  23
ENDBRANCH  16  22
ENDBRANCH   1  16
BRANCH   2  26
ATOM     26  S   UNL     1      30.220  15.537  38.324  0.00  0.00    +0.000 S 
BRANCH  26  27
ATOM     27  C   UNL     1      31.190  14.102  38.053  0.00  0.00    +0.000 A 
ATOM     28  C   UNL     1      31.629  13.195  38.951  0.00  0.00    +0.000 A 
ATOM     29  C   UNL     1      32.387  12.107  38.612  0.00  0.00    +0.000 A 
ATOM     30  C   UNL     1      32.726  11.918  37.274  0.00  0.00    +0.000 A 
ATOM     31  C   UNL     1      32.298  12.823  36.326  0.00  0.00    +0.000 A 
ATOM     32  C   UNL     1      31.550  13.885  36.704  0.00  0.00    +0.000 A 
ENDBRANCH  26  27
ENDBRANCH   2  26
TORSDOF 7
ENDMDL
MODEL 10
REMARK VINA RESULT:      -7.6      1.963      6.228
REMARK  Name = 
REMARK  7 active torsions:
REMARK  status: ('A' for Active; 'I' for Inactive)
REMARK    1  A    between atoms: C_2  and  O_3
REMARK    2  A    between atoms: O_3  and  C_4
REMARK    3  A    between atoms: C_9  and  N_10
REMARK    4  A    between atoms: N_10  and  C_11
REMARK    5  A    between atoms: C_12  and  S_13
REMARK    6  A    between atoms: S_13  and  C_14
REMARK    7  A    between atoms: N_22  and  C_23
REMARK                            x       y       z     vdW  Elec       q    Type
REMARK                         _______ _______ _______ _____ _____    ______ ____
ROOT
ATOM      1  C   UNL     1      36.872   4.240  15.019  0.00  0.00    +0.000 C 
ATOM      2  C   UNL     1      36.563   5.538  14.770  0.00  0.00    +0.000 C 
ATOM      3  C   UNL     1      37.665   6.345  15.260  0.00  0.00    +0.000 C 
ATOM      4  O   UNL     1      37.846   7.586  15.258  0.00  0.00    +0.000 OA
ATOM      5  N   UNL     1      38.689   5.494  15.833  0.00  0.00    +0.000 N 
ATOM      6  C   UNL     1      38.174   4.188  15.673  0.00  0.00    +0.000 C 
ATOM      7  O   UNL     1      38.722   3.106  16.026  0.00  0.00    +0.000 OA
ENDROOT
BRANCH   5   8
ATOM      8  C   UNL     1      39.922   5.867  16.419  0.00  0.00    +0.000 A 
ATOM      9  C   UNL     1      40.987   6.163  15.593  0.00  0.00    +0.000 A 
ATOM     10  C   UNL     1      42.215   6.539  16.125  0.00  0.00    +0.000 A 
ATOM     11  C   UNL     1      42.394   6.624  17.504  0.00  0.00    +0.000 A 
ATOM     12  C   UNL     1      41.337   6.332  18.330  0.00  0.00    +0.000 A 
ATOM     13  C   UNL     1      41.529   6.427  19.821  0.00  0.00    +0.000 C 
ATOM     14  C   UNL     1      40.137   5.964  17.777  0.00  0.00    +0.000 A 
ATOM     15  C   UNL     1      38.972   5.644  18.655  0.00  0.00    +0.000 C 
ENDBRANCH   5   8
BRANCH   1  16
ATOM     16  N   UNL     1      36.001   3.204  14.670  0.00  0.00    +0.000 NA
BRANCH  16  22
ATOM     17  C   UNL     1      36.247   0.840  14.755  0.00  0.00    +0.000 A 
ATOM     18  C   UNL     1      36.048  -0.399  15.312  0.00  0.00    +0.000 A 
ATOM     19  C   UNL     1      35.308  -0.479  16.471  0.00  0.00    +0.000 A 
ATOM     20  C   UNL     1      34.802   0.667  17.025  0.00  0.00    +0.000 A 
ATOM     21  C   UNL     1      35.008   1.901  16.461  0.00  0.00    +0.000 A 
ATOM     22  C   UNL     1      35.740   2.000  15.307  0.00  0.00    +0.000 A 
BRANCH  17  23
ATOM     23  O   UNL     1      37.001   0.926  13.570  0.00  0.00    +0.000 OA
BRANCH  23  25
ATOM     24  C   UNL     1      39.285   0.424  14.246  0.00  0.00    +0.000 C 
ATOM     25  C   UNL     1      38.114   0.097  13.356  0.00  0.00    +0.000 C 
ENDBRANCH  23  25
ENDBRANCH  17  23
ENDBRANCH  16  22
ENDBRANCH   1  16
BRANCH   2  26
ATOM     26  S   UNL     1      35.069   6.082  13.994  0.00  0.00    +0.000 S 
BRANCH  26  27
ATOM     27  C   UNL     1      35.180   6.250  12.253  0.00  0.00    +0.000 A 
ATOM     28  C   UNL     1      34.454   7.035  11.430  0.00  0.00    +0.000 A 
ATOM     29  C   UNL     1      34.638   7.077  10.074  0.00  0.00    +0.000 A 
ATOM     30  C   UNL     1      35.624   6.272   9.507  0.00  0.00    +0.000 A 
ATOM     31  C   UNL     1      36.388   5.456  10.314  0.00  0.00    +0.000 A 
ATOM     32  C   UNL     1      36.173   5.445  11.650  0.00  0.00    +0.000 A 
ENDBRANCH  26  27
ENDBRANCH   2  26
TORSDOF 7
ENDMDL
