MODEL 1
REMARK VINA RESULT:      -8.3      0.000      0.000
REMARK  Name = 
REMARK  7 active torsions:
REMARK  status: ('A' for Active; 'I' for Inactive)
REMARK    1  A    between atoms: C_6  and  C_7
REMARK    2  A    between atoms: C_7  and  C_9
REMARK    3  A    between atoms: C_9  and  O_10
REMARK    4  A    between atoms: O_10  and  C_11
REMARK    5  A    between atoms: C_15  and  C_16
REMARK    6  A    between atoms: N_18  and  C_19
REMARK    7  A    between atoms: C_19  and  C_20
REMARK                            x       y       z     vdW  Elec       q    Type
REMARK                         _______ _______ _______ _____ _____    ______ ____
ROOT
ATOM      1  C   UNL     1      36.877   1.462  14.497  0.00  0.00    +0.000 A 
ATOM      2  C   UNL     1      35.558   1.881  14.485  0.00  0.00    +0.000 A 
ATOM      3  C   UNL     1      35.256   3.086  15.083  0.00  0.00    +0.000 A 
ATOM      4  C   UNL     1      36.227   3.877  15.686  0.00  0.00    +0.000 A 
ATOM      5  C   UNL     1      37.548   3.450  15.695  0.00  0.00    +0.000 A 
ATOM      6  C   UNL     1      37.828   2.258  15.100  0.00  0.00    +0.000 A 
ENDROOT
BRANCH   5   7
ATOM      7  C   UNL     1      38.551   4.292  16.335  0.00  0.00    +0.000 C 
ATOM      8  O   UNL     1      39.474   4.772  15.631  0.00  0.00    +0.000 OA
ATOM      9  N   UNL     1      38.535   4.595  17.715  0.00  0.00    +0.000 NA
BRANCH   9  10
ATOM     10  C   UNL     1      39.533   5.424  18.321  0.00  0.00    +0.000 C 
BRANCH  10  11
ATOM     11  C   UNL     1      38.973   6.628  18.971  0.00  0.00    +0.000 A 
ATOM     12  C   UNL     1      39.525   7.106  20.160  0.00  0.00    +0.000 A 
ATOM     13  C   UNL     1      38.960   8.237  20.727  0.00  0.00    +0.000 A 
ATOM     14  C   UNL     1      37.890   8.908  20.181  0.00  0.00    +0.000 A 
ATOM     15  C   UNL     1      37.357   8.421  19.003  0.00  0.00    +0.000 A 
ATOM     16  C   UNL     1      37.903   7.306  18.432  0.00  0.00    +0.000 A 
ENDBRANCH  10  11
ENDBRANCH   9  10
ENDBRANCH   5   7
BRANCH   1  17
ATOM     17  O   UNL     1      37.235   0.243  13.902  0.00  0.00    +0.000 OA
BRANCH  17  18
ATOM     18  C   UNL     1      38.404  -0.405  14.353  0.00  0.00    +0.000 C 
BRANCH  18  19
ATOM     19  C   UNL     1      38.029  -1.309  15.463  0.00  0.00    +0.000 C 
ATOM     20  O   UNL     1      38.773  -1.418  16.460  0.00  0.00    +0.000 OA
BRANCH  19  26
ATOM     21  C   UNL     1      33.191  -4.421  15.278  0.00  0.00    +0.000 C 
ATOM     22  C   UNL     1      34.456  -3.623  15.311  0.00  0.00    +0.000 A 
ATOM     23  C   UNL     1      35.517  -3.912  14.477  0.00  0.00    +0.000 A 
ATOM     24  C   UNL     1      36.667  -3.141  14.548  0.00  0.00    +0.000 A 
ATOM     25  C   UNL     1      37.815  -3.452  13.647  0.00  0.00    +0.000 C 
ATOM     26  C   UNL     1      36.802  -2.085  15.425  0.00  0.00    +0.000 A 
ATOM     27  C   UNL     1      35.743  -1.786  16.267  0.00  0.00    +0.000 A 
ATOM     28  C   UNL     1      35.845  -0.656  17.230  0.00  0.00    +0.000 C 
ATOM     29  C   UNL     1      34.596  -2.568  16.184  0.00  0.00    +0.000 A 
ENDBRANCH  19  26
ENDBRANCH  18  19
ENDBRANCH  17  18
ENDBRANCH   1  17
TORSDOF 7
ENDMDL
MODEL 2
REMARK VINA RESULT:      -8.0      1.915      3.190
REMARK  Name = 
REMARK  7 active torsions:
REMARK  status: ('A' for Active; 'I' for Inactive)
REMARK    1  A    between atoms: C_6  and  C_7
REMARK    2  A    between atoms: C_7  and  C_9
REMARK    3  A    between atoms: C_9  and  O_10
REMARK    4  A    between atoms: O_10  and  C_11
REMARK    5  A    between atoms: C_15  and  C_16
REMARK    6  A    between atoms: N_18  and  C_19
REMARK    7  A    between atoms: C_19  and  C_20
REMARK                            x       y       z     vdW  Elec       q    Type
REMARK                         _______ _______ _______ _____ _____    ______ ____
ROOT
ATOM      1  C   UNL     1      36.743  -1.022  17.474  0.00  0.00    +0.000 A 
ATOM      2  C   UNL     1      35.440  -1.468  17.601  0.00  0.00    +0.000 A 
ATOM      3  C   UNL     1      34.422  -0.593  17.285  0.00  0.00    +0.000 A 
ATOM      4  C   UNL     1      34.669   0.703  16.850  0.00  0.00    +0.000 A 
ATOM      5  C   UNL     1      35.980   1.145  16.725  0.00  0.00    +0.000 A 
ATOM      6  C   UNL     1      36.971   0.268  17.040  0.00  0.00    +0.000 A 
ENDROOT
BRANCH   5   7
ATOM      7  C   UNL     1      36.218   2.508  16.269  0.00  0.00    +0.000 C 
ATOM      8  O   UNL     1      35.274   3.137  15.729  0.00  0.00    +0.000 OA
ATOM      9  N   UNL     1      37.465   3.159  16.407  0.00  0.00    +0.000 NA
BRANCH   9  10
ATOM     10  C   UNL     1      37.674   4.500  15.950  0.00  0.00    +0.000 C 
BRANCH  10  11
ATOM     11  C   UNL     1      38.242   5.387  16.988  0.00  0.00    +0.000 A 
ATOM     12  C   UNL     1      38.155   6.772  16.854  0.00  0.00    +0.000 A 
ATOM     13  C   UNL     1      38.706   7.555  17.856  0.00  0.00    +0.000 A 
ATOM     14  C   UNL     1      39.332   7.040  18.968  0.00  0.00    +0.000 A 
ATOM     15  C   UNL     1      39.408   5.665  19.083  0.00  0.00    +0.000 A 
ATOM     16  C   UNL     1      38.870   4.879  18.104  0.00  0.00    +0.000 A 
ENDBRANCH  10  11
ENDBRANCH   9  10
ENDBRANCH   5   7
BRANCH   1  17
ATOM     17  O   UNL     1      37.814  -1.874  17.784  0.00  0.00    +0.000 OA
BRANCH  17  18
ATOM     18  C   UNL     1      38.923  -1.900  16.912  0.00  0.00    +0.000 C 
BRANCH  18  19
ATOM     19  C   UNL     1      38.905  -3.188  16.183  0.00  0.00    +0.000 C 
ATOM     20  O   UNL     1      39.978  -3.752  15.883  0.00  0.00    +0.000 OA
BRANCH  19  26
ATOM     21  C   UNL     1      33.960  -5.742  14.717  0.00  0.00    +0.000 C 
ATOM     22  C   UNL     1      35.249  -5.092  15.112  0.00  0.00    +0.000 A 
ATOM     23  C   UNL     1      35.994  -5.550  16.179  0.00  0.00    +0.000 A 
ATOM     24  C   UNL     1      37.180  -4.911  16.505  0.00  0.00    +0.000 A 
ATOM     25  C   UNL     1      37.987  -5.405  17.658  0.00  0.00    +0.000 C 
ATOM     26  C   UNL     1      37.656  -3.824  15.802  0.00  0.00    +0.000 A 
ATOM     27  C   UNL     1      36.916  -3.355  14.728  0.00  0.00    +0.000 A 
ATOM     28  C   UNL     1      37.392  -2.185  13.942  0.00  0.00    +0.000 C 
ATOM     29  C   UNL     1      35.729  -4.007  14.415  0.00  0.00    +0.000 A 
ENDBRANCH  19  26
ENDBRANCH  18  19
ENDBRANCH  17  18
ENDBRANCH   1  17
TORSDOF 7
ENDMDL
MODEL 3
REMARK VINA RESULT:      -8.0      2.677      8.589
REMARK  Name = 
REMARK  7 active torsions:
REMARK  status: ('A' for Active; 'I' for Inactive)
REMARK    1  A    between atoms: C_6  and  C_7
REMARK    2  A    between atoms: C_7  and  C_9
REMARK    3  A    between atoms: C_9  and  O_10
REMARK    4  A    between atoms: O_10  and  C_11
REMARK    5  A    between atoms: C_15  and  C_16
REMARK    6  A    between atoms: N_18  and  C_19
REMARK    7  A    between atoms: C_19  and  C_20
REMARK                            x       y       z     vdW  Elec       q    Type
REMARK                         _______ _______ _______ _____ _____    ______ ____
ROOT
ATOM      1  C   UNL     1      37.063   3.340  14.705  0.00  0.00    +0.000 A 
ATOM      2  C   UNL     1      35.947   4.077  14.351  0.00  0.00    +0.000 A 
ATOM      3  C   UNL     1      34.737   3.731  14.913  0.00  0.00    +0.000 A 
ATOM      4  C   UNL     1      34.613   2.678  15.812  0.00  0.00    +0.000 A 
ATOM      5  C   UNL     1      35.736   1.943  16.164  0.00  0.00    +0.000 A 
ATOM      6  C   UNL     1      36.923   2.299  15.599  0.00  0.00    +0.000 A 
ENDROOT
BRANCH   5   7
ATOM      7  C   UNL     1      35.585   0.842  17.106  0.00  0.00    +0.000 C 
ATOM      8  O   UNL     1      34.480   0.247  17.166  0.00  0.00    +0.000 OA
ATOM      9  N   UNL     1      36.626   0.407  17.957  0.00  0.00    +0.000 NA
BRANCH   9  10
ATOM     10  C   UNL     1      36.452  -0.677  18.875  0.00  0.00    +0.000 C 
BRANCH  10  11
ATOM     11  C   UNL     1      37.091  -1.932  18.423  0.00  0.00    +0.000 A 
ATOM     12  C   UNL     1      36.620  -2.592  17.288  0.00  0.00    +0.000 A 
ATOM     13  C   UNL     1      37.256  -3.763  16.910  0.00  0.00    +0.000 A 
ATOM     14  C   UNL     1      38.320  -4.306  17.593  0.00  0.00    +0.000 A 
ATOM     15  C   UNL     1      38.772  -3.638  18.715  0.00  0.00    +0.000 A 
ATOM     16  C   UNL     1      38.156  -2.482  19.100  0.00  0.00    +0.000 A 
ENDBRANCH  10  11
ENDBRANCH   9  10
ENDBRANCH   5   7
BRANCH   1  17
ATOM     17  O   UNL     1      38.318   3.653  14.160  0.00  0.00    +0.000 OA
BRANCH  17  18
ATOM     18  C   UNL     1      39.405   3.830  15.041  0.00  0.00    +0.000 C 
BRANCH  18  19
ATOM     19  C   UNL     1      39.404   5.238  15.496  0.00  0.00    +0.000 C 
ATOM     20  O   UNL     1      38.854   6.119  14.802  0.00  0.00    +0.000 OA
BRANCH  19  26
ATOM     21  C   UNL     1      41.936   6.820  20.416  0.00  0.00    +0.000 C 
ATOM     22  C   UNL     1      41.294   6.414  19.127  0.00  0.00    +0.000 A 
ATOM     23  C   UNL     1      41.913   6.624  17.912  0.00  0.00    +0.000 A 
ATOM     24  C   UNL     1      41.274   6.230  16.746  0.00  0.00    +0.000 A 
ATOM     25  C   UNL     1      41.942   6.455  15.432  0.00  0.00    +0.000 C 
ATOM     26  C   UNL     1      40.032   5.631  16.745  0.00  0.00    +0.000 A 
ATOM     27  C   UNL     1      39.401   5.415  17.960  0.00  0.00    +0.000 A 
ATOM     28  C   UNL     1      38.060   4.772  18.005  0.00  0.00    +0.000 C 
ATOM     29  C   UNL     1      40.054   5.816  19.120  0.00  0.00    +0.000 A 
ENDBRANCH  19  26
ENDBRANCH  18  19
ENDBRANCH  17  18
ENDBRANCH   1  17
TORSDOF 7
ENDMDL
MODEL 4
REMARK VINA RESULT:      -8.0      1.536      2.668
REMARK  Name = 
REMARK  7 active torsions:
REMARK  status: ('A' for Active; 'I' for Inactive)
REMARK    1  A    between atoms: C_6  and  C_7
REMARK    2  A    between atoms: C_7  and  C_9
REMARK    3  A    between atoms: C_9  and  O_10
REMARK    4  A    between atoms: O_10  and  C_11
REMARK    5  A    between atoms: C_15  and  C_16
REMARK    6  A    between atoms: N_18  and  C_19
REMARK    7  A    between atoms: C_19  and  C_20
REMARK                            x       y       z     vdW  Elec       q    Type
REMARK                         _______ _______ _______ _____ _____    ______ ____
ROOT
ATOM      1  C   UNL     1      36.898   0.697  14.951  0.00  0.00    +0.000 A 
ATOM      2  C   UNL     1      35.607   1.128  15.200  0.00  0.00    +0.000 A 
ATOM      3  C   UNL     1      35.411   2.467  15.466  0.00  0.00    +0.000 A 
ATOM      4  C   UNL     1      36.460   3.378  15.490  0.00  0.00    +0.000 A 
ATOM      5  C   UNL     1      37.753   2.939  15.239  0.00  0.00    +0.000 A 
ATOM      6  C   UNL     1      37.928   1.615  14.978  0.00  0.00    +0.000 A 
ENDROOT
BRANCH   5   7
ATOM      7  C   UNL     1      38.839   3.909  15.271  0.00  0.00    +0.000 C 
ATOM      8  O   UNL     1      39.764   3.806  14.427  0.00  0.00    +0.000 OA
ATOM      9  N   UNL     1      38.902   4.965  16.209  0.00  0.00    +0.000 NA
BRANCH   9  10
ATOM     10  C   UNL     1      39.982   5.905  16.220  0.00  0.00    +0.000 C 
BRANCH  10  11
ATOM     11  C   UNL     1      40.516   6.162  17.575  0.00  0.00    +0.000 A 
ATOM     12  C   UNL     1      39.663   6.164  18.679  0.00  0.00    +0.000 A 
ATOM     13  C   UNL     1      40.217   6.412  19.924  0.00  0.00    +0.000 A 
ATOM     14  C   UNL     1      41.556   6.656  20.127  0.00  0.00    +0.000 A 
ATOM     15  C   UNL     1      42.385   6.649  19.022  0.00  0.00    +0.000 A 
ATOM     16  C   UNL     1      41.855   6.406  17.787  0.00  0.00    +0.000 A 
ENDBRANCH  10  11
ENDBRANCH   9  10
ENDBRANCH   5   7
BRANCH   1  17
ATOM     17  O   UNL     1      37.150  -0.655  14.675  0.00  0.00    +0.000 OA
BRANCH  17  18
ATOM     18  C   UNL     1      38.131  -1.323  15.437  0.00  0.00    +0.000 C 
BRANCH  18  19
ATOM     19  C   UNL     1      37.463  -2.393  16.210  0.00  0.00    +0.000 C 
ATOM     20  O   UNL     1      38.116  -3.385  16.599  0.00  0.00    +0.000 OA
BRANCH  19  26
ATOM     21  C   UNL     1      31.872  -2.074  17.537  0.00  0.00    +0.000 C 
ATOM     22  C   UNL     1      33.330  -2.146  17.208  0.00  0.00    +0.000 A 
ATOM     23  C   UNL     1      34.273  -1.457  17.942  0.00  0.00    +0.000 A 
ATOM     24  C   UNL     1      35.611  -1.556  17.595  0.00  0.00    +0.000 A 
ATOM     25  C   UNL     1      36.632  -0.812  18.388  0.00  0.00    +0.000 C 
ATOM     26  C   UNL     1      36.049  -2.323  16.535  0.00  0.00    +0.000 A 
ATOM     27  C   UNL     1      35.111  -3.019  15.791  0.00  0.00    +0.000 A 
ATOM     28  C   UNL     1      35.539  -3.858  14.638  0.00  0.00    +0.000 C 
ATOM     29  C   UNL     1      33.773  -2.909  16.151  0.00  0.00    +0.000 A 
ENDBRANCH  19  26
ENDBRANCH  18  19
ENDBRANCH  17  18
ENDBRANCH   1  17
TORSDOF 7
ENDMDL
MODEL 5
REMARK VINA RESULT:      -7.9     24.515     27.898
REMARK  Name = 
REMARK  7 active torsions:
REMARK  status: ('A' for Active; 'I' for Inactive)
REMARK    1  A    between atoms: C_6  and  C_7
REMARK    2  A    between atoms: C_7  and  C_9
REMARK    3  A    between atoms: C_9  and  O_10
REMARK    4  A    between atoms: O_10  and  C_11
REMARK    5  A    between atoms: C_15  and  C_16
REMARK    6  A    between atoms: N_18  and  C_19
REMARK    7  A    between atoms: C_19  and  C_20
REMARK                            x       y       z     vdW  Elec       q    Type
REMARK                         _______ _______ _______ _____ _____    ______ ____
ROOT
ATOM      1  C   UNL     1      26.240  15.271  37.598  0.00  0.00    +0.000 A 
ATOM      2  C   UNL     1      24.986  15.854  37.564  0.00  0.00    +0.000 A 
ATOM      3  C   UNL     1      24.131  15.614  38.619  0.00  0.00    +0.000 A 
ATOM      4  C   UNL     1      24.493  14.814  39.696  0.00  0.00    +0.000 A 
ATOM      5  C   UNL     1      25.753  14.232  39.724  0.00  0.00    +0.000 A 
ATOM      6  C   UNL     1      26.584  14.480  38.675  0.00  0.00    +0.000 A 
ENDROOT
BRANCH   5   7
ATOM      7  C   UNL     1      26.112  13.395  40.861  0.00  0.00    +0.000 C 
ATOM      8  O   UNL     1      26.360  13.947  41.962  0.00  0.00    +0.000 OA
ATOM      9  N   UNL     1      26.195  11.986  40.785  0.00  0.00    +0.000 NA
BRANCH   9  10
ATOM     10  C   UNL     1      26.551  11.185  41.917  0.00  0.00    +0.000 C 
BRANCH  10  11
ATOM     11  C   UNL     1      27.702  10.293  41.659  0.00  0.00    +0.000 A 
ATOM     12  C   UNL     1      27.885   9.142  42.426  0.00  0.00    +0.000 A 
ATOM     13  C   UNL     1      28.981   8.343  42.142  0.00  0.00    +0.000 A 
ATOM     14  C   UNL     1      29.893   8.626  41.151  0.00  0.00    +0.000 A 
ATOM     15  C   UNL     1      29.695   9.770  40.402  0.00  0.00    +0.000 A 
ATOM     16  C   UNL     1      28.619  10.568  40.670  0.00  0.00    +0.000 A 
ENDBRANCH  10  11
ENDBRANCH   9  10
ENDBRANCH   5   7
BRANCH   1  17
ATOM     17  O   UNL     1      27.147  15.486  36.548  0.00  0.00    +0.000 OA
BRANCH  17  18
ATOM     18  C   UNL     1      26.900  14.856  35.311  0.00  0.00    +0.000 C 
BRANCH  18  19
ATOM     19  C   UNL     1      27.188  15.829  34.234  0.00  0.00    +0.000 C 
ATOM     20  O   UNL     1      28.339  15.909  33.754  0.00  0.00    +0.000 OA
BRANCH  19  26
ATOM     21  C   UNL     1      23.123  19.352  32.187  0.00  0.00    +0.000 C 
ATOM     22  C   UNL     1      24.187  18.451  32.731  0.00  0.00    +0.000 A 
ATOM     23  C   UNL     1      25.134  18.905  33.625  0.00  0.00    +0.000 A 
ATOM     24  C   UNL     1      26.099  18.029  34.097  0.00  0.00    +0.000 A 
ATOM     25  C   UNL     1      27.124  18.519  35.064  0.00  0.00    +0.000 C 
ATOM     26  C   UNL     1      26.156  16.707  33.711  0.00  0.00    +0.000 A 
ATOM     27  C   UNL     1      25.209  16.239  32.814  0.00  0.00    +0.000 A 
ATOM     28  C   UNL     1      25.234  14.819  32.369  0.00  0.00    +0.000 C 
ATOM     29  C   UNL     1      24.249  17.130  32.348  0.00  0.00    +0.000 A 
ENDBRANCH  19  26
ENDBRANCH  18  19
ENDBRANCH  17  18
ENDBRANCH   1  17
TORSDOF 7
ENDMDL
MODEL 6
REMARK VINA RESULT:      -7.9      2.039      3.987
REMARK  Name = 
REMARK  7 active torsions:
REMARK  status: ('A' for Active; 'I' for Inactive)
REMARK    1  A    between atoms: C_6  and  C_7
REMARK    2  A    between atoms: C_7  and  C_9
REMARK    3  A    between atoms: C_9  and  O_10
REMARK    4  A    between atoms: O_10  and  C_11
REMARK    5  A    between atoms: C_15  and  C_16
REMARK    6  A    between atoms: N_18  and  C_19
REMARK    7  A    between atoms: C_19  and  C_20
REMARK                            x       y       z     vdW  Elec       q    Type
REMARK                         _______ _______ _______ _____ _____    ______ ____
ROOT
ATOM      1  C   UNL     1      36.487   0.132  16.114  0.00  0.00    +0.000 A 
ATOM      2  C   UNL     1      35.177   0.412  16.461  0.00  0.00    +0.000 A 
ATOM      3  C   UNL     1      34.808   1.735  16.582  0.00  0.00    +0.000 A 
ATOM      4  C   UNL     1      35.703   2.775  16.368  0.00  0.00    +0.000 A 
ATOM      5  C   UNL     1      37.016   2.488  16.021  0.00  0.00    +0.000 A 
ATOM      6  C   UNL     1      37.363   1.176  15.905  0.00  0.00    +0.000 A 
ENDROOT
BRANCH   5   7
ATOM      7  C   UNL     1      37.941   3.592  15.803  0.00  0.00    +0.000 C 
ATOM      8  O   UNL     1      38.882   3.439  14.984  0.00  0.00    +0.000 OA
ATOM      9  N   UNL     1      37.830   4.833  16.471  0.00  0.00    +0.000 NA
BRANCH   9  10
ATOM     10  C   UNL     1      38.752   5.903  16.240  0.00  0.00    +0.000 C 
BRANCH  10  11
ATOM     11  C   UNL     1      39.713   6.092  17.348  0.00  0.00    +0.000 A 
ATOM     12  C   UNL     1      41.066   6.297  17.079  0.00  0.00    +0.000 A 
ATOM     13  C   UNL     1      41.922   6.467  18.155  0.00  0.00    +0.000 A 
ATOM     14  C   UNL     1      41.509   6.443  19.467  0.00  0.00    +0.000 A 
ATOM     15  C   UNL     1      40.164   6.239  19.715  0.00  0.00    +0.000 A 
ATOM     16  C   UNL     1      39.308   6.070  18.664  0.00  0.00    +0.000 A 
ENDBRANCH  10  11
ENDBRANCH   9  10
ENDBRANCH   5   7
BRANCH   1  17
ATOM     17  O   UNL     1      36.912  -1.199  15.978  0.00  0.00    +0.000 OA
BRANCH  17  18
ATOM     18  C   UNL     1      36.401  -1.958  14.905  0.00  0.00    +0.000 C 
BRANCH  18  19
ATOM     19  C   UNL     1      37.546  -2.503  14.142  0.00  0.00    +0.000 C 
ATOM     20  O   UNL     1      37.438  -3.596  13.547  0.00  0.00    +0.000 OA
BRANCH  19  26
ATOM     21  C   UNL     1      42.531   0.352  13.792  0.00  0.00    +0.000 C 
ATOM     22  C   UNL     1      41.228  -0.380  13.868  0.00  0.00    +0.000 A 
ATOM     23  C   UNL     1      40.164  -0.050  13.054  0.00  0.00    +0.000 A 
ATOM     24  C   UNL     1      38.977  -0.758  13.165  0.00  0.00    +0.000 A 
ATOM     25  C   UNL     1      37.825  -0.403  12.287  0.00  0.00    +0.000 C 
ATOM     26  C   UNL     1      38.810  -1.792  14.063  0.00  0.00    +0.000 A 
ATOM     27  C   UNL     1      39.872  -2.132  14.885  0.00  0.00    +0.000 A 
ATOM     28  C   UNL     1      39.736  -3.240  15.868  0.00  0.00    +0.000 C 
ATOM     29  C   UNL     1      41.055  -1.412  14.761  0.00  0.00    +0.000 A 
ENDBRANCH  19  26
ENDBRANCH  18  19
ENDBRANCH  17  18
ENDBRANCH   1  17
TORSDOF 7
ENDMDL
MODEL 7
REMARK VINA RESULT:      -7.9      1.781      2.892
REMARK  Name = 
REMARK  7 active torsions:
REMARK  status: ('A' for Active; 'I' for Inactive)
REMARK    1  A    between atoms: C_6  and  C_7
REMARK    2  A    between atoms: C_7  and  C_9
REMARK    3  A    between atoms: C_9  and  O_10
REMARK    4  A    between atoms: O_10  and  C_11
REMARK    5  A    between atoms: C_15  and  C_16
REMARK    6  A    between atoms: N_18  and  C_19
REMARK    7  A    between atoms: C_19  and  C_20
REMARK                            x       y       z     vdW  Elec       q    Type
REMARK                         _______ _______ _______ _____ _____    ______ ____
ROOT
ATOM      1  C   UNL     1      36.986   2.729  14.457  0.00  0.00    +0.000 A 
ATOM      2  C   UNL     1      36.834   3.747  13.532  0.00  0.00    +0.000 A 
ATOM      3  C   UNL     1      37.153   5.030  13.923  0.00  0.00    +0.000 A 
ATOM      4  C   UNL     1      37.616   5.321  15.200  0.00  0.00    +0.000 A 
ATOM      5  C   UNL     1      37.766   4.295  16.124  0.00  0.00    +0.000 A 
ATOM      6  C   UNL     1      37.447   3.034  15.721  0.00  0.00    +0.000 A 
ENDROOT
BRANCH   5   7
ATOM      7  C   UNL     1      38.250   4.620  17.458  0.00  0.00    +0.000 C 
ATOM      8  O   UNL     1      38.200   3.737  18.350  0.00  0.00    +0.000 OA
ATOM      9  N   UNL     1      38.776   5.887  17.800  0.00  0.00    +0.000 NA
BRANCH   9  10
ATOM     10  C   UNL     1      39.244   6.183  19.120  0.00  0.00    +0.000 C 
BRANCH  10  11
ATOM     11  C   UNL     1      40.711   6.361  19.192  0.00  0.00    +0.000 A 
ATOM     12  C   UNL     1      41.456   6.530  18.026  0.00  0.00    +0.000 A 
ATOM     13  C   UNL     1      42.827   6.692  18.151  0.00  0.00    +0.000 A 
ATOM     14  C   UNL     1      43.485   6.692  19.359  0.00  0.00    +0.000 A 
ATOM     15  C   UNL     1      42.730   6.522  20.504  0.00  0.00    +0.000 A 
ATOM     16  C   UNL     1      41.377   6.362  20.396  0.00  0.00    +0.000 A 
ENDBRANCH  10  11
ENDBRANCH   9  10
ENDBRANCH   5   7
BRANCH   1  17
ATOM     17  O   UNL     1      36.674   1.406  14.108  0.00  0.00    +0.000 OA
BRANCH  17  18
ATOM     18  C   UNL     1      37.736   0.516  13.843  0.00  0.00    +0.000 C 
BRANCH  18  19
ATOM     19  C   UNL     1      37.804  -0.462  14.951  0.00  0.00    +0.000 C 
ATOM     20  O   UNL     1      38.638  -0.310  15.869  0.00  0.00    +0.000 OA
BRANCH  19  26
ATOM     21  C   UNL     1      34.247  -4.980  15.192  0.00  0.00    +0.000 C 
ATOM     22  C   UNL     1      35.160  -3.796  15.143  0.00  0.00    +0.000 A 
ATOM     23  C   UNL     1      34.904  -2.652  15.871  0.00  0.00    +0.000 A 
ATOM     24  C   UNL     1      35.782  -1.583  15.789  0.00  0.00    +0.000 A 
ATOM     25  C   UNL     1      35.506  -0.345  16.575  0.00  0.00    +0.000 C 
ATOM     26  C   UNL     1      36.916  -1.610  15.004  0.00  0.00    +0.000 A 
ATOM     27  C   UNL     1      37.184  -2.753  14.269  0.00  0.00    +0.000 A 
ATOM     28  C   UNL     1      38.395  -2.826  13.409  0.00  0.00    +0.000 C 
ATOM     29  C   UNL     1      36.293  -3.817  14.362  0.00  0.00    +0.000 A 
ENDBRANCH  19  26
ENDBRANCH  18  19
ENDBRANCH  17  18
ENDBRANCH   1  17
TORSDOF 7
ENDMDL
MODEL 8
REMARK VINA RESULT:      -7.8      2.643      9.315
REMARK  Name = 
REMARK  7 active torsions:
REMARK  status: ('A' for Active; 'I' for Inactive)
REMARK    1  A    between atoms: C_6  and  C_7
REMARK    2  A    between atoms: C_7  and  C_9
REMARK    3  A    between atoms: C_9  and  O_10
REMARK    4  A    between atoms: O_10  and  C_11
REMARK    5  A    between atoms: C_15  and  C_16
REMARK    6  A    between atoms: N_18  and  C_19
REMARK    7  A    between atoms: C_19  and  C_20
REMARK                            x       y       z     vdW  Elec       q    Type
REMARK                         _______ _______ _______ _____ _____    ______ ____
ROOT
ATOM      1  C   UNL     1      37.201   4.299  15.814  0.00  0.00    +0.000 A 
ATOM      2  C   UNL     1      36.415   4.577  14.710  0.00  0.00    +0.000 A 
ATOM      3  C   UNL     1      35.357   3.736  14.440  0.00  0.00    +0.000 A 
ATOM      4  C   UNL     1      35.065   2.634  15.236  0.00  0.00    +0.000 A 
ATOM      5  C   UNL     1      35.858   2.360  16.342  0.00  0.00    +0.000 A 
ATOM      6  C   UNL     1      36.898   3.202  16.594  0.00  0.00    +0.000 A 
ENDROOT
BRANCH   5   7
ATOM      7  C   UNL     1      35.538   1.200  17.162  0.00  0.00    +0.000 C 
ATOM      8  O   UNL     1      34.430   0.630  16.995  0.00  0.00    +0.000 OA
ATOM      9  N   UNL     1      36.416   0.681  18.140  0.00  0.00    +0.000 NA
BRANCH   9  10
ATOM     10  C   UNL     1      36.078  -0.461  18.934  0.00  0.00    +0.000 C 
BRANCH  10  11
ATOM     11  C   UNL     1      36.901  -1.650  18.625  0.00  0.00    +0.000 A 
ATOM     12  C   UNL     1      37.891  -2.070  19.514  0.00  0.00    +0.000 A 
ATOM     13  C   UNL     1      38.633  -3.189  19.174  0.00  0.00    +0.000 A 
ATOM     14  C   UNL     1      38.446  -3.902  18.012  0.00  0.00    +0.000 A 
ATOM     15  C   UNL     1      37.461  -3.470  17.143  0.00  0.00    +0.000 A 
ATOM     16  C   UNL     1      36.721  -2.368  17.465  0.00  0.00    +0.000 A 
ENDBRANCH  10  11
ENDBRANCH   9  10
ENDBRANCH   5   7
BRANCH   1  17
ATOM     17  O   UNL     1      38.289   5.125  16.132  0.00  0.00    +0.000 OA
BRANCH  17  18
ATOM     18  C   UNL     1      38.476   5.499  17.479  0.00  0.00    +0.000 C 
BRANCH  18  19
ATOM     19  C   UNL     1      39.295   6.731  17.505  0.00  0.00    +0.000 C 
ATOM     20  O   UNL     1      38.867   7.779  16.978  0.00  0.00    +0.000 OA
BRANCH  19  26
ATOM     21  C   UNL     1      44.455   6.836  20.054  0.00  0.00    +0.000 C 
ATOM     22  C   UNL     1      43.105   6.813  19.409  0.00  0.00    +0.000 A 
ATOM     23  C   UNL     1      41.950   7.012  20.137  0.00  0.00    +0.000 A 
ATOM     24  C   UNL     1      40.724   6.980  19.491  0.00  0.00    +0.000 A 
ATOM     25  C   UNL     1      39.475   7.196  20.277  0.00  0.00    +0.000 C 
ATOM     26  C   UNL     1      40.604   6.757  18.136  0.00  0.00    +0.000 A 
ATOM     27  C   UNL     1      41.757   6.555  17.394  0.00  0.00    +0.000 A 
ATOM     28  C   UNL     1      41.674   6.309  15.929  0.00  0.00    +0.000 C 
ATOM     29  C   UNL     1      42.979   6.590  18.057  0.00  0.00    +0.000 A 
ENDBRANCH  19  26
ENDBRANCH  18  19
ENDBRANCH  17  18
ENDBRANCH   1  17
TORSDOF 7
ENDMDL
MODEL 9
REMARK VINA RESULT:      -7.8      3.647      8.110
REMARK  Name = 
REMARK  7 active torsions:
REMARK  status: ('A' for Active; 'I' for Inactive)
REMARK    1  A    between atoms: C_6  and  C_7
REMARK    2  A    between atoms: C_7  and  C_9
REMARK    3  A    between atoms: C_9  and  O_10
REMARK    4  A    between atoms: O_10  and  C_11
REMARK    5  A    between atoms: C_15  and  C_16
REMARK    6  A    between atoms: N_18  and  C_19
REMARK    7  A    between atoms: C_19  and  C_20
REMARK                            x       y       z     vdW  Elec       q    Type
REMARK                         _______ _______ _______ _____ _____    ______ ____
ROOT
ATOM      1  C   UNL     1      36.107  -0.299  17.585  0.00  0.00    +0.000 A 
ATOM      2  C   UNL     1      35.945  -0.441  18.952  0.00  0.00    +0.000 A 
ATOM      3  C   UNL     1      36.787  -1.307  19.617  0.00  0.00    +0.000 A 
ATOM      4  C   UNL     1      37.778  -2.027  18.959  0.00  0.00    +0.000 A 
ATOM      5  C   UNL     1      37.935  -1.879  17.588  0.00  0.00    +0.000 A 
ATOM      6  C   UNL     1      37.095  -1.020  16.948  0.00  0.00    +0.000 A 
ENDROOT
BRANCH   5   7
ATOM      7  C   UNL     1      38.977  -2.644  16.916  0.00  0.00    +0.000 C 
ATOM      8  O   UNL     1      39.275  -3.779  17.365  0.00  0.00    +0.000 OA
ATOM      9  N   UNL     1      39.670  -2.170  15.780  0.00  0.00    +0.000 NA
BRANCH   9  10
ATOM     10  C   UNL     1      40.691  -2.941  15.139  0.00  0.00    +0.000 C 
BRANCH  10  11
ATOM     11  C   UNL     1      40.819  -2.652  13.694  0.00  0.00    +0.000 A 
ATOM     12  C   UNL     1      42.062  -2.334  13.147  0.00  0.00    +0.000 A 
ATOM     13  C   UNL     1      42.123  -2.071  11.788  0.00  0.00    +0.000 A 
ATOM     14  C   UNL     1      41.028  -2.106  10.956  0.00  0.00    +0.000 A 
ATOM     15  C   UNL     1      39.805  -2.423  11.516  0.00  0.00    +0.000 A 
ATOM     16  C   UNL     1      39.728  -2.685  12.854  0.00  0.00    +0.000 A 
ENDBRANCH  10  11
ENDBRANCH   9  10
ENDBRANCH   5   7
BRANCH   1  17
ATOM     17  O   UNL     1      35.274   0.570  16.863  0.00  0.00    +0.000 OA
BRANCH  17  18
ATOM     18  C   UNL     1      35.657   1.923  16.749  0.00  0.00    +0.000 C 
BRANCH  18  19
ATOM     19  C   UNL     1      35.972   2.193  15.329  0.00  0.00    +0.000 C 
ATOM     20  O   UNL     1      35.084   2.622  14.561  0.00  0.00    +0.000 OA
BRANCH  19  26
ATOM     21  C   UNL     1      41.268   1.359  13.236  0.00  0.00    +0.000 C 
ATOM     22  C   UNL     1      39.897   1.593  13.788  0.00  0.00    +0.000 A 
ATOM     23  C   UNL     1      39.603   2.705  14.550  0.00  0.00    +0.000 A 
ATOM     24  C   UNL     1      38.317   2.875  15.038  0.00  0.00    +0.000 A 
ATOM     25  C   UNL     1      37.997   4.076  15.862  0.00  0.00    +0.000 C 
ATOM     26  C   UNL     1      37.304   1.972  14.793  0.00  0.00    +0.000 A 
ATOM     27  C   UNL     1      37.588   0.851  14.029  0.00  0.00    +0.000 A 
ATOM     28  C   UNL     1      36.525  -0.150  13.740  0.00  0.00    +0.000 C 
ATOM     29  C   UNL     1      38.882   0.695  13.547  0.00  0.00    +0.000 A 
ENDBRANCH  19  26
ENDBRANCH  18  19
ENDBRANCH  17  18
ENDBRANCH   1  17
TORSDOF 7
ENDMDL
MODEL 10
REMARK VINA RESULT:      -7.7     24.599     28.355
REMARK  Name = 
REMARK  7 active torsions:
REMARK  status: ('A' for Active; 'I' for Inactive)
REMARK    1  A    between atoms: C_6  and  C_7
REMARK    2  A    between atoms: C_7  and  C_9
REMARK    3  A    between atoms: C_9  and  O_10
REMARK    4  A    between atoms: O_10  and  C_11
REMARK    5  A    between atoms: C_15  and  C_16
REMARK    6  A    between atoms: N_18  and  C_19
REMARK    7  A    between atoms: C_19  and  C_20
REMARK                            x       y       z     vdW  Elec       q    Type
REMARK                         _______ _______ _______ _____ _____    ______ ____
ROOT
ATOM      1  C   UNL     1      25.304  15.644  37.272  0.00  0.00    +0.000 A 
ATOM      2  C   UNL     1      24.600  16.821  37.455  0.00  0.00    +0.000 A 
ATOM      3  C   UNL     1      24.356  17.235  38.747  0.00  0.00    +0.000 A 
ATOM      4  C   UNL     1      24.793  16.513  39.851  0.00  0.00    +0.000 A 
ATOM      5  C   UNL     1      25.500  15.333  39.661  0.00  0.00    +0.000 A 
ATOM      6  C   UNL     1      25.731  14.939  38.378  0.00  0.00    +0.000 A 
ENDROOT
BRANCH   5   7
ATOM      7  C   UNL     1      25.947  14.589  40.830  0.00  0.00    +0.000 C 
ATOM      8  O   UNL     1      27.057  14.880  41.342  0.00  0.00    +0.000 OA
ATOM      9  N   UNL     1      25.190  13.551  41.419  0.00  0.00    +0.000 NA
BRANCH   9  10
ATOM     10  C   UNL     1      25.653  12.833  42.568  0.00  0.00    +0.000 C 
BRANCH  10  11
ATOM     11  C   UNL     1      26.060  11.445  42.262  0.00  0.00    +0.000 A 
ATOM     12  C   UNL     1      25.632  10.392  43.070  0.00  0.00    +0.000 A 
ATOM     13  C   UNL     1      26.044   9.111  42.738  0.00  0.00    +0.000 A 
ATOM     14  C   UNL     1      26.850   8.828  41.660  0.00  0.00    +0.000 A 
ATOM     15  C   UNL     1      27.265   9.884  40.871  0.00  0.00    +0.000 A 
ATOM     16  C   UNL     1      26.867  11.152  41.185  0.00  0.00    +0.000 A 
ENDBRANCH  10  11
ENDBRANCH   9  10
ENDBRANCH   5   7
BRANCH   1  17
ATOM     17  O   UNL     1      25.578  15.180  35.976  0.00  0.00    +0.000 OA
BRANCH  17  18
ATOM     18  C   UNL     1      26.925  14.987  35.605  0.00  0.00    +0.000 C 
BRANCH  18  19
ATOM     19  C   UNL     1      27.156  15.699  34.328  0.00  0.00    +0.000 C 
ATOM     20  O   UNL     1      28.205  15.498  33.681  0.00  0.00    +0.000 OA
BRANCH  19  26
ATOM     21  C   UNL     1      23.272  19.376  32.202  0.00  0.00    +0.000 C 
ATOM     22  C   UNL     1      24.274  18.406  32.743  0.00  0.00    +0.000 A 
ATOM     23  C   UNL     1      24.277  17.079  32.364  0.00  0.00    +0.000 A 
ATOM     24  C   UNL     1      25.227  16.221  32.895  0.00  0.00    +0.000 A 
ATOM     25  C   UNL     1      25.231  14.787  32.486  0.00  0.00    +0.000 C 
ATOM     26  C   UNL     1      26.182  16.637  33.798  0.00  0.00    +0.000 A 
ATOM     27  C   UNL     1      26.190  17.968  34.186  0.00  0.00    +0.000 A 
ATOM     28  C   UNL     1      27.203  18.460  35.159  0.00  0.00    +0.000 C 
ATOM     29  C   UNL     1      25.231  18.816  33.644  0.00  0.00    +0.000 A 
ENDBRANCH  19  26
ENDBRANCH  18  19
ENDBRANCH  17  18
ENDBRANCH   1  17
TORSDOF 7
ENDMDL
