MODEL 1
REMARK VINA RESULT:      -8.5      0.000      0.000
REMARK  Name = 
REMARK  6 active torsions:
REMARK  status: ('A' for Active; 'I' for Inactive)
REMARK    1  A    between atoms: C_2  and  C_4
REMARK    2  A    between atoms: C_4  and  C_5
REMARK    3  A    between atoms: C_8  and  C_9
REMARK    4  A    between atoms: C_11  and  C_12
REMARK    5  A    between atoms: N_14  and  C_15
REMARK    6  A    between atoms: C_15  and  C_17
REMARK                            x       y       z     vdW  Elec       q    Type
REMARK                         _______ _______ _______ _____ _____    ______ ____
ROOT
ATOM      1  C   UNL     1      39.178   5.002  16.684  0.00  0.00    +0.000 A 
ATOM      2  C   UNL     1      38.121   4.198  17.015  0.00  0.00    +0.000 A 
ATOM      3  C   UNL     1      37.351   3.534  16.086  0.00  0.00    +0.000 A 
ATOM      4  C   UNL     1      37.692   3.711  14.759  0.00  0.00    +0.000 A 
ATOM      5  C   UNL     1      36.924   3.049  13.827  0.00  0.00    +0.000 A 
ATOM      6  C   UNL     1      37.243   3.207  12.495  0.00  0.00    +0.000 A 
ATOM      7  C   UNL     1      38.288   4.000  12.124  0.00  0.00    +0.000 A 
ATOM      8  C   UNL     1      39.039   4.651  13.084  0.00  0.00    +0.000 A 
ATOM      9  C   UNL     1      38.759   4.523  14.434  0.00  0.00    +0.000 A 
ATOM     10  N   UNL     1      39.478   5.150  15.383  0.00  0.00    +0.000 NA
ENDROOT
BRANCH   1  14
ATOM     11  C   UNL     1      41.495   7.012  19.639  0.00  0.00    +0.000 A 
ATOM     12  C   UNL     1      40.259   6.499  19.939  0.00  0.00    +0.000 A 
ATOM     13  C   UNL     1      39.487   5.843  18.995  0.00  0.00    +0.000 A 
ATOM     14  C   UNL     1      39.968   5.697  17.715  0.00  0.00    +0.000 A 
ATOM     15  C   UNL     1      41.210   6.213  17.416  0.00  0.00    +0.000 A 
ATOM     16  C   UNL     1      41.987   6.874  18.368  0.00  0.00    +0.000 A 
BRANCH  11  17
ATOM     17  C   UNL     1      42.238   7.692  20.724  0.00  0.00    +0.000 C 
BRANCH  17  19
ATOM     18  C   UNL     1      44.603   8.037  21.469  0.00  0.00    +0.000 C 
ATOM     19  C   UNL     1      43.631   7.097  20.792  0.00  0.00    +0.000 C 
ATOM     20  C   UNL     1      43.534   5.817  21.562  0.00  0.00    +0.000 C 
ENDBRANCH  17  19
ENDBRANCH  11  17
ENDBRANCH   1  14
BRANCH   3  21
ATOM     21  C   UNL     1      36.222   2.685  16.488  0.00  0.00    +0.000 C 
ATOM     22  O   UNL     1      35.059   3.115  16.377  0.00  0.00    +0.000 OA
ATOM     23  N   UNL     1      36.403   1.382  17.004  0.00  0.00    +0.000 NA
BRANCH  23  24
ATOM     24  C   UNL     1      35.075   0.606  17.387  0.00  0.00    +0.000 C 
ATOM     25  C   UNL     1      35.760   0.014  18.804  0.00  0.00    +0.000 C 
BRANCH  24  26
ATOM     26  C   UNL     1      35.377  -0.681  16.526  0.00  0.00    +0.000 A 
ATOM     27  C   UNL     1      34.750  -1.811  16.899  0.00  0.00    +0.000 A 
ATOM     28  C   UNL     1      34.967  -3.007  16.188  0.00  0.00    +0.000 A 
ATOM     29  N   UNL     1      35.806  -2.964  15.151  0.00  0.00    +0.000 NA
ATOM     30  C   UNL     1      36.423  -1.836  14.789  0.00  0.00    +0.000 A 
ATOM     31  C   UNL     1      36.219  -0.656  15.479  0.00  0.00    +0.000 A 
ENDBRANCH  24  26
ENDBRANCH  23  24
ENDBRANCH   3  21
TORSDOF 6
ENDMDL
MODEL 2
REMARK VINA RESULT:      -8.1      1.325      1.725
REMARK  Name = 
REMARK  6 active torsions:
REMARK  status: ('A' for Active; 'I' for Inactive)
REMARK    1  A    between atoms: C_2  and  C_4
REMARK    2  A    between atoms: C_4  and  C_5
REMARK    3  A    between atoms: C_8  and  C_9
REMARK    4  A    between atoms: C_11  and  C_12
REMARK    5  A    between atoms: N_14  and  C_15
REMARK    6  A    between atoms: C_15  and  C_17
REMARK                            x       y       z     vdW  Elec       q    Type
REMARK                         _______ _______ _______ _____ _____    ______ ____
ROOT
ATOM      1  C   UNL     1      38.980   5.456  16.831  0.00  0.00    +0.000 A 
ATOM      2  C   UNL     1      38.163   4.383  17.063  0.00  0.00    +0.000 A 
ATOM      3  C   UNL     1      37.231   3.927  16.156  0.00  0.00    +0.000 A 
ATOM      4  C   UNL     1      37.145   4.613  14.961  0.00  0.00    +0.000 A 
ATOM      5  C   UNL     1      36.214   4.160  14.052  0.00  0.00    +0.000 A 
ATOM      6  C   UNL     1      36.106   4.825  12.849  0.00  0.00    +0.000 A 
ATOM      7  C   UNL     1      36.902   5.899  12.580  0.00  0.00    +0.000 A 
ATOM      8  C   UNL     1      37.826   6.329  13.514  0.00  0.00    +0.000 A 
ATOM      9  C   UNL     1      37.972   5.694  14.735  0.00  0.00    +0.000 A 
ATOM     10  N   UNL     1      38.866   6.098  15.656  0.00  0.00    +0.000 NA
ENDROOT
BRANCH   1  14
ATOM     11  C   UNL     1      41.778   6.769  19.761  0.00  0.00    +0.000 A 
ATOM     12  C   UNL     1      42.129   6.682  18.439  0.00  0.00    +0.000 A 
ATOM     13  C   UNL     1      41.238   6.257  17.469  0.00  0.00    +0.000 A 
ATOM     14  C   UNL     1      39.958   5.910  17.835  0.00  0.00    +0.000 A 
ATOM     15  C   UNL     1      39.608   5.998  19.164  0.00  0.00    +0.000 A 
ATOM     16  C   UNL     1      40.507   6.426  20.141  0.00  0.00    +0.000 A 
BRANCH  11  17
ATOM     17  C   UNL     1      42.808   7.238  20.717  0.00  0.00    +0.000 C 
BRANCH  17  19
ATOM     18  C   UNL     1      45.199   6.624  20.302  0.00  0.00    +0.000 C 
ATOM     19  C   UNL     1      43.866   6.160  20.844  0.00  0.00    +0.000 C 
ATOM     20  C   UNL     1      43.991   5.825  22.297  0.00  0.00    +0.000 C 
ENDBRANCH  17  19
ENDBRANCH  11  17
ENDBRANCH   1  14
BRANCH   3  21
ATOM     21  C   UNL     1      36.372   2.774  16.452  0.00  0.00    +0.000 C 
ATOM     22  O   UNL     1      35.136   2.917  16.473  0.00  0.00    +0.000 OA
ATOM     23  N   UNL     1      36.897   1.489  16.718  0.00  0.00    +0.000 NA
BRANCH  23  24
ATOM     24  C   UNL     1      35.827   0.360  17.016  0.00  0.00    +0.000 C 
ATOM     25  C   UNL     1      36.203   0.353  18.656  0.00  0.00    +0.000 C 
BRANCH  24  26
ATOM     26  C   UNL     1      36.758  -0.859  16.645  0.00  0.00    +0.000 A 
ATOM     27  C   UNL     1      36.800  -1.207  15.348  0.00  0.00    +0.000 A 
ATOM     28  C   UNL     1      37.602  -2.287  14.931  0.00  0.00    +0.000 A 
ATOM     29  N   UNL     1      38.301  -2.933  15.866  0.00  0.00    +0.000 NA
ATOM     30  C   UNL     1      38.252  -2.578  17.154  0.00  0.00    +0.000 A 
ATOM     31  C   UNL     1      37.469  -1.520  17.574  0.00  0.00    +0.000 A 
ENDBRANCH  24  26
ENDBRANCH  23  24
ENDBRANCH   3  21
TORSDOF 6
ENDMDL
MODEL 3
REMARK VINA RESULT:      -8.0      1.808      2.360
REMARK  Name = 
REMARK  6 active torsions:
REMARK  status: ('A' for Active; 'I' for Inactive)
REMARK    1  A    between atoms: C_2  and  C_4
REMARK    2  A    between atoms: C_4  and  C_5
REMARK    3  A    between atoms: C_8  and  C_9
REMARK    4  A    between atoms: C_11  and  C_12
REMARK    5  A    between atoms: N_14  and  C_15
REMARK    6  A    between atoms: C_15  and  C_17
REMARK                            x       y       z     vdW  Elec       q    Type
REMARK                         _______ _______ _______ _____ _____    ______ ____
ROOT
ATOM      1  C   UNL     1      39.271   5.636  16.796  0.00  0.00    +0.000 A 
ATOM      2  C   UNL     1      39.250   4.351  16.326  0.00  0.00    +0.000 A 
ATOM      3  C   UNL     1      38.389   3.915  15.343  0.00  0.00    +0.000 A 
ATOM      4  C   UNL     1      37.515   4.851  14.827  0.00  0.00    +0.000 A 
ATOM      5  C   UNL     1      36.653   4.419  13.844  0.00  0.00    +0.000 A 
ATOM      6  C   UNL     1      35.769   5.332  13.309  0.00  0.00    +0.000 A 
ATOM      7  C   UNL     1      35.758   6.622  13.750  0.00  0.00    +0.000 A 
ATOM      8  C   UNL     1      36.636   7.025  14.739  0.00  0.00    +0.000 A 
ATOM      9  C   UNL     1      37.542   6.144  15.306  0.00  0.00    +0.000 A 
ATOM     10  N   UNL     1      38.405   6.517  16.269  0.00  0.00    +0.000 NA
ENDROOT
BRANCH   1  14
ATOM     11  C   UNL     1      42.007   6.843  19.828  0.00  0.00    +0.000 A 
ATOM     12  C   UNL     1      40.720   6.487  20.140  0.00  0.00    +0.000 A 
ATOM     13  C   UNL     1      39.812   6.093  19.172  0.00  0.00    +0.000 A 
ATOM     14  C   UNL     1      40.207   6.053  17.855  0.00  0.00    +0.000 A 
ATOM     15  C   UNL     1      41.500   6.412  17.544  0.00  0.00    +0.000 A 
ATOM     16  C   UNL     1      42.413   6.809  18.521  0.00  0.00    +0.000 A 
BRANCH  11  17
ATOM     17  C   UNL     1      42.897   7.246  20.942  0.00  0.00    +0.000 C 
BRANCH  17  19
ATOM     18  C   UNL     1      45.065   6.024  20.677  0.00  0.00    +0.000 C 
ATOM     19  C   UNL     1      43.715   6.039  21.358  0.00  0.00    +0.000 C 
ATOM     20  C   UNL     1      43.890   6.107  22.843  0.00  0.00    +0.000 C 
ENDBRANCH  17  19
ENDBRANCH  11  17
ENDBRANCH   1  14
BRANCH   3  21
ATOM     21  C   UNL     1      38.400   2.523  14.874  0.00  0.00    +0.000 C 
ATOM     22  O   UNL     1      39.278   2.150  14.075  0.00  0.00    +0.000 OA
ATOM     23  N   UNL     1      37.441   1.576  15.299  0.00  0.00    +0.000 NA
BRANCH  23  24
ATOM     24  C   UNL     1      37.602   0.120  14.695  0.00  0.00    +0.000 C 
ATOM     25  C   UNL     1      36.629   0.495  13.376  0.00  0.00    +0.000 C 
BRANCH  24  26
ATOM     26  C   UNL     1      36.452  -0.545  15.545  0.00  0.00    +0.000 A 
ATOM     27  C   UNL     1      35.779   0.265  16.380  0.00  0.00    +0.000 A 
ATOM     28  C   UNL     1      34.739  -0.248  17.179  0.00  0.00    +0.000 A 
ATOM     29  N   UNL     1      34.462  -1.548  17.069  0.00  0.00    +0.000 NA
ATOM     30  C   UNL     1      35.137  -2.345  16.235  0.00  0.00    +0.000 A 
ATOM     31  C   UNL     1      36.159  -1.853  15.447  0.00  0.00    +0.000 A 
ENDBRANCH  24  26
ENDBRANCH  23  24
ENDBRANCH   3  21
TORSDOF 6
ENDMDL
MODEL 4
REMARK VINA RESULT:      -7.9      1.448      2.235
REMARK  Name = 
REMARK  6 active torsions:
REMARK  status: ('A' for Active; 'I' for Inactive)
REMARK    1  A    between atoms: C_2  and  C_4
REMARK    2  A    between atoms: C_4  and  C_5
REMARK    3  A    between atoms: C_8  and  C_9
REMARK    4  A    between atoms: C_11  and  C_12
REMARK    5  A    between atoms: N_14  and  C_15
REMARK    6  A    between atoms: C_15  and  C_17
REMARK                            x       y       z     vdW  Elec       q    Type
REMARK                         _______ _______ _______ _____ _____    ______ ____
ROOT
ATOM      1  C   UNL     1      38.654   4.935  16.578  0.00  0.00    +0.000 A 
ATOM      2  C   UNL     1      37.666   4.064  16.947  0.00  0.00    +0.000 A 
ATOM      3  C   UNL     1      37.101   3.146  16.089  0.00  0.00    +0.000 A 
ATOM      4  C   UNL     1      37.584   3.133  14.795  0.00  0.00    +0.000 A 
ATOM      5  C   UNL     1      37.022   2.217  13.933  0.00  0.00    +0.000 A 
ATOM      6  C   UNL     1      37.484   2.180  12.635  0.00  0.00    +0.000 A 
ATOM      7  C   UNL     1      38.468   3.032  12.228  0.00  0.00    +0.000 A 
ATOM      8  C   UNL     1      39.011   3.940  13.117  0.00  0.00    +0.000 A 
ATOM      9  C   UNL     1      38.580   4.014  14.430  0.00  0.00    +0.000 A 
ATOM     10  N   UNL     1      39.096   4.892  15.311  0.00  0.00    +0.000 NA
ENDROOT
BRANCH   1  14
ATOM     11  C   UNL     1      40.286   7.709  19.367  0.00  0.00    +0.000 A 
ATOM     12  C   UNL     1      40.157   8.034  18.042  0.00  0.00    +0.000 A 
ATOM     13  C   UNL     1      39.631   7.149  17.116  0.00  0.00    +0.000 A 
ATOM     14  C   UNL     1      39.222   5.903  17.533  0.00  0.00    +0.000 A 
ATOM     15  C   UNL     1      39.353   5.579  18.865  0.00  0.00    +0.000 A 
ATOM     16  C   UNL     1      39.883   6.473  19.796  0.00  0.00    +0.000 A 
BRANCH  11  17
ATOM     17  C   UNL     1      40.859   8.732  20.273  0.00  0.00    +0.000 C 
BRANCH  17  19
ATOM     18  C   UNL     1      38.661   9.676  21.010  0.00  0.00    +0.000 C 
ATOM     19  C   UNL     1      39.947   9.943  20.261  0.00  0.00    +0.000 C 
ATOM     20  C   UNL     1      40.691  11.071  20.905  0.00  0.00    +0.000 C 
ENDBRANCH  17  19
ENDBRANCH  11  17
ENDBRANCH   1  14
BRANCH   3  21
ATOM     21  C   UNL     1      36.038   2.234  16.529  0.00  0.00    +0.000 C 
ATOM     22  O   UNL     1      34.848   2.592  16.449  0.00  0.00    +0.000 OA
ATOM     23  N   UNL     1      36.312   0.948  17.047  0.00  0.00    +0.000 NA
BRANCH  23  24
ATOM     24  C   UNL     1      35.046   0.097  17.473  0.00  0.00    +0.000 C 
ATOM     25  C   UNL     1      35.850  -0.543  18.804  0.00  0.00    +0.000 C 
BRANCH  24  26
ATOM     26  C   UNL     1      35.336  -1.127  16.521  0.00  0.00    +0.000 A 
ATOM     27  C   UNL     1      36.309  -0.959  15.609  0.00  0.00    +0.000 A 
ATOM     28  C   UNL     1      36.629  -2.000  14.715  0.00  0.00    +0.000 A 
ATOM     29  N   UNL     1      35.935  -3.135  14.817  0.00  0.00    +0.000 NA
ATOM     30  C   UNL     1      34.969  -3.291  15.728  0.00  0.00    +0.000 A 
ATOM     31  C   UNL     1      34.646  -2.277  16.609  0.00  0.00    +0.000 A 
ENDBRANCH  24  26
ENDBRANCH  23  24
ENDBRANCH   3  21
TORSDOF 6
ENDMDL
MODEL 5
REMARK VINA RESULT:      -7.8      2.692      8.924
REMARK  Name = 
REMARK  6 active torsions:
REMARK  status: ('A' for Active; 'I' for Inactive)
REMARK    1  A    between atoms: C_2  and  C_4
REMARK    2  A    between atoms: C_4  and  C_5
REMARK    3  A    between atoms: C_8  and  C_9
REMARK    4  A    between atoms: C_11  and  C_12
REMARK    5  A    between atoms: N_14  and  C_15
REMARK    6  A    between atoms: C_15  and  C_17
REMARK                            x       y       z     vdW  Elec       q    Type
REMARK                         _______ _______ _______ _____ _____    ______ ____
ROOT
ATOM      1  C   UNL     1      36.272   3.030  15.389  0.00  0.00    +0.000 A 
ATOM      2  C   UNL     1      37.313   3.683  15.992  0.00  0.00    +0.000 A 
ATOM      3  C   UNL     1      37.673   4.979  15.694  0.00  0.00    +0.000 A 
ATOM      4  C   UNL     1      36.921   5.623  14.732  0.00  0.00    +0.000 A 
ATOM      5  C   UNL     1      37.278   6.919  14.431  0.00  0.00    +0.000 A 
ATOM      6  C   UNL     1      36.544   7.588  13.475  0.00  0.00    +0.000 A 
ATOM      7  C   UNL     1      35.500   6.974  12.851  0.00  0.00    +0.000 A 
ATOM      8  C   UNL     1      35.167   5.672  13.175  0.00  0.00    +0.000 A 
ATOM      9  C   UNL     1      35.873   4.959  14.129  0.00  0.00    +0.000 A 
ATOM     10  N   UNL     1      35.565   3.691  14.458  0.00  0.00    +0.000 NA
ENDROOT
BRANCH   1  14
ATOM     11  C   UNL     1      35.301  -1.000  16.364  0.00  0.00    +0.000 A 
ATOM     12  C   UNL     1      34.757   0.046  17.063  0.00  0.00    +0.000 A 
ATOM     13  C   UNL     1      35.058   1.364  16.766  0.00  0.00    +0.000 A 
ATOM     14  C   UNL     1      35.929   1.641  15.737  0.00  0.00    +0.000 A 
ATOM     15  C   UNL     1      36.475   0.588  15.036  0.00  0.00    +0.000 A 
ATOM     16  C   UNL     1      36.170  -0.740  15.338  0.00  0.00    +0.000 A 
BRANCH  11  17
ATOM     17  C   UNL     1      34.909  -2.371  16.763  0.00  0.00    +0.000 C 
BRANCH  17  19
ATOM     18  C   UNL     1      36.261  -4.402  16.199  0.00  0.00    +0.000 C 
ATOM     19  C   UNL     1      35.339  -3.327  15.668  0.00  0.00    +0.000 C 
ATOM     20  C   UNL     1      34.100  -3.948  15.102  0.00  0.00    +0.000 C 
ENDBRANCH  17  19
ENDBRANCH  11  17
ENDBRANCH   1  14
BRANCH   3  21
ATOM     21  C   UNL     1      38.803   5.636  16.364  0.00  0.00    +0.000 C 
ATOM     22  O   UNL     1      39.945   5.542  15.879  0.00  0.00    +0.000 OA
ATOM     23  N   UNL     1      38.645   6.382  17.554  0.00  0.00    +0.000 NA
BRANCH  23  24
ATOM     24  C   UNL     1      39.969   7.024  18.141  0.00  0.00    +0.000 C 
ATOM     25  C   UNL     1      40.129   5.798  19.281  0.00  0.00    +0.000 C 
BRANCH  24  26
ATOM     26  C   UNL     1      39.250   8.038  19.112  0.00  0.00    +0.000 A 
ATOM     27  C   UNL     1      37.907   8.047  19.081  0.00  0.00    +0.000 A 
ATOM     28  C   UNL     1      37.186   8.926  19.912  0.00  0.00    +0.000 A 
ATOM     29  N   UNL     1      37.886   9.731  20.713  0.00  0.00    +0.000 NA
ATOM     30  C   UNL     1      39.222   9.713  20.736  0.00  0.00    +0.000 A 
ATOM     31  C   UNL     1      39.940   8.856  19.925  0.00  0.00    +0.000 A 
ENDBRANCH  24  26
ENDBRANCH  23  24
ENDBRANCH   3  21
TORSDOF 6
ENDMDL
MODEL 6
REMARK VINA RESULT:      -7.6      3.772      6.519
REMARK  Name = 
REMARK  6 active torsions:
REMARK  status: ('A' for Active; 'I' for Inactive)
REMARK    1  A    between atoms: C_2  and  C_4
REMARK    2  A    between atoms: C_4  and  C_5
REMARK    3  A    between atoms: C_8  and  C_9
REMARK    4  A    between atoms: C_11  and  C_12
REMARK    5  A    between atoms: N_14  and  C_15
REMARK    6  A    between atoms: C_15  and  C_17
REMARK                            x       y       z     vdW  Elec       q    Type
REMARK                         _______ _______ _______ _____ _____    ______ ____
ROOT
ATOM      1  C   UNL     1      38.472   5.067  16.937  0.00  0.00    +0.000 A 
ATOM      2  C   UNL     1      38.010   5.721  15.828  0.00  0.00    +0.000 A 
ATOM      3  C   UNL     1      37.025   5.221  15.005  0.00  0.00    +0.000 A 
ATOM      4  C   UNL     1      36.498   3.992  15.349  0.00  0.00    +0.000 A 
ATOM      5  C   UNL     1      35.513   3.488  14.529  0.00  0.00    +0.000 A 
ATOM      6  C   UNL     1      34.968   2.263  14.849  0.00  0.00    +0.000 A 
ATOM      7  C   UNL     1      35.400   1.579  15.946  0.00  0.00    +0.000 A 
ATOM      8  C   UNL     1      36.392   2.112  16.749  0.00  0.00    +0.000 A 
ATOM      9  C   UNL     1      36.969   3.339  16.469  0.00  0.00    +0.000 A 
ATOM     10  N   UNL     1      37.935   3.874  17.238  0.00  0.00    +0.000 NA
ENDROOT
BRANCH   1  14
ATOM     11  C   UNL     1      41.565   6.724  19.352  0.00  0.00    +0.000 A 
ATOM     12  C   UNL     1      40.347   6.398  19.890  0.00  0.00    +0.000 A 
ATOM     13  C   UNL     1      39.326   5.860  19.125  0.00  0.00    +0.000 A 
ATOM     14  C   UNL     1      39.533   5.641  17.783  0.00  0.00    +0.000 A 
ATOM     15  C   UNL     1      40.758   5.969  17.244  0.00  0.00    +0.000 A 
ATOM     16  C   UNL     1      41.785   6.512  18.016  0.00  0.00    +0.000 A 
BRANCH  11  17
ATOM     17  C   UNL     1      42.588   7.291  20.260  0.00  0.00    +0.000 C 
BRANCH  17  19
ATOM     18  C   UNL     1      45.019   6.747  20.012  0.00  0.00    +0.000 C 
ATOM     19  C   UNL     1      43.668   6.248  20.471  0.00  0.00    +0.000 C 
ATOM     20  C   UNL     1      43.707   5.933  21.934  0.00  0.00    +0.000 C 
ENDBRANCH  17  19
ENDBRANCH  11  17
ENDBRANCH   1  14
BRANCH   3  21
ATOM     21  C   UNL     1      36.565   5.958  13.821  0.00  0.00    +0.000 C 
ATOM     22  O   UNL     1      36.506   5.379  12.720  0.00  0.00    +0.000 OA
ATOM     23  N   UNL     1      36.180   7.316  13.879  0.00  0.00    +0.000 NA
BRANCH  23  24
ATOM     24  C   UNL     1      35.709   7.954  12.507  0.00  0.00    +0.000 C 
ATOM     25  C   UNL     1      37.191   8.718  12.285  0.00  0.00    +0.000 C 
BRANCH  24  26
ATOM     26  C   UNL     1      34.989   9.206  13.140  0.00  0.00    +0.000 A 
ATOM     27  C   UNL     1      34.601   9.090  14.422  0.00  0.00    +0.000 A 
ATOM     28  C   UNL     1      33.946  10.159  15.063  0.00  0.00    +0.000 A 
ATOM     29  N   UNL     1      33.734  11.267  14.351  0.00  0.00    +0.000 NA
ATOM     30  C   UNL     1      34.125  11.373  13.078  0.00  0.00    +0.000 A 
ATOM     31  C   UNL     1      34.768  10.331  12.438  0.00  0.00    +0.000 A 
ENDBRANCH  24  26
ENDBRANCH  23  24
ENDBRANCH   3  21
TORSDOF 6
ENDMDL
MODEL 7
REMARK VINA RESULT:      -7.5      4.152      8.979
REMARK  Name = 
REMARK  6 active torsions:
REMARK  status: ('A' for Active; 'I' for Inactive)
REMARK    1  A    between atoms: C_2  and  C_4
REMARK    2  A    between atoms: C_4  and  C_5
REMARK    3  A    between atoms: C_8  and  C_9
REMARK    4  A    between atoms: C_11  and  C_12
REMARK    5  A    between atoms: N_14  and  C_15
REMARK    6  A    between atoms: C_15  and  C_17
REMARK                            x       y       z     vdW  Elec       q    Type
REMARK                         _______ _______ _______ _____ _____    ______ ____
ROOT
ATOM      1  C   UNL     1      39.091  -0.769  14.628  0.00  0.00    +0.000 A 
ATOM      2  C   UNL     1      39.028   0.597  14.585  0.00  0.00    +0.000 A 
ATOM      3  C   UNL     1      37.988   1.328  15.116  0.00  0.00    +0.000 A 
ATOM      4  C   UNL     1      36.972   0.610  15.715  0.00  0.00    +0.000 A 
ATOM      5  C   UNL     1      35.929   1.337  16.246  0.00  0.00    +0.000 A 
ATOM      6  C   UNL     1      34.901   0.648  16.852  0.00  0.00    +0.000 A 
ATOM      7  C   UNL     1      34.925  -0.714  16.915  0.00  0.00    +0.000 A 
ATOM      8  C   UNL     1      35.986  -1.415  16.372  0.00  0.00    +0.000 A 
ATOM      9  C   UNL     1      37.042  -0.766  15.754  0.00  0.00    +0.000 A 
ATOM     10  N   UNL     1      38.083  -1.431  15.219  0.00  0.00    +0.000 NA
ENDROOT
BRANCH   1  14
ATOM     11  C   UNL     1      42.337  -2.927  12.913  0.00  0.00    +0.000 A 
ATOM     12  C   UNL     1      42.559  -1.908  13.803  0.00  0.00    +0.000 A 
ATOM     13  C   UNL     1      41.520  -1.192  14.373  0.00  0.00    +0.000 A 
ATOM     14  C   UNL     1      40.223  -1.507  14.040  0.00  0.00    +0.000 A 
ATOM     15  C   UNL     1      40.003  -2.530  13.146  0.00  0.00    +0.000 A 
ATOM     16  C   UNL     1      41.051  -3.251  12.572  0.00  0.00    +0.000 A 
BRANCH  11  17
ATOM     17  C   UNL     1      43.520  -3.630  12.366  0.00  0.00    +0.000 C 
BRANCH  17  19
ATOM     18  C   UNL     1      44.449  -2.366  10.415  0.00  0.00    +0.000 C 
ATOM     19  C   UNL     1      43.515  -3.469  10.858  0.00  0.00    +0.000 C 
ATOM     20  C   UNL     1      43.945  -4.774  10.266  0.00  0.00    +0.000 C 
ENDBRANCH  17  19
ENDBRANCH  11  17
ENDBRANCH   1  14
BRANCH   3  21
ATOM     21  C   UNL     1      37.962   2.794  15.041  0.00  0.00    +0.000 C 
ATOM     22  O   UNL     1      37.209   3.355  14.224  0.00  0.00    +0.000 OA
ATOM     23  N   UNL     1      38.768   3.607  15.870  0.00  0.00    +0.000 NA
BRANCH  23  24
ATOM     24  C   UNL     1      38.612   5.170  15.656  0.00  0.00    +0.000 C 
ATOM     25  C   UNL     1      39.953   5.224  14.642  0.00  0.00    +0.000 C 
BRANCH  24  26
ATOM     26  C   UNL     1      39.393   5.597  16.958  0.00  0.00    +0.000 A 
ATOM     27  C   UNL     1      40.659   6.014  16.789  0.00  0.00    +0.000 A 
ATOM     28  C   UNL     1      41.429   6.409  17.900  0.00  0.00    +0.000 A 
ATOM     29  N   UNL     1      40.853   6.350  19.101  0.00  0.00    +0.000 NA
ATOM     30  C   UNL     1      39.592   5.935  19.259  0.00  0.00    +0.000 A 
ATOM     31  C   UNL     1      38.828   5.544  18.177  0.00  0.00    +0.000 A 
ENDBRANCH  24  26
ENDBRANCH  23  24
ENDBRANCH   3  21
TORSDOF 6
ENDMDL
MODEL 8
REMARK VINA RESULT:      -7.4     23.512     28.225
REMARK  Name = 
REMARK  6 active torsions:
REMARK  status: ('A' for Active; 'I' for Inactive)
REMARK    1  A    between atoms: C_2  and  C_4
REMARK    2  A    between atoms: C_4  and  C_5
REMARK    3  A    between atoms: C_8  and  C_9
REMARK    4  A    between atoms: C_11  and  C_12
REMARK    5  A    between atoms: N_14  and  C_15
REMARK    6  A    between atoms: C_15  and  C_17
REMARK                            x       y       z     vdW  Elec       q    Type
REMARK                         _______ _______ _______ _____ _____    ______ ____
ROOT
ATOM      1  C   UNL     1      11.539  -1.316  25.434  0.00  0.00    +0.000 A 
ATOM      2  C   UNL     1      12.756  -1.217  26.052  0.00  0.00    +0.000 A 
ATOM      3  C   UNL     1      13.181  -0.090  26.719  0.00  0.00    +0.000 A 
ATOM      4  C   UNL     1      12.306   0.979  26.747  0.00  0.00    +0.000 A 
ATOM      5  C   UNL     1      12.728   2.108  27.413  0.00  0.00    +0.000 A 
ATOM      6  C   UNL     1      11.875   3.190  27.457  0.00  0.00    +0.000 A 
ATOM      7  C   UNL     1      10.654   3.132  26.855  0.00  0.00    +0.000 A 
ATOM      8  C   UNL     1      10.260   1.984  26.193  0.00  0.00    +0.000 A 
ATOM      9  C   UNL     1      11.082   0.872  26.122  0.00  0.00    +0.000 A 
ATOM     10  N   UNL     1      10.716  -0.255  25.483  0.00  0.00    +0.000 NA
ENDROOT
BRANCH   1  14
ATOM     11  C   UNL     1      10.333  -4.841  23.371  0.00  0.00    +0.000 A 
ATOM     12  C   UNL     1      11.251  -4.897  24.388  0.00  0.00    +0.000 A 
ATOM     13  C   UNL     1      11.659  -3.765  25.072  0.00  0.00    +0.000 A 
ATOM     14  C   UNL     1      11.131  -2.542  24.727  0.00  0.00    +0.000 A 
ATOM     15  C   UNL     1      10.209  -2.488  23.706  0.00  0.00    +0.000 A 
ATOM     16  C   UNL     1       9.799  -3.630  23.017  0.00  0.00    +0.000 A 
BRANCH  11  17
ATOM     17  C   UNL     1       9.964  -6.112  22.707  0.00  0.00    +0.000 C 
BRANCH  17  19
ATOM     18  C   UNL     1      11.003  -8.376  22.455  0.00  0.00    +0.000 C 
ATOM     19  C   UNL     1      11.236  -6.882  22.413  0.00  0.00    +0.000 C 
ATOM     20  C   UNL     1      11.702  -6.473  21.051  0.00  0.00    +0.000 C 
ENDBRANCH  17  19
ENDBRANCH  11  17
ENDBRANCH   1  14
BRANCH   3  21
ATOM     21  C   UNL     1      14.500  -0.029  27.363  0.00  0.00    +0.000 C 
ATOM     22  O   UNL     1      14.577   0.035  28.604  0.00  0.00    +0.000 OA
ATOM     23  N   UNL     1      15.703  -0.040  26.622  0.00  0.00    +0.000 NA
BRANCH  23  24
ATOM     24  C   UNL     1      17.035   0.031  27.477  0.00  0.00    +0.000 C 
ATOM     25  C   UNL     1      17.199   1.680  27.195  0.00  0.00    +0.000 C 
BRANCH  24  26
ATOM     26  C   UNL     1      18.006  -0.416  26.316  0.00  0.00    +0.000 A 
ATOM     27  C   UNL     1      18.546   0.567  25.576  0.00  0.00    +0.000 A 
ATOM     28  C   UNL     1      19.420   0.256  24.516  0.00  0.00    +0.000 A 
ATOM     29  N   UNL     1      19.678  -1.033  24.289  0.00  0.00    +0.000 NA
ATOM     30  C   UNL     1      19.135  -2.003  25.031  0.00  0.00    +0.000 A 
ATOM     31  C   UNL     1      18.277  -1.709  26.073  0.00  0.00    +0.000 A 
ENDBRANCH  24  26
ENDBRANCH  23  24
ENDBRANCH   3  21
TORSDOF 6
ENDMDL
MODEL 9
REMARK VINA RESULT:      -7.4      3.654      5.416
REMARK  Name = 
REMARK  6 active torsions:
REMARK  status: ('A' for Active; 'I' for Inactive)
REMARK    1  A    between atoms: C_2  and  C_4
REMARK    2  A    between atoms: C_4  and  C_5
REMARK    3  A    between atoms: C_8  and  C_9
REMARK    4  A    between atoms: C_11  and  C_12
REMARK    5  A    between atoms: N_14  and  C_15
REMARK    6  A    between atoms: C_15  and  C_17
REMARK                            x       y       z     vdW  Elec       q    Type
REMARK                         _______ _______ _______ _____ _____    ______ ____
ROOT
ATOM      1  C   UNL     1      37.629   3.197  16.458  0.00  0.00    +0.000 A 
ATOM      2  C   UNL     1      38.190   2.638  15.342  0.00  0.00    +0.000 A 
ATOM      3  C   UNL     1      37.838   1.399  14.854  0.00  0.00    +0.000 A 
ATOM      4  C   UNL     1      36.865   0.713  15.553  0.00  0.00    +0.000 A 
ATOM      5  C   UNL     1      36.511  -0.527  15.068  0.00  0.00    +0.000 A 
ATOM      6  C   UNL     1      35.540  -1.234  15.745  0.00  0.00    +0.000 A 
ATOM      7  C   UNL     1      34.957  -0.712  16.861  0.00  0.00    +0.000 A 
ATOM      8  C   UNL     1      35.335   0.535  17.323  0.00  0.00    +0.000 A 
ATOM      9  C   UNL     1      36.304   1.283  16.677  0.00  0.00    +0.000 A 
ATOM     10  N   UNL     1      36.686   2.499  17.110  0.00  0.00    +0.000 NA
ENDROOT
BRANCH   1  14
ATOM     11  C   UNL     1      38.834   7.019  17.901  0.00  0.00    +0.000 A 
ATOM     12  C   UNL     1      38.272   6.879  16.658  0.00  0.00    +0.000 A 
ATOM     13  C   UNL     1      37.873   5.647  16.167  0.00  0.00    +0.000 A 
ATOM     14  C   UNL     1      38.043   4.525  16.944  0.00  0.00    +0.000 A 
ATOM     15  C   UNL     1      38.609   4.668  18.192  0.00  0.00    +0.000 A 
ATOM     16  C   UNL     1      39.010   5.910  18.686  0.00  0.00    +0.000 A 
BRANCH  11  17
ATOM     17  C   UNL     1      39.221   8.383  18.330  0.00  0.00    +0.000 C 
BRANCH  17  19
ATOM     18  C   UNL     1      40.391   9.264  20.360  0.00  0.00    +0.000 C 
ATOM     19  C   UNL     1      39.251   8.414  19.845  0.00  0.00    +0.000 C 
ATOM     20  C   UNL     1      37.943   8.976  20.307  0.00  0.00    +0.000 C 
ENDBRANCH  17  19
ENDBRANCH  11  17
ENDBRANCH   1  14
BRANCH   3  21
ATOM     21  C   UNL     1      38.473   0.837  13.654  0.00  0.00    +0.000 C 
ATOM     22  O   UNL     1      38.101   1.214  12.528  0.00  0.00    +0.000 OA
ATOM     23  N   UNL     1      39.503  -0.128  13.727  0.00  0.00    +0.000 NA
BRANCH  23  24
ATOM     24  C   UNL     1      40.075  -0.625  12.335  0.00  0.00    +0.000 C 
ATOM     25  C   UNL     1      39.291  -2.106  12.475  0.00  0.00    +0.000 C 
BRANCH  24  26
ATOM     26  C   UNL     1      41.459  -1.135  12.893  0.00  0.00    +0.000 A 
ATOM     27  C   UNL     1      41.950  -0.486  13.962  0.00  0.00    +0.000 A 
ATOM     28  C   UNL     1      43.184  -0.873  14.520  0.00  0.00    +0.000 A 
ATOM     29  N   UNL     1      43.826  -1.893  13.948  0.00  0.00    +0.000 NA
ATOM     30  C   UNL     1      43.328  -2.533  12.885  0.00  0.00    +0.000 A 
ATOM     31  C   UNL     1      42.119  -2.161  12.329  0.00  0.00    +0.000 A 
ENDBRANCH  24  26
ENDBRANCH  23  24
ENDBRANCH   3  21
TORSDOF 6
ENDMDL
MODEL 10
REMARK VINA RESULT:      -7.3     23.020     25.458
REMARK  Name = 
REMARK  6 active torsions:
REMARK  status: ('A' for Active; 'I' for Inactive)
REMARK    1  A    between atoms: C_2  and  C_4
REMARK    2  A    between atoms: C_4  and  C_5
REMARK    3  A    between atoms: C_8  and  C_9
REMARK    4  A    between atoms: C_11  and  C_12
REMARK    5  A    between atoms: N_14  and  C_15
REMARK    6  A    between atoms: C_15  and  C_17
REMARK                            x       y       z     vdW  Elec       q    Type
REMARK                         _______ _______ _______ _____ _____    ______ ____
ROOT
ATOM      1  C   UNL     1      16.381  -1.749   5.500  0.00  0.00    +0.000 A 
ATOM      2  C   UNL     1      16.538  -3.098   5.671  0.00  0.00    +0.000 A 
ATOM      3  C   UNL     1      15.738  -3.858   6.495  0.00  0.00    +0.000 A 
ATOM      4  C   UNL     1      14.734  -3.191   7.169  0.00  0.00    +0.000 A 
ATOM      5  C   UNL     1      13.932  -3.948   7.994  0.00  0.00    +0.000 A 
ATOM      6  C   UNL     1      12.920  -3.309   8.679  0.00  0.00    +0.000 A 
ATOM      7  C   UNL     1      12.731  -1.966   8.536  0.00  0.00    +0.000 A 
ATOM      8  C   UNL     1      13.553  -1.234   7.700  0.00  0.00    +0.000 A 
ATOM      9  C   UNL     1      14.581  -1.832   6.991  0.00  0.00    +0.000 A 
ATOM     10  N   UNL     1      15.393  -1.136   6.173  0.00  0.00    +0.000 NA
ENDROOT
BRANCH   1  14
ATOM     11  C   UNL     1      18.916   0.475   2.899  0.00  0.00    +0.000 A 
ATOM     12  C   UNL     1      19.310   0.167   4.176  0.00  0.00    +0.000 A 
ATOM     13  C   UNL     1      18.503  -0.554   5.040  0.00  0.00    +0.000 A 
ATOM     14  C   UNL     1      17.266  -0.978   4.611  0.00  0.00    +0.000 A 
ATOM     15  C   UNL     1      16.873  -0.667   3.328  0.00  0.00    +0.000 A 
ATOM     16  C   UNL     1      17.687   0.059   2.458  0.00  0.00    +0.000 A 
BRANCH  11  17
ATOM     17  C   UNL     1      19.858   1.247   2.057  0.00  0.00    +0.000 C 
BRANCH  17  19
ATOM     18  C   UNL     1      20.615   1.427  -0.323  0.00  0.00    +0.000 C 
ATOM     19  C   UNL     1      20.013   0.526   0.732  0.00  0.00    +0.000 C 
ATOM     20  C   UNL     1      20.902  -0.655   0.967  0.00  0.00    +0.000 C 
ENDBRANCH  17  19
ENDBRANCH  11  17
ENDBRANCH   1  14
BRANCH   3  21
ATOM     21  C   UNL     1      15.949  -5.303   6.651  0.00  0.00    +0.000 C 
ATOM     22  O   UNL     1      15.445  -6.091   5.830  0.00  0.00    +0.000 OA
ATOM     23  N   UNL     1      16.711  -5.845   7.711  0.00  0.00    +0.000 NA
BRANCH  23  24
ATOM     24  C   UNL     1      16.837  -7.424   7.726  0.00  0.00    +0.000 C 
ATOM     25  C   UNL     1      15.843  -7.550   9.077  0.00  0.00    +0.000 C 
BRANCH  24  26
ATOM     26  C   UNL     1      18.192  -7.479   8.532  0.00  0.00    +0.000 A 
ATOM     27  C   UNL     1      19.115  -8.352   8.094  0.00  0.00    +0.000 A 
ATOM     28  C   UNL     1      20.351  -8.468   8.759  0.00  0.00    +0.000 A 
ATOM     29  N   UNL     1      20.554  -7.688   9.822  0.00  0.00    +0.000 NA
ATOM     30  C   UNL     1      19.630  -6.823  10.249  0.00  0.00    +0.000 A 
ATOM     31  C   UNL     1      18.414  -6.700   9.605  0.00  0.00    +0.000 A 
ENDBRANCH  24  26
ENDBRANCH  23  24
ENDBRANCH   3  21
TORSDOF 6
ENDMDL
