MODEL 1
REMARK VINA RESULT:      -8.7      0.000      0.000
REMARK  Name = 
REMARK  6 active torsions:
REMARK  status: ('A' for Active; 'I' for Inactive)
REMARK    1  A    between atoms: O_2  and  C_3
REMARK    2  A    between atoms: C_6  and  C_7
REMARK    3  A    between atoms: C_17  and  O_18
REMARK    4  A    between atoms: O_18  and  C_19
REMARK    5  A    between atoms: C_19  and  C_20
REMARK    6  A    between atoms: C_28  and  C_29
REMARK                            x       y       z     vdW  Elec       q    Type
REMARK                         _______ _______ _______ _____ _____    ______ ____
ROOT
ATOM      1  C   UNL     1      37.278  -2.026  13.792  0.00  0.00    +0.000 C 
ATOM      2  N   UNL     1      38.741  -1.889  13.196  0.00  0.00    +0.000 NA
ATOM      3  C   UNL     1      38.727  -0.858  12.227  0.00  0.00    +0.000 C 
ATOM      4  C   UNL     1      38.852   0.460  12.907  0.00  0.00    +0.000 C 
ATOM      5  C   UNL     1      37.942   0.446  14.065  0.00  0.00    +0.000 A 
ATOM      6  C   UNL     1      37.247  -0.579  14.497  0.00  0.00    +0.000 A 
ATOM      7  N   UNL     1      36.487  -0.288  15.592  0.00  0.00    +0.000 NA
ATOM      8  C   UNL     1      36.733   1.015  15.855  0.00  0.00    +0.000 A 
ATOM      9  C   UNL     1      36.277   1.886  16.821  0.00  0.00    +0.000 A 
ATOM     10  C   UNL     1      36.683   3.200  16.885  0.00  0.00    +0.000 A 
ATOM     11  C   UNL     1      37.588   3.701  15.954  0.00  0.00    +0.000 A 
ATOM     12  C   UNL     1      38.029   2.812  15.000  0.00  0.00    +0.000 A 
ATOM     13  C   UNL     1      37.643   1.498  14.911  0.00  0.00    +0.000 A 
ENDROOT
BRANCH   1  17
ATOM     14  C   UNL     1      38.419  -4.264  17.304  0.00  0.00    +0.000 A 
ATOM     15  C   UNL     1      39.316  -3.398  16.722  0.00  0.00    +0.000 A 
ATOM     16  C   UNL     1      38.956  -2.683  15.600  0.00  0.00    +0.000 A 
ATOM     17  C   UNL     1      37.715  -2.857  15.099  0.00  0.00    +0.000 A 
ATOM     18  C   UNL     1      36.780  -3.698  15.627  0.00  0.00    +0.000 A 
ATOM     19  C   UNL     1      37.145  -4.419  16.757  0.00  0.00    +0.000 A 
BRANCH  18  20
ATOM     20  C   UNL     1      35.421  -3.887  15.076  0.00  0.00    +0.000 C 
ATOM     21  C   UNL     1      35.088  -5.337  14.857  0.00  0.00    +0.000 C 
ATOM     22  C   UNL     1      34.360  -3.217  15.883  0.00  0.00    +0.000 C 
ENDBRANCH  18  20
BRANCH  14  24
ATOM     23  C   UNL     1      38.957  -4.305  19.671  0.00  0.00    +0.000 C 
ATOM     24  O   UNL     1      38.812  -4.971  18.434  0.00  0.00    +0.000 OA
ENDBRANCH  14  24
ENDBRANCH   1  17
BRANCH  11  25
ATOM     25  O   UNL     1      37.975   5.023  16.044  0.00  0.00    +0.000 OA
BRANCH  25  26
ATOM     26  C   UNL     1      39.326   5.348  15.842  0.00  0.00    +0.000 C 
BRANCH  26  27
ATOM     27  C   UNL     1      39.889   5.767  17.144  0.00  0.00    +0.000 A 
ATOM     28  C   UNL     1      41.210   6.183  17.165  0.00  0.00    +0.000 A 
ATOM     29  C   UNL     1      41.791   6.575  18.349  0.00  0.00    +0.000 A 
ATOM     30  C   UNL     1      41.091   6.570  19.546  0.00  0.00    +0.000 A 
ATOM     31  C   UNL     1      39.779   6.153  19.504  0.00  0.00    +0.000 A 
ATOM     32  C   UNL     1      39.196   5.761  18.323  0.00  0.00    +0.000 A 
ENDBRANCH  26  27
ENDBRANCH  25  26
ENDBRANCH  11  25
TORSDOF 6
ENDMDL
MODEL 2
REMARK VINA RESULT:      -8.3     23.372     26.424
REMARK  Name = 
REMARK  6 active torsions:
REMARK  status: ('A' for Active; 'I' for Inactive)
REMARK    1  A    between atoms: O_2  and  C_3
REMARK    2  A    between atoms: C_6  and  C_7
REMARK    3  A    between atoms: C_17  and  O_18
REMARK    4  A    between atoms: O_18  and  C_19
REMARK    5  A    between atoms: C_19  and  C_20
REMARK    6  A    between atoms: C_28  and  C_29
REMARK                            x       y       z     vdW  Elec       q    Type
REMARK                         _______ _______ _______ _____ _____    ______ ____
ROOT
ATOM      1  C   UNL     1      11.938   0.153  27.378  0.00  0.00    +0.000 C 
ATOM      2  N   UNL     1      11.806  -1.401  27.666  0.00  0.00    +0.000 NA
ATOM      3  C   UNL     1      12.111  -2.098  26.472  0.00  0.00    +0.000 C 
ATOM      4  C   UNL     1      13.588  -2.221  26.335  0.00  0.00    +0.000 C 
ATOM      5  C   UNL     1      14.171  -0.907  26.659  0.00  0.00    +0.000 A 
ATOM      6  C   UNL     1      13.525   0.142  27.111  0.00  0.00    +0.000 A 
ATOM      7  N   UNL     1      14.333   1.222  27.315  0.00  0.00    +0.000 NA
ATOM      8  C   UNL     1      15.571   0.807  26.964  0.00  0.00    +0.000 A 
ATOM      9  C   UNL     1      16.804   1.423  26.945  0.00  0.00    +0.000 A 
ATOM     10  C   UNL     1      17.948   0.777  26.535  0.00  0.00    +0.000 A 
ATOM     11  C   UNL     1      17.895  -0.550  26.118  0.00  0.00    +0.000 A 
ATOM     12  C   UNL     1      16.653  -1.143  26.146  0.00  0.00    +0.000 A 
ATOM     13  C   UNL     1      15.496  -0.526  26.549  0.00  0.00    +0.000 A 
ENDROOT
BRANCH   1  17
ATOM     14  C   UNL     1      12.135   1.373  31.515  0.00  0.00    +0.000 A 
ATOM     15  C   UNL     1      12.697   0.180  31.125  0.00  0.00    +0.000 A 
ATOM     16  C   UNL     1      12.635  -0.214  29.806  0.00  0.00    +0.000 A 
ATOM     17  C   UNL     1      12.015   0.596  28.923  0.00  0.00    +0.000 A 
ATOM     18  C   UNL     1      11.438   1.790  29.244  0.00  0.00    +0.000 A 
ATOM     19  C   UNL     1      11.501   2.185  30.573  0.00  0.00    +0.000 A 
BRANCH  18  20
ATOM     20  C   UNL     1      10.759   2.676  28.274  0.00  0.00    +0.000 C 
ATOM     21  C   UNL     1       9.545   3.344  28.860  0.00  0.00    +0.000 C 
ATOM     22  C   UNL     1      11.671   3.684  27.658  0.00  0.00    +0.000 C 
ENDBRANCH  18  20
BRANCH  14  24
ATOM     23  C   UNL     1      13.142   2.724  33.262  0.00  0.00    +0.000 C 
ATOM     24  O   UNL     1      12.213   1.742  32.852  0.00  0.00    +0.000 OA
ENDBRANCH  14  24
ENDBRANCH   1  17
BRANCH  11  25
ATOM     25  O   UNL     1      19.059  -1.169  25.712  0.00  0.00    +0.000 OA
BRANCH  25  26
ATOM     26  C   UNL     1      19.024  -2.003  24.583  0.00  0.00    +0.000 C 
BRANCH  26  27
ATOM     27  C   UNL     1      19.788  -1.336  23.505  0.00  0.00    +0.000 A 
ATOM     28  C   UNL     1      20.167  -2.108  22.419  0.00  0.00    +0.000 A 
ATOM     29  C   UNL     1      20.889  -1.545  21.392  0.00  0.00    +0.000 A 
ATOM     30  C   UNL     1      21.257  -0.209  21.402  0.00  0.00    +0.000 A 
ATOM     31  C   UNL     1      20.871   0.542  22.490  0.00  0.00    +0.000 A 
ATOM     32  C   UNL     1      20.150  -0.018  23.518  0.00  0.00    +0.000 A 
ENDBRANCH  26  27
ENDBRANCH  25  26
ENDBRANCH  11  25
TORSDOF 6
ENDMDL
MODEL 3
REMARK VINA RESULT:      -7.8      2.197      3.114
REMARK  Name = 
REMARK  6 active torsions:
REMARK  status: ('A' for Active; 'I' for Inactive)
REMARK    1  A    between atoms: O_2  and  C_3
REMARK    2  A    between atoms: C_6  and  C_7
REMARK    3  A    between atoms: C_17  and  O_18
REMARK    4  A    between atoms: O_18  and  C_19
REMARK    5  A    between atoms: C_19  and  C_20
REMARK    6  A    between atoms: C_28  and  C_29
REMARK                            x       y       z     vdW  Elec       q    Type
REMARK                         _______ _______ _______ _____ _____    ______ ____
ROOT
ATOM      1  C   UNL     1      36.996  -2.295  14.536  0.00  0.00    +0.000 C 
ATOM      2  N   UNL     1      38.041  -2.671  15.667  0.00  0.00    +0.000 NA
ATOM      3  C   UNL     1      39.343  -2.469  15.149  0.00  0.00    +0.000 C 
ATOM      4  C   UNL     1      39.700  -1.028  15.261  0.00  0.00    +0.000 C 
ATOM      5  C   UNL     1      38.535  -0.249  14.807  0.00  0.00    +0.000 A 
ATOM      6  C   UNL     1      37.355  -0.726  14.488  0.00  0.00    +0.000 A 
ATOM      7  N   UNL     1      36.474   0.239  14.099  0.00  0.00    +0.000 NA
ATOM      8  C   UNL     1      37.163   1.399  14.186  0.00  0.00    +0.000 A 
ATOM      9  C   UNL     1      36.834   2.715  13.933  0.00  0.00    +0.000 A 
ATOM     10  C   UNL     1      37.729   3.747  14.100  0.00  0.00    +0.000 A 
ATOM     11  C   UNL     1      39.024   3.489  14.540  0.00  0.00    +0.000 A 
ATOM     12  C   UNL     1      39.328   2.169  14.785  0.00  0.00    +0.000 A 
ATOM     13  C   UNL     1      38.458   1.120  14.629  0.00  0.00    +0.000 A 
ENDROOT
BRANCH   1  17
ATOM     14  C   UNL     1      33.589  -1.966  17.168  0.00  0.00    +0.000 A 
ATOM     15  C   UNL     1      34.550  -0.981  17.164  0.00  0.00    +0.000 A 
ATOM     16  C   UNL     1      35.640  -1.083  16.327  0.00  0.00    +0.000 A 
ATOM     17  C   UNL     1      35.732  -2.163  15.522  0.00  0.00    +0.000 A 
ATOM     18  C   UNL     1      34.816  -3.173  15.478  0.00  0.00    +0.000 A 
ATOM     19  C   UNL     1      33.719  -3.069  16.323  0.00  0.00    +0.000 A 
BRANCH  18  20
ATOM     20  C   UNL     1      34.920  -4.355  14.596  0.00  0.00    +0.000 C 
ATOM     21  C   UNL     1      35.547  -5.534  15.289  0.00  0.00    +0.000 C 
ATOM     22  C   UNL     1      33.620  -4.740  13.970  0.00  0.00    +0.000 C 
ENDBRANCH  18  20
BRANCH  14  24
ATOM     23  C   UNL     1      31.228  -2.291  17.624  0.00  0.00    +0.000 C 
ATOM     24  O   UNL     1      32.503  -1.835  18.024  0.00  0.00    +0.000 OA
ENDBRANCH  14  24
ENDBRANCH   1  17
BRANCH  11  25
ATOM     25  O   UNL     1      39.898   4.546  14.696  0.00  0.00    +0.000 OA
BRANCH  25  26
ATOM     26  C   UNL     1      39.405   5.764  15.189  0.00  0.00    +0.000 C 
BRANCH  26  27
ATOM     27  C   UNL     1      39.863   5.903  16.590  0.00  0.00    +0.000 A 
ATOM     28  C   UNL     1      38.940   5.653  17.592  0.00  0.00    +0.000 A 
ATOM     29  C   UNL     1      39.306   5.776  18.912  0.00  0.00    +0.000 A 
ATOM     30  C   UNL     1      40.588   6.147  19.286  0.00  0.00    +0.000 A 
ATOM     31  C   UNL     1      41.491   6.390  18.275  0.00  0.00    +0.000 A 
ATOM     32  C   UNL     1      41.129   6.269  16.955  0.00  0.00    +0.000 A 
ENDBRANCH  26  27
ENDBRANCH  25  26
ENDBRANCH  11  25
TORSDOF 6
ENDMDL
MODEL 4
REMARK VINA RESULT:      -7.8      2.188      8.310
REMARK  Name = 
REMARK  6 active torsions:
REMARK  status: ('A' for Active; 'I' for Inactive)
REMARK    1  A    between atoms: O_2  and  C_3
REMARK    2  A    between atoms: C_6  and  C_7
REMARK    3  A    between atoms: C_17  and  O_18
REMARK    4  A    between atoms: O_18  and  C_19
REMARK    5  A    between atoms: C_19  and  C_20
REMARK    6  A    between atoms: C_28  and  C_29
REMARK                            x       y       z     vdW  Elec       q    Type
REMARK                         _______ _______ _______ _____ _____    ______ ____
ROOT
ATOM      1  C   UNL     1      37.886   4.552  14.495  0.00  0.00    +0.000 C 
ATOM      2  N   UNL     1      36.460   4.488  15.185  0.00  0.00    +0.000 NA
ATOM      3  C   UNL     1      35.595   3.750  14.340  0.00  0.00    +0.000 C 
ATOM      4  C   UNL     1      35.802   2.294  14.573  0.00  0.00    +0.000 C 
ATOM      5  C   UNL     1      37.256   2.059  14.622  0.00  0.00    +0.000 A 
ATOM      6  C   UNL     1      38.195   2.975  14.597  0.00  0.00    +0.000 A 
ATOM      7  N   UNL     1      39.454   2.453  14.653  0.00  0.00    +0.000 NA
ATOM      8  C   UNL     1      39.277   1.115  14.717  0.00  0.00    +0.000 A 
ATOM      9  C   UNL     1      40.150   0.049  14.791  0.00  0.00    +0.000 A 
ATOM     10  C   UNL     1      39.720  -1.257  14.847  0.00  0.00    +0.000 A 
ATOM     11  C   UNL     1      38.359  -1.550  14.831  0.00  0.00    +0.000 A 
ATOM     12  C   UNL     1      37.509  -0.470  14.756  0.00  0.00    +0.000 A 
ATOM     13  C   UNL     1      37.907   0.842  14.699  0.00  0.00    +0.000 A 
ENDROOT
BRANCH   1  17
ATOM     14  C   UNL     1      40.060   5.714  18.040  0.00  0.00    +0.000 A 
ATOM     15  C   UNL     1      38.906   4.974  18.156  0.00  0.00    +0.000 A 
ATOM     16  C   UNL     1      38.209   4.602  17.027  0.00  0.00    +0.000 A 
ATOM     17  C   UNL     1      38.687   4.981  15.823  0.00  0.00    +0.000 A 
ATOM     18  C   UNL     1      39.822   5.715  15.639  0.00  0.00    +0.000 A 
ATOM     19  C   UNL     1      40.524   6.089  16.778  0.00  0.00    +0.000 A 
BRANCH  18  20
ATOM     20  C   UNL     1      40.344   6.130  14.320  0.00  0.00    +0.000 C 
ATOM     21  C   UNL     1      40.271   7.618  14.117  0.00  0.00    +0.000 C 
ATOM     22  C   UNL     1      41.721   5.625  14.045  0.00  0.00    +0.000 C 
ENDBRANCH  18  20
BRANCH  14  24
ATOM     23  C   UNL     1      40.146   6.964  20.119  0.00  0.00    +0.000 C 
ATOM     24  O   UNL     1      40.740   6.074  19.197  0.00  0.00    +0.000 OA
ENDBRANCH  14  24
ENDBRANCH   1  17
BRANCH  11  25
ATOM     25  O   UNL     1      37.961  -2.870  14.888  0.00  0.00    +0.000 OA
BRANCH  25  26
ATOM     26  C   UNL     1      36.893  -3.218  15.731  0.00  0.00    +0.000 C 
BRANCH  26  27
ATOM     27  C   UNL     1      37.365  -3.100  17.128  0.00  0.00    +0.000 A 
ATOM     28  C   UNL     1      38.320  -4.005  17.559  0.00  0.00    +0.000 A 
ATOM     29  C   UNL     1      38.789  -3.951  18.851  0.00  0.00    +0.000 A 
ATOM     30  C   UNL     1      38.332  -3.006  19.757  0.00  0.00    +0.000 A 
ATOM     31  C   UNL     1      37.382  -2.115  19.310  0.00  0.00    +0.000 A 
ATOM     32  C   UNL     1      36.912  -2.167  18.019  0.00  0.00    +0.000 A 
ENDBRANCH  26  27
ENDBRANCH  25  26
ENDBRANCH  11  25
TORSDOF 6
ENDMDL
MODEL 5
REMARK VINA RESULT:      -7.7      1.961      3.039
REMARK  Name = 
REMARK  6 active torsions:
REMARK  status: ('A' for Active; 'I' for Inactive)
REMARK    1  A    between atoms: O_2  and  C_3
REMARK    2  A    between atoms: C_6  and  C_7
REMARK    3  A    between atoms: C_17  and  O_18
REMARK    4  A    between atoms: O_18  and  C_19
REMARK    5  A    between atoms: C_19  and  C_20
REMARK    6  A    between atoms: C_28  and  C_29
REMARK                            x       y       z     vdW  Elec       q    Type
REMARK                         _______ _______ _______ _____ _____    ______ ____
ROOT
ATOM      1  C   UNL     1      36.637   1.133  14.530  0.00  0.00    +0.000 C 
ATOM      2  N   UNL     1      37.635   1.190  13.299  0.00  0.00    +0.000 NA
ATOM      3  C   UNL     1      37.451   2.430  12.640  0.00  0.00    +0.000 C 
ATOM      4  C   UNL     1      38.224   3.485  13.350  0.00  0.00    +0.000 C 
ATOM      5  C   UNL     1      37.986   3.310  14.794  0.00  0.00    +0.000 A 
ATOM      6  C   UNL     1      37.323   2.329  15.361  0.00  0.00    +0.000 A 
ATOM      7  N   UNL     1      37.265   2.437  16.719  0.00  0.00    +0.000 NA
ATOM      8  C   UNL     1      37.943   3.569  17.011  0.00  0.00    +0.000 A 
ATOM      9  C   UNL     1      38.237   4.216  18.194  0.00  0.00    +0.000 A 
ATOM     10  C   UNL     1      38.961   5.386  18.237  0.00  0.00    +0.000 A 
ATOM     11  C   UNL     1      39.430   5.965  17.062  0.00  0.00    +0.000 A 
ATOM     12  C   UNL     1      39.124   5.302  15.896  0.00  0.00    +0.000 A 
ATOM     13  C   UNL     1      38.406   4.135  15.820  0.00  0.00    +0.000 A 
ENDROOT
BRANCH   1  17
ATOM     14  C   UNL     1      38.628  -2.100  16.588  0.00  0.00    +0.000 A 
ATOM     15  C   UNL     1      39.318  -1.345  15.667  0.00  0.00    +0.000 A 
ATOM     16  C   UNL     1      38.686  -0.314  15.007  0.00  0.00    +0.000 A 
ATOM     17  C   UNL     1      37.389  -0.071  15.289  0.00  0.00    +0.000 A 
ATOM     18  C   UNL     1      36.648  -0.780  16.190  0.00  0.00    +0.000 A 
ATOM     19  C   UNL     1      37.287  -1.819  16.853  0.00  0.00    +0.000 A 
BRANCH  18  20
ATOM     20  C   UNL     1      35.227  -0.512  16.497  0.00  0.00    +0.000 C 
ATOM     21  C   UNL     1      34.427  -1.775  16.656  0.00  0.00    +0.000 C 
ATOM     22  C   UNL     1      35.038   0.386  17.675  0.00  0.00    +0.000 C 
ENDBRANCH  18  20
BRANCH  14  24
ATOM     23  C   UNL     1      38.694  -3.777  18.341  0.00  0.00    +0.000 C 
ATOM     24  O   UNL     1      39.293  -3.133  17.236  0.00  0.00    +0.000 OA
ENDBRANCH  14  24
ENDBRANCH   1  17
BRANCH  11  25
ATOM     25  O   UNL     1      40.152   7.139  17.139  0.00  0.00    +0.000 OA
BRANCH  25  26
ATOM     26  C   UNL     1      40.259   7.787  18.381  0.00  0.00    +0.000 C 
BRANCH  26  27
ATOM     27  C   UNL     1      41.511   7.329  19.023  0.00  0.00    +0.000 A 
ATOM     28  C   UNL     1      42.665   7.348  18.258  0.00  0.00    +0.000 A 
ATOM     29  C   UNL     1      43.858   6.924  18.798  0.00  0.00    +0.000 A 
ATOM     30  C   UNL     1      43.950   6.470  20.104  0.00  0.00    +0.000 A 
ATOM     31  C   UNL     1      42.791   6.459  20.849  0.00  0.00    +0.000 A 
ATOM     32  C   UNL     1      41.599   6.882  20.312  0.00  0.00    +0.000 A 
ENDBRANCH  26  27
ENDBRANCH  25  26
ENDBRANCH  11  25
TORSDOF 6
ENDMDL
MODEL 6
REMARK VINA RESULT:      -7.5      2.933      4.726
REMARK  Name = 
REMARK  6 active torsions:
REMARK  status: ('A' for Active; 'I' for Inactive)
REMARK    1  A    between atoms: O_2  and  C_3
REMARK    2  A    between atoms: C_6  and  C_7
REMARK    3  A    between atoms: C_17  and  O_18
REMARK    4  A    between atoms: O_18  and  C_19
REMARK    5  A    between atoms: C_19  and  C_20
REMARK    6  A    between atoms: C_28  and  C_29
REMARK                            x       y       z     vdW  Elec       q    Type
REMARK                         _______ _______ _______ _____ _____    ______ ____
ROOT
ATOM      1  C   UNL     1      36.146   2.622  15.203  0.00  0.00    +0.000 C 
ATOM      2  N   UNL     1      36.483   3.138  13.742  0.00  0.00    +0.000 NA
ATOM      3  C   UNL     1      35.977   4.453  13.613  0.00  0.00    +0.000 C 
ATOM      4  C   UNL     1      36.946   5.416  14.205  0.00  0.00    +0.000 C 
ATOM      5  C   UNL     1      37.387   4.858  15.496  0.00  0.00    +0.000 A 
ATOM      6  C   UNL     1      37.086   3.675  15.977  0.00  0.00    +0.000 A 
ATOM      7  N   UNL     1      37.638   3.438  17.201  0.00  0.00    +0.000 NA
ATOM      8  C   UNL     1      38.333   4.560  17.497  0.00  0.00    +0.000 A 
ATOM      9  C   UNL     1      39.100   4.939  18.578  0.00  0.00    +0.000 A 
ATOM     10  C   UNL     1      39.722   6.164  18.651  0.00  0.00    +0.000 A 
ATOM     11  C   UNL     1      39.594   7.080  17.612  0.00  0.00    +0.000 A 
ATOM     12  C   UNL     1      38.822   6.680  16.544  0.00  0.00    +0.000 A 
ATOM     13  C   UNL     1      38.191   5.466  16.442  0.00  0.00    +0.000 A 
ENDROOT
BRANCH   1  17
ATOM     14  C   UNL     1      38.963  -0.651  15.197  0.00  0.00    +0.000 A 
ATOM     15  C   UNL     1      39.258   0.509  14.519  0.00  0.00    +0.000 A 
ATOM     16  C   UNL     1      38.361   1.555  14.517  0.00  0.00    +0.000 A 
ATOM     17  C   UNL     1      37.202   1.408  15.192  0.00  0.00    +0.000 A 
ATOM     18  C   UNL     1      36.849   0.286  15.884  0.00  0.00    +0.000 A 
ATOM     19  C   UNL     1      37.754  -0.767  15.884  0.00  0.00    +0.000 A 
BRANCH  18  20
ATOM     20  C   UNL     1      35.578   0.127  16.623  0.00  0.00    +0.000 C 
ATOM     21  C   UNL     1      34.984  -1.244  16.452  0.00  0.00    +0.000 C 
ATOM     22  C   UNL     1      35.689   0.479  18.069  0.00  0.00    +0.000 C 
ENDBRANCH  18  20
BRANCH  14  24
ATOM     23  C   UNL     1      39.707  -2.811  16.016  0.00  0.00    +0.000 C 
ATOM     24  O   UNL     1      39.888  -1.687  15.179  0.00  0.00    +0.000 OA
ENDBRANCH  14  24
ENDBRANCH   1  17
BRANCH  11  25
ATOM     25  O   UNL     1      40.229   8.301  17.716  0.00  0.00    +0.000 OA
BRANCH  25  26
ATOM     26  C   UNL     1      40.702   8.712  18.972  0.00  0.00    +0.000 C 
BRANCH  26  27
ATOM     27  C   UNL     1      39.806   9.782  19.464  0.00  0.00    +0.000 A 
ATOM     28  C   UNL     1      39.301  10.672  18.531  0.00  0.00    +0.000 A 
ATOM     29  C   UNL     1      38.470  11.693  18.931  0.00  0.00    +0.000 A 
ATOM     30  C   UNL     1      38.113  11.869  20.258  0.00  0.00    +0.000 A 
ATOM     31  C   UNL     1      38.625  10.975  21.171  0.00  0.00    +0.000 A 
ATOM     32  C   UNL     1      39.455   9.953  20.775  0.00  0.00    +0.000 A 
ENDBRANCH  26  27
ENDBRANCH  25  26
ENDBRANCH  11  25
TORSDOF 6
ENDMDL
MODEL 7
REMARK VINA RESULT:      -7.4      4.786      7.216
REMARK  Name = 
REMARK  6 active torsions:
REMARK  status: ('A' for Active; 'I' for Inactive)
REMARK    1  A    between atoms: O_2  and  C_3
REMARK    2  A    between atoms: C_6  and  C_7
REMARK    3  A    between atoms: C_17  and  O_18
REMARK    4  A    between atoms: O_18  and  C_19
REMARK    5  A    between atoms: C_19  and  C_20
REMARK    6  A    between atoms: C_28  and  C_29
REMARK                            x       y       z     vdW  Elec       q    Type
REMARK                         _______ _______ _______ _____ _____    ______ ____
ROOT
ATOM      1  C   UNL     1      43.337  -0.571  12.891  0.00  0.00    +0.000 C 
ATOM      2  N   UNL     1      43.247   0.983  13.192  0.00  0.00    +0.000 NA
ATOM      3  C   UNL     1      42.052   1.475  12.615  0.00  0.00    +0.000 C 
ATOM      4  C   UNL     1      40.912   1.204  13.534  0.00  0.00    +0.000 C 
ATOM      5  C   UNL     1      41.052  -0.183  14.012  0.00  0.00    +0.000 A 
ATOM      6  C   UNL     1      42.060  -0.990  13.777  0.00  0.00    +0.000 A 
ATOM      7  N   UNL     1      41.906  -2.219  14.349  0.00  0.00    +0.000 NA
ATOM      8  C   UNL     1      40.714  -2.165  14.983  0.00  0.00    +0.000 A 
ATOM      9  C   UNL     1      40.002  -3.076  15.736  0.00  0.00    +0.000 A 
ATOM     10  C   UNL     1      38.778  -2.780  16.292  0.00  0.00    +0.000 A 
ATOM     11  C   UNL     1      38.208  -1.524  16.108  0.00  0.00    +0.000 A 
ATOM     12  C   UNL     1      38.937  -0.634  15.353  0.00  0.00    +0.000 A 
ATOM     13  C   UNL     1      40.158  -0.898  14.787  0.00  0.00    +0.000 A 
ENDROOT
BRANCH   1  17
ATOM     14  C   UNL     1      46.329  -1.447  15.878  0.00  0.00    +0.000 A 
ATOM     15  C   UNL     1      45.370  -0.491  16.127  0.00  0.00    +0.000 A 
ATOM     16  C   UNL     1      44.415  -0.208  15.176  0.00  0.00    +0.000 A 
ATOM     17  C   UNL     1      44.448  -0.887  14.010  0.00  0.00    +0.000 A 
ATOM     18  C   UNL     1      45.370  -1.845  13.701  0.00  0.00    +0.000 A 
ATOM     19  C   UNL     1      46.332  -2.129  14.661  0.00  0.00    +0.000 A 
BRANCH  18  20
ATOM     20  C   UNL     1      45.404  -2.588  12.424  0.00  0.00    +0.000 C 
ATOM     21  C   UNL     1      46.801  -2.745  11.889  0.00  0.00    +0.000 C 
ATOM     22  C   UNL     1      44.713  -3.910  12.491  0.00  0.00    +0.000 C 
ENDBRANCH  18  20
BRANCH  14  24
ATOM     23  C   UNL     1      46.892  -2.312  18.075  0.00  0.00    +0.000 C 
ATOM     24  O   UNL     1      47.279  -1.709  16.857  0.00  0.00    +0.000 OA
ENDBRANCH  14  24
ENDBRANCH   1  17
BRANCH  11  25
ATOM     25  O   UNL     1      36.979  -1.260  16.678  0.00  0.00    +0.000 OA
BRANCH  25  26
ATOM     26  C   UNL     1      35.861  -1.117  15.840  0.00  0.00    +0.000 C 
BRANCH  26  27
ATOM     27  C   UNL     1      35.593   0.330  15.687  0.00  0.00    +0.000 A 
ATOM     28  C   UNL     1      35.959   0.925  14.491  0.00  0.00    +0.000 A 
ATOM     29  C   UNL     1      35.744   2.270  14.296  0.00  0.00    +0.000 A 
ATOM     30  C   UNL     1      35.163   3.068  15.269  0.00  0.00    +0.000 A 
ATOM     31  C   UNL     1      34.806   2.458  16.451  0.00  0.00    +0.000 A 
ATOM     32  C   UNL     1      35.020   1.115  16.649  0.00  0.00    +0.000 A 
ENDBRANCH  26  27
ENDBRANCH  25  26
ENDBRANCH  11  25
TORSDOF 6
ENDMDL
MODEL 8
REMARK VINA RESULT:      -7.4      5.554      8.237
REMARK  Name = 
REMARK  6 active torsions:
REMARK  status: ('A' for Active; 'I' for Inactive)
REMARK    1  A    between atoms: O_2  and  C_3
REMARK    2  A    between atoms: C_6  and  C_7
REMARK    3  A    between atoms: C_17  and  O_18
REMARK    4  A    between atoms: O_18  and  C_19
REMARK    5  A    between atoms: C_19  and  C_20
REMARK    6  A    between atoms: C_28  and  C_29
REMARK                            x       y       z     vdW  Elec       q    Type
REMARK                         _______ _______ _______ _____ _____    ______ ____
ROOT
ATOM      1  C   UNL     1      45.451  -0.755  13.898  0.00  0.00    +0.000 C 
ATOM      2  N   UNL     1      45.444   0.831  13.904  0.00  0.00    +0.000 NA
ATOM      3  C   UNL     1      44.749   1.273  12.753  0.00  0.00    +0.000 C 
ATOM      4  C   UNL     1      43.284   1.239  13.019  0.00  0.00    +0.000 C 
ATOM      5  C   UNL     1      42.986  -0.041  13.684  0.00  0.00    +0.000 A 
ATOM      6  C   UNL     1      43.862  -0.932  14.087  0.00  0.00    +0.000 A 
ATOM      7  N   UNL     1      43.286  -2.023  14.668  0.00  0.00    +0.000 NA
ATOM      8  C   UNL     1      41.956  -1.788  14.619  0.00  0.00    +0.000 A 
ATOM      9  C   UNL     1      40.854  -2.503  15.038  0.00  0.00    +0.000 A 
ATOM     10  C   UNL     1      39.567  -2.044  14.874  0.00  0.00    +0.000 A 
ATOM     11  C   UNL     1      39.333  -0.814  14.266  0.00  0.00    +0.000 A 
ATOM     12  C   UNL     1      40.448  -0.119  13.856  0.00  0.00    +0.000 A 
ATOM     13  C   UNL     1      41.742  -0.550  14.007  0.00  0.00    +0.000 A 
ENDROOT
BRANCH   1  17
ATOM     14  C   UNL     1      46.505  -1.226  18.059  0.00  0.00    +0.000 A 
ATOM     15  C   UNL     1      45.724  -0.164  17.666  0.00  0.00    +0.000 A 
ATOM     16  C   UNL     1      45.387  -0.009  16.338  0.00  0.00    +0.000 A 
ATOM     17  C   UNL     1      45.839  -0.919  15.451  0.00  0.00    +0.000 A 
ATOM     18  C   UNL     1      46.616  -1.993  15.774  0.00  0.00    +0.000 A 
ATOM     19  C   UNL     1      46.955  -2.147  17.112  0.00  0.00    +0.000 A 
BRANCH  18  20
ATOM     20  C   UNL     1      47.110  -2.989  14.800  0.00  0.00    +0.000 C 
ATOM     21  C   UNL     1      48.606  -2.950  14.650  0.00  0.00    +0.000 C 
ATOM     22  C   UNL     1      46.644  -4.378  15.087  0.00  0.00    +0.000 C 
ENDBRANCH  18  20
BRANCH  14  24
ATOM     23  C   UNL     1      46.459  -2.519  20.112  0.00  0.00    +0.000 C 
ATOM     24  O   UNL     1      46.829  -1.354  19.403  0.00  0.00    +0.000 OA
ENDBRANCH  14  24
ENDBRANCH   1  17
BRANCH  11  25
ATOM     25  O   UNL     1      38.031  -0.382  14.115  0.00  0.00    +0.000 OA
BRANCH  25  26
ATOM     26  C   UNL     1      37.011  -1.339  13.987  0.00  0.00    +0.000 C 
BRANCH  26  27
ATOM     27  C   UNL     1      36.126  -1.216  15.166  0.00  0.00    +0.000 A 
ATOM     28  C   UNL     1      35.556  -2.377  15.661  0.00  0.00    +0.000 A 
ATOM     29  C   UNL     1      34.716  -2.324  16.749  0.00  0.00    +0.000 A 
ATOM     30  C   UNL     1      34.412  -1.128  17.382  0.00  0.00    +0.000 A 
ATOM     31  C   UNL     1      34.988   0.015  16.875  0.00  0.00    +0.000 A 
ATOM     32  C   UNL     1      35.828  -0.035  15.788  0.00  0.00    +0.000 A 
ENDBRANCH  26  27
ENDBRANCH  25  26
ENDBRANCH  11  25
TORSDOF 6
ENDMDL
MODEL 9
REMARK VINA RESULT:      -7.1      2.764      4.947
REMARK  Name = 
REMARK  6 active torsions:
REMARK  status: ('A' for Active; 'I' for Inactive)
REMARK    1  A    between atoms: O_2  and  C_3
REMARK    2  A    between atoms: C_6  and  C_7
REMARK    3  A    between atoms: C_17  and  O_18
REMARK    4  A    between atoms: O_18  and  C_19
REMARK    5  A    between atoms: C_19  and  C_20
REMARK    6  A    between atoms: C_28  and  C_29
REMARK                            x       y       z     vdW  Elec       q    Type
REMARK                         _______ _______ _______ _____ _____    ______ ____
ROOT
ATOM      1  C   UNL     1      37.641   3.348  14.179  0.00  0.00    +0.000 C 
ATOM      2  N   UNL     1      38.869   3.409  13.178  0.00  0.00    +0.000 NA
ATOM      3  C   UNL     1      39.093   4.764  12.838  0.00  0.00    +0.000 C 
ATOM      4  C   UNL     1      39.899   5.415  13.908  0.00  0.00    +0.000 C 
ATOM      5  C   UNL     1      39.325   5.005  15.202  0.00  0.00    +0.000 A 
ATOM      6  C   UNL     1      38.367   4.128  15.386  0.00  0.00    +0.000 A 
ATOM      7  N   UNL     1      38.042   3.958  16.700  0.00  0.00    +0.000 NA
ATOM      8  C   UNL     1      38.862   4.793  17.376  0.00  0.00    +0.000 A 
ATOM      9  C   UNL     1      39.024   5.079  18.716  0.00  0.00    +0.000 A 
ATOM     10  C   UNL     1      39.949   5.990  19.171  0.00  0.00    +0.000 A 
ATOM     11  C   UNL     1      40.770   6.666  18.274  0.00  0.00    +0.000 A 
ATOM     12  C   UNL     1      40.590   6.364  16.943  0.00  0.00    +0.000 A 
ATOM     13  C   UNL     1      39.677   5.461  16.459  0.00  0.00    +0.000 A 
ENDROOT
BRANCH   1  17
ATOM     14  C   UNL     1      38.427  -0.641  15.634  0.00  0.00    +0.000 A 
ATOM     15  C   UNL     1      39.385   0.023  14.904  0.00  0.00    +0.000 A 
ATOM     16  C   UNL     1      39.137   1.296  14.436  0.00  0.00    +0.000 A 
ATOM     17  C   UNL     1      37.944   1.861  14.714  0.00  0.00    +0.000 A 
ATOM     18  C   UNL     1      36.952   1.258  15.432  0.00  0.00    +0.000 A 
ATOM     19  C   UNL     1      37.204  -0.025  15.902  0.00  0.00    +0.000 A 
BRANCH  18  20
ATOM     20  C   UNL     1      35.646   1.879  15.735  0.00  0.00    +0.000 C 
ATOM     21  C   UNL     1      34.818   2.106  14.500  0.00  0.00    +0.000 C 
ATOM     22  C   UNL     1      34.864   1.134  16.766  0.00  0.00    +0.000 C 
ENDBRANCH  18  20
BRANCH  14  24
ATOM     23  C   UNL     1      39.505  -2.792  15.315  0.00  0.00    +0.000 C 
ATOM     24  O   UNL     1      38.706  -1.923  16.091  0.00  0.00    +0.000 OA
ENDBRANCH  14  24
ENDBRANCH   1  17
BRANCH  11  25
ATOM     25  O   UNL     1      41.687   7.575  18.762  0.00  0.00    +0.000 OA
BRANCH  25  26
ATOM     26  C   UNL     1      43.037   7.436  18.399  0.00  0.00    +0.000 C 
BRANCH  26  27
ATOM     27  C   UNL     1      43.759   6.863  19.556  0.00  0.00    +0.000 A 
ATOM     28  C   UNL     1      43.038   6.655  20.720  0.00  0.00    +0.000 A 
ATOM     29  C   UNL     1      43.659   6.134  21.832  0.00  0.00    +0.000 A 
ATOM     30  C   UNL     1      45.005   5.803  21.832  0.00  0.00    +0.000 A 
ATOM     31  C   UNL     1      45.705   6.017  20.665  0.00  0.00    +0.000 A 
ATOM     32  C   UNL     1      45.087   6.537  19.553  0.00  0.00    +0.000 A 
ENDBRANCH  26  27
ENDBRANCH  25  26
ENDBRANCH  11  25
TORSDOF 6
ENDMDL
MODEL 10
REMARK VINA RESULT:      -7.0      3.615      6.779
REMARK  Name = 
REMARK  6 active torsions:
REMARK  status: ('A' for Active; 'I' for Inactive)
REMARK    1  A    between atoms: O_2  and  C_3
REMARK    2  A    between atoms: C_6  and  C_7
REMARK    3  A    between atoms: C_17  and  O_18
REMARK    4  A    between atoms: O_18  and  C_19
REMARK    5  A    between atoms: C_19  and  C_20
REMARK    6  A    between atoms: C_28  and  C_29
REMARK                            x       y       z     vdW  Elec       q    Type
REMARK                         _______ _______ _______ _____ _____    ______ ____
ROOT
ATOM      1  C   UNL     1      39.385   5.396  13.927  0.00  0.00    +0.000 C 
ATOM      2  N   UNL     1      40.849   4.987  13.476  0.00  0.00    +0.000 NA
ATOM      3  C   UNL     1      41.679   6.128  13.586  0.00  0.00    +0.000 C 
ATOM      4  C   UNL     1      42.127   6.278  14.998  0.00  0.00    +0.000 C 
ATOM      5  C   UNL     1      40.950   6.066  15.858  0.00  0.00    +0.000 A 
ATOM      6  C   UNL     1      39.757   5.686  15.466  0.00  0.00    +0.000 A 
ATOM      7  N   UNL     1      38.865   5.577  16.493  0.00  0.00    +0.000 NA
ATOM      8  C   UNL     1      39.562   5.915  17.601  0.00  0.00    +0.000 A 
ATOM      9  C   UNL     1      39.229   6.001  18.936  0.00  0.00    +0.000 A 
ATOM     10  C   UNL     1      40.134   6.378  19.902  0.00  0.00    +0.000 A 
ATOM     11  C   UNL     1      41.444   6.690  19.553  0.00  0.00    +0.000 A 
ATOM     12  C   UNL     1      41.752   6.598  18.215  0.00  0.00    +0.000 A 
ATOM     13  C   UNL     1      40.873   6.225  17.229  0.00  0.00    +0.000 A 
ENDROOT
BRANCH   1  17
ATOM     14  C   UNL     1      37.942   1.369  14.518  0.00  0.00    +0.000 A 
ATOM     15  C   UNL     1      39.290   1.633  14.597  0.00  0.00    +0.000 A 
ATOM     16  C   UNL     1      39.755   2.916  14.408  0.00  0.00    +0.000 A 
ATOM     17  C   UNL     1      38.859   3.891  14.146  0.00  0.00    +0.000 A 
ATOM     18  C   UNL     1      37.512   3.697  14.054  0.00  0.00    +0.000 A 
ATOM     19  C   UNL     1      37.046   2.403  14.245  0.00  0.00    +0.000 A 
BRANCH  18  20
ATOM     20  C   UNL     1      36.532   4.766  13.767  0.00  0.00    +0.000 C 
ATOM     21  C   UNL     1      36.346   4.992  12.292  0.00  0.00    +0.000 C 
ATOM     22  C   UNL     1      35.217   4.557  14.441  0.00  0.00    +0.000 C 
ENDBRANCH  18  20
BRANCH  14  24
ATOM     23  C   UNL     1      36.166  -0.184  15.087  0.00  0.00    +0.000 C 
ATOM     24  O   UNL     1      37.505   0.065  14.713  0.00  0.00    +0.000 OA
ENDBRANCH  14  24
ENDBRANCH   1  17
BRANCH  11  25
ATOM     25  O   UNL     1      42.328   7.065  20.545  0.00  0.00    +0.000 OA
BRANCH  25  26
ATOM     26  C   UNL     1      43.637   7.425  20.184  0.00  0.00    +0.000 C 
BRANCH  26  27
ATOM     27  C   UNL     1      44.540   6.337  20.620  0.00  0.00    +0.000 A 
ATOM     28  C   UNL     1      44.116   5.535  21.666  0.00  0.00    +0.000 A 
ATOM     29  C   UNL     1      44.919   4.514  22.121  0.00  0.00    +0.000 A 
ATOM     30  C   UNL     1      46.159   4.253  21.561  0.00  0.00    +0.000 A 
ATOM     31  C   UNL     1      46.563   5.061  20.521  0.00  0.00    +0.000 A 
ATOM     32  C   UNL     1      45.764   6.081  20.065  0.00  0.00    +0.000 A 
ENDBRANCH  26  27
ENDBRANCH  25  26
ENDBRANCH  11  25
TORSDOF 6
ENDMDL
