MODEL 1
REMARK VINA RESULT:      -7.1      0.000      0.000
REMARK  Name = 
REMARK  4 active torsions:
REMARK  status: ('A' for Active; 'I' for Inactive)
REMARK    1  A    between atoms: O_2  and  C_3
REMARK    2  A    between atoms: C_5  and  C_6
REMARK    3  A    between atoms: N_8  and  N_9
REMARK    4  A    between atoms: C_10  and  C_12
REMARK                            x       y       z     vdW  Elec       q    Type
REMARK                         _______ _______ _______ _____ _____    ______ ____
ROOT
ATOM      1  C   UNL     1      16.407  10.898  34.332  0.00  0.00    +0.000 C 
ATOM      2  C   UNL     1      17.542  10.053  33.870  0.00  0.00    +0.000 C 
ATOM      3  N   UNL     1      16.177  10.927  35.600  0.00  0.00    +0.000 NA
ENDROOT
BRANCH   1   6
ATOM      4  C   UNL     1      14.106  13.465  32.800  0.00  0.00    +0.000 A 
ATOM      5  C   UNL     1      14.870  12.761  33.729  0.00  0.00    +0.000 A 
ATOM      6  C   UNL     1      15.599  11.655  33.381  0.00  0.00    +0.000 A 
ATOM      7  C   UNL     1      15.560  11.249  32.066  0.00  0.00    +0.000 A 
ATOM      8  C   UNL     1      14.810  11.925  31.106  0.00  0.00    +0.000 A 
ATOM      9  C   UNL     1      14.078  13.045  31.487  0.00  0.00    +0.000 A 
ATOM     10  O   UNL     1      13.308  13.758  30.557  0.00  0.00    +0.000 OA
BRANCH   4  12
ATOM     11  C   UNL     1      13.036  14.919  34.471  0.00  0.00    +0.000 C 
ATOM     12  O   UNL     1      13.362  14.586  33.136  0.00  0.00    +0.000 OA
ENDBRANCH   4  12
ENDBRANCH   1   6
BRANCH   3  13
ATOM     13  N   UNL     1      16.957  10.198  36.505  0.00  0.00    +0.000 NA
ATOM     14  C   UNL     1      17.781  10.924  37.400  0.00  0.00    +0.000 C 
ATOM     15  O   UNL     1      17.785  12.182  37.354  0.00  0.00    +0.000 OA
BRANCH  14  16
ATOM     16  C   UNL     1      18.635  10.274  38.384  0.00  0.00    +0.000 A 
ATOM     17  C   UNL     1      18.438  10.021  39.702  0.00  0.00    +0.000 A 
ATOM     18  C   UNL     1      19.565   9.380  40.167  0.00  0.00    +0.000 A 
ATOM     19  O   UNL     1      20.392   9.260  39.164  0.00  0.00    +0.000 OA
ATOM     20  C   UNL     1      19.885   9.773  38.093  0.00  0.00    +0.000 A 
ATOM     21  C   UNL     1      20.550   9.818  36.747  0.00  0.00    +0.000 C 
ENDBRANCH  14  16
ENDBRANCH   3  13
TORSDOF 4
ENDMDL
MODEL 2
REMARK VINA RESULT:      -6.8      1.804      2.855
REMARK  Name = 
REMARK  4 active torsions:
REMARK  status: ('A' for Active; 'I' for Inactive)
REMARK    1  A    between atoms: O_2  and  C_3
REMARK    2  A    between atoms: C_5  and  C_6
REMARK    3  A    between atoms: N_8  and  N_9
REMARK    4  A    between atoms: C_10  and  C_12
REMARK                            x       y       z     vdW  Elec       q    Type
REMARK                         _______ _______ _______ _____ _____    ______ ____
ROOT
ATOM      1  C   UNL     1      14.795  12.180  36.153  0.00  0.00    +0.000 C 
ATOM      2  C   UNL     1      13.713  12.250  37.174  0.00  0.00    +0.000 C 
ATOM      3  N   UNL     1      15.931  11.707  36.536  0.00  0.00    +0.000 NA
ENDROOT
BRANCH   1   6
ATOM      4  C   UNL     1      14.829  12.434  32.390  0.00  0.00    +0.000 A 
ATOM      5  C   UNL     1      15.063  11.981  33.686  0.00  0.00    +0.000 A 
ATOM      6  C   UNL     1      14.566  12.631  34.784  0.00  0.00    +0.000 A 
ATOM      7  C   UNL     1      13.812  13.764  34.571  0.00  0.00    +0.000 A 
ATOM      8  C   UNL     1      13.554  14.250  33.291  0.00  0.00    +0.000 A 
ATOM      9  C   UNL     1      14.073  13.570  32.195  0.00  0.00    +0.000 A 
ATOM     10  O   UNL     1      13.840  14.020  30.887  0.00  0.00    +0.000 OA
BRANCH   4  12
ATOM     11  C   UNL     1      16.039  10.568  31.337  0.00  0.00    +0.000 C 
ATOM     12  O   UNL     1      15.326  11.787  31.268  0.00  0.00    +0.000 OA
ENDBRANCH   4  12
ENDBRANCH   1   6
BRANCH   3  13
ATOM     13  N   UNL     1      16.142  11.277  37.851  0.00  0.00    +0.000 NA
ATOM     14  C   UNL     1      17.169  10.327  38.077  0.00  0.00    +0.000 C 
ATOM     15  O   UNL     1      17.848   9.907  37.105  0.00  0.00    +0.000 OA
BRANCH  14  16
ATOM     16  C   UNL     1      17.479   9.808  39.402  0.00  0.00    +0.000 A 
ATOM     17  C   UNL     1      16.729   9.089  40.273  0.00  0.00    +0.000 A 
ATOM     18  C   UNL     1      17.506   8.857  41.386  0.00  0.00    +0.000 A 
ATOM     19  O   UNL     1      18.667   9.417  41.181  0.00  0.00    +0.000 OA
ATOM     20  C   UNL     1      18.696   9.989  40.023  0.00  0.00    +0.000 A 
ATOM     21  C   UNL     1      19.867  10.733  39.446  0.00  0.00    +0.000 C 
ENDBRANCH  14  16
ENDBRANCH   3  13
TORSDOF 4
ENDMDL
MODEL 3
REMARK VINA RESULT:      -6.7      1.805      7.798
REMARK  Name = 
REMARK  4 active torsions:
REMARK  status: ('A' for Active; 'I' for Inactive)
REMARK    1  A    between atoms: O_2  and  C_3
REMARK    2  A    between atoms: C_5  and  C_6
REMARK    3  A    between atoms: N_8  and  N_9
REMARK    4  A    between atoms: C_10  and  C_12
REMARK                            x       y       z     vdW  Elec       q    Type
REMARK                         _______ _______ _______ _____ _____    ______ ____
ROOT
ATOM      1  C   UNL     1      17.480  10.385  36.066  0.00  0.00    +0.000 C 
ATOM      2  C   UNL     1      17.662   9.436  34.931  0.00  0.00    +0.000 C 
ATOM      3  N   UNL     1      16.973  11.537  35.789  0.00  0.00    +0.000 NA
ENDROOT
BRANCH   1   6
ATOM      4  C   UNL     1      17.402   9.722  39.778  0.00  0.00    +0.000 A 
ATOM      5  C   UNL     1      17.009  10.083  38.491  0.00  0.00    +0.000 A 
ATOM      6  C   UNL     1      17.864  10.013  37.423  0.00  0.00    +0.000 A 
ATOM      7  C   UNL     1      19.145   9.565  37.657  0.00  0.00    +0.000 A 
ATOM      8  C   UNL     1      19.578   9.194  38.928  0.00  0.00    +0.000 A 
ATOM      9  C   UNL     1      18.688   9.276  39.994  0.00  0.00    +0.000 A 
ATOM     10  O   UNL     1      19.077   8.914  41.292  0.00  0.00    +0.000 OA
BRANCH   4  12
ATOM     11  C   UNL     1      15.546   8.823  41.119  0.00  0.00    +0.000 C 
ATOM     12  O   UNL     1      16.548   9.788  40.869  0.00  0.00    +0.000 OA
ENDBRANCH   4  12
ENDBRANCH   1   6
BRANCH   3  13
ATOM     13  N   UNL     1      16.608  11.885  34.484  0.00  0.00    +0.000 NA
ATOM     14  C   UNL     1      15.239  12.143  34.229  0.00  0.00    +0.000 C 
ATOM     15  O   UNL     1      14.407  12.054  35.169  0.00  0.00    +0.000 OA
BRANCH  14  16
ATOM     16  C   UNL     1      14.742  12.514  32.910  0.00  0.00    +0.000 A 
ATOM     17  C   UNL     1      14.006  13.578  32.506  0.00  0.00    +0.000 A 
ATOM     18  C   UNL     1      13.810  13.446  31.149  0.00  0.00    +0.000 A 
ATOM     19  O   UNL     1      14.407  12.349  30.769  0.00  0.00    +0.000 OA
ATOM     20  C   UNL     1      14.970  11.767  31.775  0.00  0.00    +0.000 A 
ATOM     21  C   UNL     1      15.748  10.483  31.718  0.00  0.00    +0.000 C 
ENDBRANCH  14  16
ENDBRANCH   3  13
TORSDOF 4
ENDMDL
MODEL 4
REMARK VINA RESULT:      -6.6      2.123      8.125
REMARK  Name = 
REMARK  4 active torsions:
REMARK  status: ('A' for Active; 'I' for Inactive)
REMARK    1  A    between atoms: O_2  and  C_3
REMARK    2  A    between atoms: C_5  and  C_6
REMARK    3  A    between atoms: N_8  and  N_9
REMARK    4  A    between atoms: C_10  and  C_12
REMARK                            x       y       z     vdW  Elec       q    Type
REMARK                         _______ _______ _______ _____ _____    ______ ____
ROOT
ATOM      1  C   UNL     1      16.459  10.898  36.943  0.00  0.00    +0.000 C 
ATOM      2  C   UNL     1      15.127  11.531  37.150  0.00  0.00    +0.000 C 
ATOM      3  N   UNL     1      16.922  10.891  35.739  0.00  0.00    +0.000 NA
ENDROOT
BRANCH   1   6
ATOM      4  C   UNL     1      19.210   9.465  39.089  0.00  0.00    +0.000 A 
ATOM      5  C   UNL     1      18.532  10.022  38.007  0.00  0.00    +0.000 A 
ATOM      6  C   UNL     1      17.195  10.315  38.060  0.00  0.00    +0.000 A 
ATOM      7  C   UNL     1      16.525  10.043  39.232  0.00  0.00    +0.000 A 
ATOM      8  C   UNL     1      17.166   9.487  40.337  0.00  0.00    +0.000 A 
ATOM      9  C   UNL     1      18.524   9.199  40.255  0.00  0.00    +0.000 A 
ATOM     10  O   UNL     1      19.213   8.639  41.340  0.00  0.00    +0.000 OA
BRANCH   4  12
ATOM     11  C   UNL     1      21.491   9.891  38.271  0.00  0.00    +0.000 C 
ATOM     12  O   UNL     1      20.563   9.163  39.051  0.00  0.00    +0.000 OA
ENDBRANCH   4  12
ENDBRANCH   1   6
BRANCH   3  13
ATOM     13  N   UNL     1      16.209  11.451  34.675  0.00  0.00    +0.000 NA
ATOM     14  C   UNL     1      16.546  11.034  33.363  0.00  0.00    +0.000 C 
ATOM     15  O   UNL     1      17.461  10.185  33.200  0.00  0.00    +0.000 OA
BRANCH  14  16
ATOM     16  C   UNL     1      15.872  11.548  32.178  0.00  0.00    +0.000 A 
ATOM     17  C   UNL     1      16.138  12.629  31.405  0.00  0.00    +0.000 A 
ATOM     18  C   UNL     1      15.189  12.659  30.407  0.00  0.00    +0.000 A 
ATOM     19  O   UNL     1      14.396  11.638  30.585  0.00  0.00    +0.000 OA
ATOM     20  C   UNL     1      14.762  10.955  31.618  0.00  0.00    +0.000 A 
ATOM     21  C   UNL     1      14.086   9.714  32.128  0.00  0.00    +0.000 C 
ENDBRANCH  14  16
ENDBRANCH   3  13
TORSDOF 4
ENDMDL
MODEL 5
REMARK VINA RESULT:      -6.4      1.208      2.065
REMARK  Name = 
REMARK  4 active torsions:
REMARK  status: ('A' for Active; 'I' for Inactive)
REMARK    1  A    between atoms: O_2  and  C_3
REMARK    2  A    between atoms: C_5  and  C_6
REMARK    3  A    between atoms: N_8  and  N_9
REMARK    4  A    between atoms: C_10  and  C_12
REMARK                            x       y       z     vdW  Elec       q    Type
REMARK                         _______ _______ _______ _____ _____    ______ ____
ROOT
ATOM      1  C   UNL     1      16.764  10.871  35.110  0.00  0.00    +0.000 C 
ATOM      2  C   UNL     1      17.515   9.687  34.608  0.00  0.00    +0.000 C 
ATOM      3  N   UNL     1      16.871  11.143  36.365  0.00  0.00    +0.000 NA
ENDROOT
BRANCH   1   6
ATOM      4  C   UNL     1      15.385  12.549  32.026  0.00  0.00    +0.000 A 
ATOM      5  C   UNL     1      16.181  11.770  32.863  0.00  0.00    +0.000 A 
ATOM      6  C   UNL     1      15.947  11.678  34.209  0.00  0.00    +0.000 A 
ATOM      7  C   UNL     1      14.883  12.385  34.725  0.00  0.00    +0.000 A 
ATOM      8  C   UNL     1      14.063  13.175  33.922  0.00  0.00    +0.000 A 
ATOM      9  C   UNL     1      14.325  13.250  32.558  0.00  0.00    +0.000 A 
ATOM     10  O   UNL     1      13.527  14.032  31.710  0.00  0.00    +0.000 OA
BRANCH   4  12
ATOM     11  C   UNL     1      16.559  13.540  30.105  0.00  0.00    +0.000 C 
ATOM     12  O   UNL     1      15.609  12.653  30.661  0.00  0.00    +0.000 OA
ENDBRANCH   4  12
ENDBRANCH   1   6
BRANCH   3  13
ATOM     13  N   UNL     1      17.656  10.364  37.221  0.00  0.00    +0.000 NA
ATOM     14  C   UNL     1      18.692  11.012  37.938  0.00  0.00    +0.000 C 
ATOM     15  O   UNL     1      18.871  12.248  37.785  0.00  0.00    +0.000 OA
BRANCH  14  16
ATOM     16  C   UNL     1      19.573  10.304  38.857  0.00  0.00    +0.000 A 
ATOM     17  C   UNL     1      19.434  10.015  40.175  0.00  0.00    +0.000 A 
ATOM     18  C   UNL     1      20.562   9.325  40.561  0.00  0.00    +0.000 A 
ATOM     19  O   UNL     1      21.334   9.211  39.515  0.00  0.00    +0.000 OA
ATOM     20  C   UNL     1      20.790   9.774  38.488  0.00  0.00    +0.000 A 
ATOM     21  C   UNL     1      21.387   9.841  37.111  0.00  0.00    +0.000 C 
ENDBRANCH  14  16
ENDBRANCH   3  13
TORSDOF 4
ENDMDL
MODEL 6
REMARK VINA RESULT:      -6.4      1.826      2.754
REMARK  Name = 
REMARK  4 active torsions:
REMARK  status: ('A' for Active; 'I' for Inactive)
REMARK    1  A    between atoms: O_2  and  C_3
REMARK    2  A    between atoms: C_5  and  C_6
REMARK    3  A    between atoms: N_8  and  N_9
REMARK    4  A    between atoms: C_10  and  C_12
REMARK                            x       y       z     vdW  Elec       q    Type
REMARK                         _______ _______ _______ _____ _____    ______ ____
ROOT
ATOM      1  C   UNL     1      16.297  11.470  36.151  0.00  0.00    +0.000 C 
ATOM      2  C   UNL     1      15.244  11.891  37.117  0.00  0.00    +0.000 C 
ATOM      3  N   UNL     1      17.435  11.115  36.643  0.00  0.00    +0.000 NA
ENDROOT
BRANCH   1   6
ATOM      4  C   UNL     1      14.828  12.190  32.752  0.00  0.00    +0.000 A 
ATOM      5  C   UNL     1      15.054  12.214  34.127  0.00  0.00    +0.000 A 
ATOM      6  C   UNL     1      16.038  11.465  34.715  0.00  0.00    +0.000 A 
ATOM      7  C   UNL     1      16.816  10.673  33.899  0.00  0.00    +0.000 A 
ATOM      8  C   UNL     1      16.623  10.620  32.520  0.00  0.00    +0.000 A 
ATOM      9  C   UNL     1      15.616  11.392  31.950  0.00  0.00    +0.000 A 
ATOM     10  O   UNL     1      15.383  11.372  30.567  0.00  0.00    +0.000 OA
BRANCH   4  12
ATOM     11  C   UNL     1      13.789  14.353  32.214  0.00  0.00    +0.000 C 
ATOM     12  O   UNL     1      13.836  12.942  32.141  0.00  0.00    +0.000 OA
ENDBRANCH   4  12
ENDBRANCH   1   6
BRANCH   3  13
ATOM     13  N   UNL     1      17.674  11.124  38.021  0.00  0.00    +0.000 NA
ATOM     14  C   UNL     1      18.177   9.938  38.610  0.00  0.00    +0.000 C 
ATOM     15  O   UNL     1      18.391   8.930  37.887  0.00  0.00    +0.000 OA
BRANCH  14  16
ATOM     16  C   UNL     1      18.464   9.829  40.034  0.00  0.00    +0.000 A 
ATOM     17  C   UNL     1      19.634   9.918  40.714  0.00  0.00    +0.000 A 
ATOM     18  C   UNL     1      19.344   9.740  42.049  0.00  0.00    +0.000 A 
ATOM     19  O   UNL     1      18.057   9.553  42.152  0.00  0.00    +0.000 OA
ATOM     20  C   UNL     1      17.497   9.598  40.988  0.00  0.00    +0.000 A 
ATOM     21  C   UNL     1      16.030   9.426  40.718  0.00  0.00    +0.000 C 
ENDBRANCH  14  16
ENDBRANCH   3  13
TORSDOF 4
ENDMDL
MODEL 7
REMARK VINA RESULT:      -6.4      1.498      8.240
REMARK  Name = 
REMARK  4 active torsions:
REMARK  status: ('A' for Active; 'I' for Inactive)
REMARK    1  A    between atoms: O_2  and  C_3
REMARK    2  A    between atoms: C_5  and  C_6
REMARK    3  A    between atoms: N_8  and  N_9
REMARK    4  A    between atoms: C_10  and  C_12
REMARK                            x       y       z     vdW  Elec       q    Type
REMARK                         _______ _______ _______ _____ _____    ______ ____
ROOT
ATOM      1  C   UNL     1      17.514  10.436  36.329  0.00  0.00    +0.000 C 
ATOM      2  C   UNL     1      17.826   9.610  35.129  0.00  0.00    +0.000 C 
ATOM      3  N   UNL     1      16.894  11.549  36.128  0.00  0.00    +0.000 NA
ENDROOT
BRANCH   1   6
ATOM      4  C   UNL     1      19.492   9.120  39.258  0.00  0.00    +0.000 A 
ATOM      5  C   UNL     1      19.152   9.537  37.973  0.00  0.00    +0.000 A 
ATOM      6  C   UNL     1      17.898   9.994  37.665  0.00  0.00    +0.000 A 
ATOM      7  C   UNL     1      16.964  10.033  38.676  0.00  0.00    +0.000 A 
ATOM      8  C   UNL     1      17.263   9.625  39.975  0.00  0.00    +0.000 A 
ATOM      9  C   UNL     1      18.545   9.166  40.258  0.00  0.00    +0.000 A 
ATOM     10  O   UNL     1      18.894   8.745  41.550  0.00  0.00    +0.000 OA
BRANCH   4  12
ATOM     11  C   UNL     1      21.895   9.494  39.632  0.00  0.00    +0.000 C 
ATOM     12  O   UNL     1      20.758   8.655  39.585  0.00  0.00    +0.000 OA
ENDBRANCH   4  12
ENDBRANCH   1   6
BRANCH   3  13
ATOM     13  N   UNL     1      16.529  11.965  34.843  0.00  0.00    +0.000 NA
ATOM     14  C   UNL     1      15.150  12.149  34.576  0.00  0.00    +0.000 C 
ATOM     15  O   UNL     1      14.310  11.936  35.488  0.00  0.00    +0.000 OA
BRANCH  14  16
ATOM     16  C   UNL     1      14.653  12.580  33.277  0.00  0.00    +0.000 A 
ATOM     17  C   UNL     1      14.839  12.062  32.038  0.00  0.00    +0.000 A 
ATOM     18  C   UNL     1      14.144  12.858  31.154  0.00  0.00    +0.000 A 
ATOM     19  O   UNL     1      13.572  13.807  31.844  0.00  0.00    +0.000 OA
ATOM     20  C   UNL     1      13.845  13.682  33.100  0.00  0.00    +0.000 A 
ATOM     21  C   UNL     1      13.359  14.591  34.193  0.00  0.00    +0.000 C 
ENDBRANCH  14  16
ENDBRANCH   3  13
TORSDOF 4
ENDMDL
MODEL 8
REMARK VINA RESULT:      -6.4      2.476      3.677
REMARK  Name = 
REMARK  4 active torsions:
REMARK  status: ('A' for Active; 'I' for Inactive)
REMARK    1  A    between atoms: O_2  and  C_3
REMARK    2  A    between atoms: C_5  and  C_6
REMARK    3  A    between atoms: N_8  and  N_9
REMARK    4  A    between atoms: C_10  and  C_12
REMARK                            x       y       z     vdW  Elec       q    Type
REMARK                         _______ _______ _______ _____ _____    ______ ____
ROOT
ATOM      1  C   UNL     1      17.898  10.231  36.182  0.00  0.00    +0.000 C 
ATOM      2  C   UNL     1      18.122   8.957  35.443  0.00  0.00    +0.000 C 
ATOM      3  N   UNL     1      18.781  10.558  37.063  0.00  0.00    +0.000 NA
ENDROOT
BRANCH   1   6
ATOM      4  C   UNL     1      15.168  12.141  34.415  0.00  0.00    +0.000 A 
ATOM      5  C   UNL     1      16.287  11.344  34.646  0.00  0.00    +0.000 A 
ATOM      6  C   UNL     1      16.729  11.060  35.911  0.00  0.00    +0.000 A 
ATOM      7  C   UNL     1      16.025  11.589  36.969  0.00  0.00    +0.000 A 
ATOM      8  C   UNL     1      14.900  12.389  36.782  0.00  0.00    +0.000 A 
ATOM      9  C   UNL     1      14.474  12.662  35.486  0.00  0.00    +0.000 A 
ATOM     10  O   UNL     1      13.347  13.462  35.247  0.00  0.00    +0.000 OA
BRANCH   4  12
ATOM     11  C   UNL     1      15.483  12.228  31.977  0.00  0.00    +0.000 C 
ATOM     12  O   UNL     1      14.708  12.437  33.141  0.00  0.00    +0.000 OA
ENDBRANCH   4  12
ENDBRANCH   1   6
BRANCH   3  13
ATOM     13  N   UNL     1      19.898   9.757  37.317  0.00  0.00    +0.000 NA
ATOM     14  C   UNL     1      21.067  10.390  37.808  0.00  0.00    +0.000 C 
ATOM     15  O   UNL     1      21.062  11.634  37.999  0.00  0.00    +0.000 OA
BRANCH  14  16
ATOM     16  C   UNL     1      22.290   9.658  38.109  0.00  0.00    +0.000 A 
ATOM     17  C   UNL     1      22.675   8.992  39.225  0.00  0.00    +0.000 A 
ATOM     18  C   UNL     1      23.929   8.477  38.980  0.00  0.00    +0.000 A 
ATOM     19  O   UNL     1      24.269   8.825  37.769  0.00  0.00    +0.000 OA
ATOM     20  C   UNL     1      23.332   9.523  37.218  0.00  0.00    +0.000 A 
ATOM     21  C   UNL     1      23.372  10.095  35.829  0.00  0.00    +0.000 C 
ENDBRANCH  14  16
ENDBRANCH   3  13
TORSDOF 4
ENDMDL
MODEL 9
REMARK VINA RESULT:      -6.3      3.162      4.310
REMARK  Name = 
REMARK  4 active torsions:
REMARK  status: ('A' for Active; 'I' for Inactive)
REMARK    1  A    between atoms: O_2  and  C_3
REMARK    2  A    between atoms: C_5  and  C_6
REMARK    3  A    between atoms: N_8  and  N_9
REMARK    4  A    between atoms: C_10  and  C_12
REMARK                            x       y       z     vdW  Elec       q    Type
REMARK                         _______ _______ _______ _____ _____    ______ ____
ROOT
ATOM      1  C   UNL     1      17.588   9.941  37.574  0.00  0.00    +0.000 C 
ATOM      2  C   UNL     1      18.903   9.307  37.870  0.00  0.00    +0.000 C 
ATOM      3  N   UNL     1      16.800  10.146  38.574  0.00  0.00    +0.000 NA
ENDROOT
BRANCH   1   6
ATOM      4  C   UNL     1      15.828  11.447  34.598  0.00  0.00    +0.000 A 
ATOM      5  C   UNL     1      16.156  11.113  35.910  0.00  0.00    +0.000 A 
ATOM      6  C   UNL     1      17.222  10.308  36.210  0.00  0.00    +0.000 A 
ATOM      7  C   UNL     1      17.979   9.828  35.164  0.00  0.00    +0.000 A 
ATOM      8  C   UNL     1      17.685  10.139  33.837  0.00  0.00    +0.000 A 
ATOM      9  C   UNL     1      16.596  10.959  33.562  0.00  0.00    +0.000 A 
ATOM     10  O   UNL     1      16.261  11.299  32.243  0.00  0.00    +0.000 OA
BRANCH   4  12
ATOM     11  C   UNL     1      14.297  13.300  35.122  0.00  0.00    +0.000 C 
ATOM     12  O   UNL     1      14.752  12.261  34.277  0.00  0.00    +0.000 OA
ENDBRANCH   4  12
ENDBRANCH   1   6
BRANCH   3  13
ATOM     13  N   UNL     1      17.159   9.791  39.878  0.00  0.00    +0.000 NA
ATOM     14  C   UNL     1      16.117   9.541  40.804  0.00  0.00    +0.000 C 
ATOM     15  O   UNL     1      14.920   9.644  40.431  0.00  0.00    +0.000 OA
BRANCH  14  16
ATOM     16  C   UNL     1      16.371   9.164  42.188  0.00  0.00    +0.000 A 
ATOM     17  C   UNL     1      16.367   9.902  43.325  0.00  0.00    +0.000 A 
ATOM     18  C   UNL     1      16.672   9.052  44.365  0.00  0.00    +0.000 A 
ATOM     19  O   UNL     1      16.849   7.861  43.861  0.00  0.00    +0.000 OA
ATOM     20  C   UNL     1      16.681   7.880  42.581  0.00  0.00    +0.000 A 
ATOM     21  C   UNL     1      16.803   6.694  41.667  0.00  0.00    +0.000 C 
ENDBRANCH  14  16
ENDBRANCH   3  13
TORSDOF 4
ENDMDL
MODEL 10
REMARK VINA RESULT:      -6.3     28.418     30.824
REMARK  Name = 
REMARK  4 active torsions:
REMARK  status: ('A' for Active; 'I' for Inactive)
REMARK    1  A    between atoms: O_2  and  C_3
REMARK    2  A    between atoms: C_5  and  C_6
REMARK    3  A    between atoms: N_8  and  N_9
REMARK    4  A    between atoms: C_10  and  C_12
REMARK                            x       y       z     vdW  Elec       q    Type
REMARK                         _______ _______ _______ _____ _____    ______ ____
ROOT
ATOM      1  C   UNL     1      32.690  22.189  10.649  0.00  0.00    +0.000 C 
ATOM      2  C   UNL     1      32.055  22.374   9.315  0.00  0.00    +0.000 C 
ATOM      3  N   UNL     1      31.978  22.490  11.682  0.00  0.00    +0.000 NA
ENDROOT
BRANCH   1   6
ATOM      4  C   UNL     1      35.686  20.064  11.505  0.00  0.00    +0.000 A 
ATOM      5  C   UNL     1      34.373  20.518  11.406  0.00  0.00    +0.000 A 
ATOM      6  C   UNL     1      34.055  21.688  10.768  0.00  0.00    +0.000 A 
ATOM      7  C   UNL     1      35.084  22.417  10.215  0.00  0.00    +0.000 A 
ATOM      8  C   UNL     1      36.411  21.998  10.291  0.00  0.00    +0.000 A 
ATOM      9  C   UNL     1      36.705  20.806  10.946  0.00  0.00    +0.000 A 
ATOM     10  O   UNL     1      38.025  20.343  11.049  0.00  0.00    +0.000 OA
BRANCH   4  12
ATOM     11  C   UNL     1      36.040  18.751  13.555  0.00  0.00    +0.000 C 
ATOM     12  O   UNL     1      36.025  18.883  12.148  0.00  0.00    +0.000 OA
ENDBRANCH   4  12
ENDBRANCH   1   6
BRANCH   3  13
ATOM     13  N   UNL     1      30.670  22.969  11.558  0.00  0.00    +0.000 NA
ATOM     14  C   UNL     1      29.738  22.608  12.562  0.00  0.00    +0.000 C 
ATOM     15  O   UNL     1      30.110  21.879  13.519  0.00  0.00    +0.000 OA
BRANCH  14  16
ATOM     16  C   UNL     1      28.350  23.048  12.539  0.00  0.00    +0.000 A 
ATOM     17  C   UNL     1      27.307  22.657  11.766  0.00  0.00    +0.000 A 
ATOM     18  C   UNL     1      26.211  23.394  12.156  0.00  0.00    +0.000 A 
ATOM     19  O   UNL     1      26.592  24.187  13.121  0.00  0.00    +0.000 OA
ATOM     20  C   UNL     1      27.846  24.017  13.379  0.00  0.00    +0.000 A 
ATOM     21  C   UNL     1      28.629  24.755  14.427  0.00  0.00    +0.000 C 
ENDBRANCH  14  16
ENDBRANCH   3  13
TORSDOF 4
ENDMDL
