MODEL 1
REMARK VINA RESULT:      -8.2      0.000      0.000
REMARK  Name = 
REMARK  5 active torsions:
REMARK  status: ('A' for Active; 'I' for Inactive)
REMARK    1  A    between atoms: C_5  and  C_6
REMARK    2  A    between atoms: C_6  and  C_7
REMARK    3  A    between atoms: C_7  and  N_8
REMARK    4  A    between atoms: C_11  and  C_12
REMARK    5  A    between atoms: C_14  and  C_15
REMARK                            x       y       z     vdW  Elec       q    Type
REMARK                         _______ _______ _______ _____ _____    ______ ____
ROOT
ATOM      1  N   UNL     1      34.983  -0.254  17.608  0.00  0.00    +0.000 NA
ATOM      2  C   UNL     1      35.226  -1.315  16.665  0.00  0.00    +0.000 C 
ATOM      3  C   UNL     1      35.693  -2.549  17.363  0.00  0.00    +0.000 C 
ATOM      4  C   UNL     1      36.998  -2.306  18.072  0.00  0.00    +0.000 C 
ATOM      5  C   UNL     1      37.051  -0.902  18.620  0.00  0.00    +0.000 C 
ATOM      6  C   UNL     1      35.626  -0.467  18.887  0.00  0.00    +0.000 C 
ENDROOT
BRANCH   4   7
ATOM      7  C   UNL     1      38.173  -2.607  17.207  0.00  0.00    +0.000 A 
ATOM      8  C   UNL     1      38.694  -1.902  16.144  0.00  0.00    +0.000 A 
ATOM      9  C   UNL     1      39.796  -2.553  15.634  0.00  0.00    +0.000 A 
ATOM     10  N   UNL     1      39.931  -3.656  16.399  0.00  0.00    +0.000 NA
ATOM     11  N   UNL     1      38.977  -3.690  17.326  0.00  0.00    +0.000 NA
BRANCH   9  12
ATOM     12  C   UNL     1      40.639  -2.153  14.512  0.00  0.00    +0.000 A 
ATOM     13  C   UNL     1      41.488  -1.071  14.584  0.00  0.00    +0.000 A 
ATOM     14  C   UNL     1      42.285  -0.708  13.494  0.00  0.00    +0.000 A 
ATOM     15  C   UNL     1      42.247  -1.421  12.315  0.00  0.00    +0.000 A 
ATOM     16  C   UNL     1      41.393  -2.505  12.252  0.00  0.00    +0.000 A 
ATOM     17  C   UNL     1      40.608  -2.858  13.330  0.00  0.00    +0.000 A 
ATOM     18  O   UNL     1      41.347  -3.225  11.075  0.00  0.00    +0.000 OA
ATOM     19  C   UNL     1      41.963  -2.807   9.883  0.00  0.00    +0.000 C 
ATOM     20  C   UNL     1      42.563  -1.442   9.931  0.00  0.00    +0.000 C 
ATOM     21  O   UNL     1      43.039  -1.071  11.215  0.00  0.00    +0.000 OA
ENDBRANCH   9  12
ENDBRANCH   4   7
BRANCH   1  22
ATOM     22  C   UNL     1      35.307   1.010  17.008  0.00  0.00    +0.000 C 
BRANCH  22  23
ATOM     23  C   UNL     1      35.619   0.870  15.535  0.00  0.00    +0.000 C 
BRANCH  23  28
ATOM     24  C   UNL     1      39.067   0.272  11.887  0.00  0.00    +0.000 A 
ATOM     25  C   UNL     1      37.927  -0.419  12.239  0.00  0.00    +0.000 A 
ATOM     26  C   UNL     1      37.208   0.043  13.324  0.00  0.00    +0.000 A 
ATOM     27  C   UNL     1      37.592   1.153  14.047  0.00  0.00    +0.000 A 
ATOM     28  C   UNL     1      36.842   1.576  15.123  0.00  0.00    +0.000 A 
ATOM     29  C   UNL     1      37.239   2.683  15.834  0.00  0.00    +0.000 A 
ATOM     30  C   UNL     1      38.377   3.351  15.460  0.00  0.00    +0.000 A 
ATOM     31  C   UNL     1      39.117   2.924  14.392  0.00  0.00    +0.000 A 
ATOM     32  C   UNL     1      38.740   1.818  13.664  0.00  0.00    +0.000 A 
ATOM     33  C   UNL     1      39.493   1.389  12.580  0.00  0.00    +0.000 A 
ENDBRANCH  23  28
ENDBRANCH  22  23
ENDBRANCH   1  22
TORSDOF 5
ENDMDL
MODEL 2
REMARK VINA RESULT:      -8.1      3.668      6.813
REMARK  Name = 
REMARK  5 active torsions:
REMARK  status: ('A' for Active; 'I' for Inactive)
REMARK    1  A    between atoms: C_5  and  C_6
REMARK    2  A    between atoms: C_6  and  C_7
REMARK    3  A    between atoms: C_7  and  N_8
REMARK    4  A    between atoms: C_11  and  C_12
REMARK    5  A    between atoms: C_14  and  C_15
REMARK                            x       y       z     vdW  Elec       q    Type
REMARK                         _______ _______ _______ _____ _____    ______ ____
ROOT
ATOM      1  N   UNL     1      36.275  -2.166  17.650  0.00  0.00    +0.000 NA
ATOM      2  C   UNL     1      36.712  -1.026  18.412  0.00  0.00    +0.000 C 
ATOM      3  C   UNL     1      35.585  -0.072  18.633  0.00  0.00    +0.000 C 
ATOM      4  C   UNL     1      35.069   0.466  17.326  0.00  0.00    +0.000 C 
ATOM      5  C   UNL     1      35.139  -0.592  16.253  0.00  0.00    +0.000 C 
ATOM      6  C   UNL     1      35.035  -1.938  16.938  0.00  0.00    +0.000 C 
ENDROOT
BRANCH   4   7
ATOM      7  C   UNL     1      35.766   1.716  16.916  0.00  0.00    +0.000 A 
ATOM      8  C   UNL     1      36.890   2.317  17.442  0.00  0.00    +0.000 A 
ATOM      9  C   UNL     1      37.185   3.469  16.745  0.00  0.00    +0.000 A 
ATOM     10  N   UNL     1      36.228   3.554  15.797  0.00  0.00    +0.000 NA
ATOM     11  N   UNL     1      35.392   2.524  15.896  0.00  0.00    +0.000 NA
BRANCH   9  12
ATOM     12  C   UNL     1      38.284   4.401  16.971  0.00  0.00    +0.000 A 
ATOM     13  C   UNL     1      39.054   4.889  15.940  0.00  0.00    +0.000 A 
ATOM     14  C   UNL     1      40.102   5.782  16.184  0.00  0.00    +0.000 A 
ATOM     15  C   UNL     1      40.398   6.201  17.463  0.00  0.00    +0.000 A 
ATOM     16  C   UNL     1      39.619   5.707  18.492  0.00  0.00    +0.000 A 
ATOM     17  C   UNL     1      38.587   4.826  18.245  0.00  0.00    +0.000 A 
ATOM     18  O   UNL     1      39.907   6.121  19.777  0.00  0.00    +0.000 OA
ATOM     19  C   UNL     1      41.057   6.852  20.119  0.00  0.00    +0.000 C 
ATOM     20  C   UNL     1      42.038   7.036  19.011  0.00  0.00    +0.000 C 
ATOM     21  O   UNL     1      41.443   7.095  17.724  0.00  0.00    +0.000 OA
ENDBRANCH   9  12
ENDBRANCH   4   7
BRANCH   1  22
ATOM     22  C   UNL     1      37.344  -2.624  16.807  0.00  0.00    +0.000 C 
BRANCH  22  23
ATOM     23  C   UNL     1      38.572  -1.752  16.933  0.00  0.00    +0.000 C 
BRANCH  23  28
ATOM     24  C   UNL     1      39.690   1.407  13.148  0.00  0.00    +0.000 A 
ATOM     25  C   UNL     1      38.854   1.492  14.241  0.00  0.00    +0.000 A 
ATOM     26  C   UNL     1      38.798   0.405  15.090  0.00  0.00    +0.000 A 
ATOM     27  C   UNL     1      39.541  -0.738  14.878  0.00  0.00    +0.000 A 
ATOM     28  C   UNL     1      39.451  -1.798  15.755  0.00  0.00    +0.000 A 
ATOM     29  C   UNL     1      40.197  -2.931  15.528  0.00  0.00    +0.000 A 
ATOM     30  C   UNL     1      41.020  -2.987  14.433  0.00  0.00    +0.000 A 
ATOM     31  C   UNL     1      41.102  -1.931  13.568  0.00  0.00    +0.000 A 
ATOM     32  C   UNL     1      40.366  -0.786  13.773  0.00  0.00    +0.000 A 
ATOM     33  C   UNL     1      40.453   0.283  12.893  0.00  0.00    +0.000 A 
ENDBRANCH  23  28
ENDBRANCH  22  23
ENDBRANCH   1  22
TORSDOF 5
ENDMDL
MODEL 3
REMARK VINA RESULT:      -7.9      4.823      8.658
REMARK  Name = 
REMARK  5 active torsions:
REMARK  status: ('A' for Active; 'I' for Inactive)
REMARK    1  A    between atoms: C_5  and  C_6
REMARK    2  A    between atoms: C_6  and  C_7
REMARK    3  A    between atoms: C_7  and  N_8
REMARK    4  A    between atoms: C_11  and  C_12
REMARK    5  A    between atoms: C_14  and  C_15
REMARK                            x       y       z     vdW  Elec       q    Type
REMARK                         _______ _______ _______ _____ _____    ______ ____
ROOT
ATOM      1  N   UNL     1      38.253   0.620  12.086  0.00  0.00    +0.000 NA
ATOM      2  C   UNL     1      37.451   1.745  12.490  0.00  0.00    +0.000 C 
ATOM      3  C   UNL     1      38.259   3.000  12.491  0.00  0.00    +0.000 C 
ATOM      4  C   UNL     1      39.391   2.913  13.478  0.00  0.00    +0.000 C 
ATOM      5  C   UNL     1      39.935   1.507  13.537  0.00  0.00    +0.000 C 
ATOM      6  C   UNL     1      39.676   0.865  12.191  0.00  0.00    +0.000 C 
ENDROOT
BRANCH   4   7
ATOM      7  C   UNL     1      39.003   3.414  14.826  0.00  0.00    +0.000 A 
ATOM      8  C   UNL     1      39.366   4.572  15.478  0.00  0.00    +0.000 A 
ATOM      9  C   UNL     1      38.767   4.629  16.718  0.00  0.00    +0.000 A 
ATOM     10  N   UNL     1      38.042   3.494  16.804  0.00  0.00    +0.000 NA
ATOM     11  N   UNL     1      38.180   2.777  15.692  0.00  0.00    +0.000 NA
BRANCH   9  12
ATOM     12  C   UNL     1      38.882   5.677  17.727  0.00  0.00    +0.000 A 
ATOM     13  C   UNL     1      39.653   5.522  18.857  0.00  0.00    +0.000 A 
ATOM     14  C   UNL     1      39.746   6.542  19.809  0.00  0.00    +0.000 A 
ATOM     15  C   UNL     1      39.072   7.733  19.646  0.00  0.00    +0.000 A 
ATOM     16  C   UNL     1      38.301   7.879  18.509  0.00  0.00    +0.000 A 
ATOM     17  C   UNL     1      38.213   6.869  17.573  0.00  0.00    +0.000 A 
ATOM     18  O   UNL     1      37.622   9.068  18.337  0.00  0.00    +0.000 OA
ATOM     19  C   UNL     1      37.509  10.051  19.335  0.00  0.00    +0.000 C 
ATOM     20  C   UNL     1      38.060   9.662  20.665  0.00  0.00    +0.000 C 
ATOM     21  O   UNL     1      39.155   8.763  20.590  0.00  0.00    +0.000 OA
ENDBRANCH   9  12
ENDBRANCH   4   7
BRANCH   1  22
ATOM     22  C   UNL     1      37.822  -0.559  12.785  0.00  0.00    +0.000 C 
BRANCH  22  23
ATOM     23  C   UNL     1      37.000  -0.218  14.007  0.00  0.00    +0.000 C 
BRANCH  23  28
ATOM     24  C   UNL     1      35.607  -0.194  18.867  0.00  0.00    +0.000 A 
ATOM     25  C   UNL     1      35.130   0.438  17.739  0.00  0.00    +0.000 A 
ATOM     26  C   UNL     1      35.776   0.191  16.544  0.00  0.00    +0.000 A 
ATOM     27  C   UNL     1      36.862  -0.655  16.452  0.00  0.00    +0.000 A 
ATOM     28  C   UNL     1      37.474  -0.871  15.236  0.00  0.00    +0.000 A 
ATOM     29  C   UNL     1      38.557  -1.716  15.162  0.00  0.00    +0.000 A 
ATOM     30  C   UNL     1      39.009  -2.332  16.301  0.00  0.00    +0.000 A 
ATOM     31  C   UNL     1      38.396  -2.111  17.504  0.00  0.00    +0.000 A 
ATOM     32  C   UNL     1      37.310  -1.270  17.603  0.00  0.00    +0.000 A 
ATOM     33  C   UNL     1      36.692  -1.050  18.826  0.00  0.00    +0.000 A 
ENDBRANCH  23  28
ENDBRANCH  22  23
ENDBRANCH   1  22
TORSDOF 5
ENDMDL
MODEL 4
REMARK VINA RESULT:      -7.6      5.151      8.898
REMARK  Name = 
REMARK  5 active torsions:
REMARK  status: ('A' for Active; 'I' for Inactive)
REMARK    1  A    between atoms: C_5  and  C_6
REMARK    2  A    between atoms: C_6  and  C_7
REMARK    3  A    between atoms: C_7  and  N_8
REMARK    4  A    between atoms: C_11  and  C_12
REMARK    5  A    between atoms: C_14  and  C_15
REMARK                            x       y       z     vdW  Elec       q    Type
REMARK                         _______ _______ _______ _____ _____    ______ ____
ROOT
ATOM      1  N   UNL     1      37.639   0.558  13.435  0.00  0.00    +0.000 NA
ATOM      2  C   UNL     1      36.730   1.524  13.996  0.00  0.00    +0.000 C 
ATOM      3  C   UNL     1      37.168   2.914  13.674  0.00  0.00    +0.000 C 
ATOM      4  C   UNL     1      38.517   3.207  14.272  0.00  0.00    +0.000 C 
ATOM      5  C   UNL     1      39.387   1.974  14.248  0.00  0.00    +0.000 C 
ATOM      6  C   UNL     1      38.927   1.120  13.086  0.00  0.00    +0.000 C 
ENDROOT
BRANCH   4   7
ATOM      7  C   UNL     1      38.414   3.784  15.641  0.00  0.00    +0.000 A 
ATOM      8  C   UNL     1      38.875   4.986  16.132  0.00  0.00    +0.000 A 
ATOM      9  C   UNL     1      38.554   5.110  17.467  0.00  0.00    +0.000 A 
ATOM     10  N   UNL     1      37.899   3.971  17.772  0.00  0.00    +0.000 NA
ATOM     11  N   UNL     1      37.815   3.189  16.700  0.00  0.00    +0.000 NA
BRANCH   9  12
ATOM     12  C   UNL     1      38.854   6.220  18.366  0.00  0.00    +0.000 A 
ATOM     13  C   UNL     1      39.757   6.103  19.398  0.00  0.00    +0.000 A 
ATOM     14  C   UNL     1      40.025   7.182  20.246  0.00  0.00    +0.000 A 
ATOM     15  C   UNL     1      39.395   8.396  20.075  0.00  0.00    +0.000 A 
ATOM     16  C   UNL     1      38.491   8.505  19.035  0.00  0.00    +0.000 A 
ATOM     17  C   UNL     1      38.230   7.436  18.203  0.00  0.00    +0.000 A 
ATOM     18  O   UNL     1      37.855   9.717  18.856  0.00  0.00    +0.000 OA
ATOM     19  C   UNL     1      37.923  10.775  19.778  0.00  0.00    +0.000 C 
ATOM     20  C   UNL     1      38.624  10.452  21.054  0.00  0.00    +0.000 C 
ATOM     21  O   UNL     1      39.653   9.486  20.914  0.00  0.00    +0.000 OA
ENDBRANCH   9  12
ENDBRANCH   4   7
BRANCH   1  22
ATOM     22  C   UNL     1      37.728  -0.584  14.302  0.00  0.00    +0.000 C 
BRANCH  22  23
ATOM     23  C   UNL     1      36.395  -0.911  14.938  0.00  0.00    +0.000 C 
BRANCH  23  28
ATOM     24  C   UNL     1      38.695  -3.400  18.689  0.00  0.00    +0.000 A 
ATOM     25  C   UNL     1      38.715  -3.521  17.316  0.00  0.00    +0.000 A 
ATOM     26  C   UNL     1      37.940  -2.644  16.584  0.00  0.00    +0.000 A 
ATOM     27  C   UNL     1      37.163  -1.671  17.178  0.00  0.00    +0.000 A 
ATOM     28  C   UNL     1      36.405  -0.818  16.405  0.00  0.00    +0.000 A 
ATOM     29  C   UNL     1      35.635   0.146  17.013  0.00  0.00    +0.000 A 
ATOM     30  C   UNL     1      35.636   0.243  18.381  0.00  0.00    +0.000 A 
ATOM     31  C   UNL     1      36.390  -0.608  19.141  0.00  0.00    +0.000 A 
ATOM     32  C   UNL     1      37.169  -1.581  18.556  0.00  0.00    +0.000 A 
ATOM     33  C   UNL     1      37.933  -2.442  19.331  0.00  0.00    +0.000 A 
ENDBRANCH  23  28
ENDBRANCH  22  23
ENDBRANCH   1  22
TORSDOF 5
ENDMDL
MODEL 5
REMARK VINA RESULT:      -7.5      4.631      7.953
REMARK  Name = 
REMARK  5 active torsions:
REMARK  status: ('A' for Active; 'I' for Inactive)
REMARK    1  A    between atoms: C_5  and  C_6
REMARK    2  A    between atoms: C_6  and  C_7
REMARK    3  A    between atoms: C_7  and  N_8
REMARK    4  A    between atoms: C_11  and  C_12
REMARK    5  A    between atoms: C_14  and  C_15
REMARK                            x       y       z     vdW  Elec       q    Type
REMARK                         _______ _______ _______ _____ _____    ______ ____
ROOT
ATOM      1  N   UNL     1      39.410   6.979  13.973  0.00  0.00    +0.000 NA
ATOM      2  C   UNL     1      39.499   5.565  13.715  0.00  0.00    +0.000 C 
ATOM      3  C   UNL     1      38.222   5.049  13.138  0.00  0.00    +0.000 C 
ATOM      4  C   UNL     1      37.082   5.232  14.102  0.00  0.00    +0.000 C 
ATOM      5  C   UNL     1      37.249   6.511  14.885  0.00  0.00    +0.000 C 
ATOM      6  C   UNL     1      38.048   7.466  14.024  0.00  0.00    +0.000 C 
ENDROOT
BRANCH   4   7
ATOM      7  C   UNL     1      36.905   4.055  14.996  0.00  0.00    +0.000 A 
ATOM      8  C   UNL     1      36.421   2.795  14.717  0.00  0.00    +0.000 A 
ATOM      9  C   UNL     1      36.435   2.016  15.854  0.00  0.00    +0.000 A 
ATOM     10  N   UNL     1      36.930   2.820  16.818  0.00  0.00    +0.000 NA
ATOM     11  N   UNL     1      37.208   4.020  16.316  0.00  0.00    +0.000 NA
BRANCH   9  12
ATOM     12  C   UNL     1      36.008   0.629  16.000  0.00  0.00    +0.000 A 
ATOM     13  C   UNL     1      35.096   0.240  16.955  0.00  0.00    +0.000 A 
ATOM     14  C   UNL     1      34.704  -1.097  17.075  0.00  0.00    +0.000 A 
ATOM     15  C   UNL     1      35.218  -2.067  16.240  0.00  0.00    +0.000 A 
ATOM     16  C   UNL     1      36.132  -1.668  15.284  0.00  0.00    +0.000 A 
ATOM     17  C   UNL     1      36.515  -0.347  15.172  0.00  0.00    +0.000 A 
ATOM     18  O   UNL     1      36.652  -2.632  14.444  0.00  0.00    +0.000 OA
ATOM     19  C   UNL     1      36.460  -4.011  14.631  0.00  0.00    +0.000 C 
ATOM     20  C   UNL     1      35.763  -4.384  15.896  0.00  0.00    +0.000 C 
ATOM     21  O   UNL     1      34.835  -3.409  16.347  0.00  0.00    +0.000 OA
ENDBRANCH   9  12
ENDBRANCH   4   7
BRANCH   1  22
ATOM     22  C   UNL     1      40.181   7.308  15.139  0.00  0.00    +0.000 C 
BRANCH  22  23
ATOM     23  C   UNL     1      40.724   6.073  15.821  0.00  0.00    +0.000 C 
BRANCH  23  28
ATOM     24  C   UNL     1      44.250   7.076  19.302  0.00  0.00    +0.000 A 
ATOM     25  C   UNL     1      44.270   6.991  17.926  0.00  0.00    +0.000 A 
ATOM     26  C   UNL     1      43.085   6.689  17.286  0.00  0.00    +0.000 A 
ATOM     27  C   UNL     1      41.908   6.474  17.972  0.00  0.00    +0.000 A 
ATOM     28  C   UNL     1      40.749   6.174  17.288  0.00  0.00    +0.000 A 
ATOM     29  C   UNL     1      39.584   5.961  17.987  0.00  0.00    +0.000 A 
ATOM     30  C   UNL     1      39.594   6.053  19.355  0.00  0.00    +0.000 A 
ATOM     31  C   UNL     1      40.748   6.350  20.026  0.00  0.00    +0.000 A 
ATOM     32  C   UNL     1      41.927   6.567  19.349  0.00  0.00    +0.000 A 
ATOM     33  C   UNL     1      43.096   6.869  20.034  0.00  0.00    +0.000 A 
ENDBRANCH  23  28
ENDBRANCH  22  23
ENDBRANCH   1  22
TORSDOF 5
ENDMDL
MODEL 6
REMARK VINA RESULT:      -7.4      4.618      7.962
REMARK  Name = 
REMARK  5 active torsions:
REMARK  status: ('A' for Active; 'I' for Inactive)
REMARK    1  A    between atoms: C_5  and  C_6
REMARK    2  A    between atoms: C_6  and  C_7
REMARK    3  A    between atoms: C_7  and  N_8
REMARK    4  A    between atoms: C_11  and  C_12
REMARK    5  A    between atoms: C_14  and  C_15
REMARK                            x       y       z     vdW  Elec       q    Type
REMARK                         _______ _______ _______ _____ _____    ______ ____
ROOT
ATOM      1  N   UNL     1      37.027   7.245  14.308  0.00  0.00    +0.000 NA
ATOM      2  C   UNL     1      37.654   5.969  14.537  0.00  0.00    +0.000 C 
ATOM      3  C   UNL     1      37.131   4.943  13.587  0.00  0.00    +0.000 C 
ATOM      4  C   UNL     1      35.654   4.729  13.782  0.00  0.00    +0.000 C 
ATOM      5  C   UNL     1      34.976   6.025  14.151  0.00  0.00    +0.000 C 
ATOM      6  C   UNL     1      35.795   7.150  13.554  0.00  0.00    +0.000 C 
ENDROOT
BRANCH   4   7
ATOM      7  C   UNL     1      35.366   3.653  14.771  0.00  0.00    +0.000 A 
ATOM      8  C   UNL     1      36.189   2.672  15.276  0.00  0.00    +0.000 A 
ATOM      9  C   UNL     1      35.499   1.886  16.174  0.00  0.00    +0.000 A 
ATOM     10  N   UNL     1      34.254   2.404  16.201  0.00  0.00    +0.000 NA
ATOM     11  N   UNL     1      34.173   3.444  15.376  0.00  0.00    +0.000 NA
BRANCH   9  12
ATOM     12  C   UNL     1      35.992   0.741  16.933  0.00  0.00    +0.000 A 
ATOM     13  C   UNL     1      35.677   0.552  18.260  0.00  0.00    +0.000 A 
ATOM     14  C   UNL     1      36.163  -0.553  18.965  0.00  0.00    +0.000 A 
ATOM     15  C   UNL     1      36.971  -1.489  18.354  0.00  0.00    +0.000 A 
ATOM     16  C   UNL     1      37.280  -1.292  17.022  0.00  0.00    +0.000 A 
ATOM     17  C   UNL     1      36.798  -0.199  16.332  0.00  0.00    +0.000 A 
ATOM     18  O   UNL     1      38.088  -2.224  16.401  0.00  0.00    +0.000 OA
ATOM     19  C   UNL     1      38.769  -3.242  17.089  0.00  0.00    +0.000 C 
ATOM     20  C   UNL     1      38.676  -3.169  18.575  0.00  0.00    +0.000 C 
ATOM     21  O   UNL     1      37.464  -2.601  19.045  0.00  0.00    +0.000 OA
ENDBRANCH   9  12
ENDBRANCH   4   7
BRANCH   1  22
ATOM     22  C   UNL     1      36.885   7.945  15.553  0.00  0.00    +0.000 C 
BRANCH  22  23
ATOM     23  C   UNL     1      38.223   8.370  16.115  0.00  0.00    +0.000 C 
BRANCH  23  28
ATOM     24  C   UNL     1      41.495   6.353  19.399  0.00  0.00    +0.000 A 
ATOM     25  C   UNL     1      41.455   6.431  18.023  0.00  0.00    +0.000 A 
ATOM     26  C   UNL     1      40.378   7.075  17.448  0.00  0.00    +0.000 A 
ATOM     27  C   UNL     1      39.363   7.631  18.199  0.00  0.00    +0.000 A 
ATOM     28  C   UNL     1      38.306   8.264  17.579  0.00  0.00    +0.000 A 
ATOM     29  C   UNL     1      37.302   8.811  18.342  0.00  0.00    +0.000 A 
ATOM     30  C   UNL     1      37.368   8.719  19.709  0.00  0.00    +0.000 A 
ATOM     31  C   UNL     1      38.419   8.088  20.315  0.00  0.00    +0.000 A 
ATOM     32  C   UNL     1      39.437   7.533  19.574  0.00  0.00    +0.000 A 
ATOM     33  C   UNL     1      40.502   6.894  20.194  0.00  0.00    +0.000 A 
ENDBRANCH  23  28
ENDBRANCH  22  23
ENDBRANCH   1  22
TORSDOF 5
ENDMDL
MODEL 7
REMARK VINA RESULT:      -7.4      5.516      8.762
REMARK  Name = 
REMARK  5 active torsions:
REMARK  status: ('A' for Active; 'I' for Inactive)
REMARK    1  A    between atoms: C_5  and  C_6
REMARK    2  A    between atoms: C_6  and  C_7
REMARK    3  A    between atoms: C_7  and  N_8
REMARK    4  A    between atoms: C_11  and  C_12
REMARK    5  A    between atoms: C_14  and  C_15
REMARK                            x       y       z     vdW  Elec       q    Type
REMARK                         _______ _______ _______ _____ _____    ______ ____
ROOT
ATOM      1  N   UNL     1      36.078   2.765  14.349  0.00  0.00    +0.000 NA
ATOM      2  C   UNL     1      36.091   4.109  14.867  0.00  0.00    +0.000 C 
ATOM      3  C   UNL     1      37.354   4.810  14.491  0.00  0.00    +0.000 C 
ATOM      4  C   UNL     1      38.552   4.118  15.081  0.00  0.00    +0.000 C 
ATOM      5  C   UNL     1      38.340   2.624  15.109  0.00  0.00    +0.000 C 
ATOM      6  C   UNL     1      37.391   2.281  13.982  0.00  0.00    +0.000 C 
ENDROOT
BRANCH   4   7
ATOM      7  C   UNL     1      38.906   4.652  16.426  0.00  0.00    +0.000 A 
ATOM      8  C   UNL     1      39.828   5.612  16.782  0.00  0.00    +0.000 A 
ATOM      9  C   UNL     1      39.822   5.794  18.148  0.00  0.00    +0.000 A 
ATOM     10  N   UNL     1      38.890   4.934  18.608  0.00  0.00    +0.000 NA
ATOM     11  N   UNL     1      38.349   4.261  17.596  0.00  0.00    +0.000 NA
BRANCH   9  12
ATOM     12  C   UNL     1      40.640   6.708  18.938  0.00  0.00    +0.000 A 
ATOM     13  C   UNL     1      40.614   8.070  18.740  0.00  0.00    +0.000 A 
ATOM     14  C   UNL     1      41.409   8.925  19.510  0.00  0.00    +0.000 A 
ATOM     15  C   UNL     1      42.242   8.432  20.491  0.00  0.00    +0.000 A 
ATOM     16  C   UNL     1      42.261   7.064  20.683  0.00  0.00    +0.000 A 
ATOM     17  C   UNL     1      41.476   6.226  19.920  0.00  0.00    +0.000 A 
ATOM     18  O   UNL     1      43.093   6.561  21.664  0.00  0.00    +0.000 OA
ATOM     19  C   UNL     1      44.058   7.330  22.335  0.00  0.00    +0.000 C 
ATOM     20  C   UNL     1      44.229   8.717  21.816  0.00  0.00    +0.000 C 
ATOM     21  O   UNL     1      43.043   9.275  21.271  0.00  0.00    +0.000 OA
ENDBRANCH   9  12
ENDBRANCH   4   7
BRANCH   1  22
ATOM     22  C   UNL     1      35.382   1.901  15.261  0.00  0.00    +0.000 C 
BRANCH  22  23
ATOM     23  C   UNL     1      35.944   0.497  15.244  0.00  0.00    +0.000 C 
BRANCH  23  28
ATOM     24  C   UNL     1      39.034  -3.001  17.186  0.00  0.00    +0.000 A 
ATOM     25  C   UNL     1      38.833  -2.512  15.913  0.00  0.00    +0.000 A 
ATOM     26  C   UNL     1      37.878  -1.529  15.747  0.00  0.00    +0.000 A 
ATOM     27  C   UNL     1      37.136  -1.035  16.800  0.00  0.00    +0.000 A 
ATOM     28  C   UNL     1      36.192  -0.053  16.585  0.00  0.00    +0.000 A 
ATOM     29  C   UNL     1      35.459   0.428  17.645  0.00  0.00    +0.000 A 
ATOM     30  C   UNL     1      35.681  -0.077  18.901  0.00  0.00    +0.000 A 
ATOM     31  C   UNL     1      36.619  -1.052  19.105  0.00  0.00    +0.000 A 
ATOM     32  C   UNL     1      37.365  -1.549  18.060  0.00  0.00    +0.000 A 
ATOM     33  C   UNL     1      38.316  -2.538  18.272  0.00  0.00    +0.000 A 
ENDBRANCH  23  28
ENDBRANCH  22  23
ENDBRANCH   1  22
TORSDOF 5
ENDMDL
MODEL 8
REMARK VINA RESULT:      -7.3      4.082      7.573
REMARK  Name = 
REMARK  5 active torsions:
REMARK  status: ('A' for Active; 'I' for Inactive)
REMARK    1  A    between atoms: C_5  and  C_6
REMARK    2  A    between atoms: C_6  and  C_7
REMARK    3  A    between atoms: C_7  and  N_8
REMARK    4  A    between atoms: C_11  and  C_12
REMARK    5  A    between atoms: C_14  and  C_15
REMARK                            x       y       z     vdW  Elec       q    Type
REMARK                         _______ _______ _______ _____ _____    ______ ____
ROOT
ATOM      1  N   UNL     1      38.753  -2.140  13.614  0.00  0.00    +0.000 NA
ATOM      2  C   UNL     1      38.053  -1.122  12.874  0.00  0.00    +0.000 C 
ATOM      3  C   UNL     1      39.010  -0.273  12.104  0.00  0.00    +0.000 C 
ATOM      4  C   UNL     1      39.954   0.449  13.027  0.00  0.00    +0.000 C 
ATOM      5  C   UNL     1      40.292  -0.412  14.219  0.00  0.00    +0.000 C 
ATOM      6  C   UNL     1      40.162  -1.856  13.785  0.00  0.00    +0.000 C 
ENDROOT
BRANCH   4   7
ATOM      7  C   UNL     1      39.431   1.782  13.437  0.00  0.00    +0.000 A 
ATOM      8  C   UNL     1      39.425   2.387  14.675  0.00  0.00    +0.000 A 
ATOM      9  C   UNL     1      38.836   3.631  14.594  0.00  0.00    +0.000 A 
ATOM     10  N   UNL     1      38.490   3.766  13.298  0.00  0.00    +0.000 NA
ATOM     11  N   UNL     1      38.839   2.679  12.615  0.00  0.00    +0.000 NA
BRANCH   9  12
ATOM     12  C   UNL     1      38.626   4.599  15.666  0.00  0.00    +0.000 A 
ATOM     13  C   UNL     1      38.613   4.230  16.993  0.00  0.00    +0.000 A 
ATOM     14  C   UNL     1      38.408   5.177  18.001  0.00  0.00    +0.000 A 
ATOM     15  C   UNL     1      38.213   6.508  17.699  0.00  0.00    +0.000 A 
ATOM     16  C   UNL     1      38.228   6.869  16.365  0.00  0.00    +0.000 A 
ATOM     17  C   UNL     1      38.430   5.930  15.375  0.00  0.00    +0.000 A 
ATOM     18  O   UNL     1      38.033   8.199  16.053  0.00  0.00    +0.000 OA
ATOM     19  C   UNL     1      37.627   9.166  16.988  0.00  0.00    +0.000 C 
ATOM     20  C   UNL     1      37.277   8.630  18.335  0.00  0.00    +0.000 C 
ATOM     21  O   UNL     1      38.007   7.468  18.696  0.00  0.00    +0.000 OA
ENDBRANCH   9  12
ENDBRANCH   4   7
BRANCH   1  22
ATOM     22  C   UNL     1      38.067  -2.400  14.849  0.00  0.00    +0.000 C 
BRANCH  22  23
ATOM     23  C   UNL     1      36.641  -1.899  14.815  0.00  0.00    +0.000 C 
BRANCH  23  28
ATOM     24  C   UNL     1      35.261   2.929  15.397  0.00  0.00    +0.000 A 
ATOM     25  C   UNL     1      35.581   2.158  14.300  0.00  0.00    +0.000 A 
ATOM     26  C   UNL     1      35.920   0.838  14.522  0.00  0.00    +0.000 A 
ATOM     27  C   UNL     1      35.946   0.284  15.785  0.00  0.00    +0.000 A 
ATOM     28  C   UNL     1      36.292  -1.040  15.956  0.00  0.00    +0.000 A 
ATOM     29  C   UNL     1      36.314  -1.577  17.221  0.00  0.00    +0.000 A 
ATOM     30  C   UNL     1      35.991  -0.786  18.294  0.00  0.00    +0.000 A 
ATOM     31  C   UNL     1      35.650   0.527  18.115  0.00  0.00    +0.000 A 
ATOM     32  C   UNL     1      35.620   1.087  16.858  0.00  0.00    +0.000 A 
ATOM     33  C   UNL     1      35.273   2.419  16.682  0.00  0.00    +0.000 A 
ENDBRANCH  23  28
ENDBRANCH  22  23
ENDBRANCH   1  22
TORSDOF 5
ENDMDL
MODEL 9
REMARK VINA RESULT:      -7.2      4.384      7.354
REMARK  Name = 
REMARK  5 active torsions:
REMARK  status: ('A' for Active; 'I' for Inactive)
REMARK    1  A    between atoms: C_5  and  C_6
REMARK    2  A    between atoms: C_6  and  C_7
REMARK    3  A    between atoms: C_7  and  N_8
REMARK    4  A    between atoms: C_11  and  C_12
REMARK    5  A    between atoms: C_14  and  C_15
REMARK                            x       y       z     vdW  Elec       q    Type
REMARK                         _______ _______ _______ _____ _____    ______ ____
ROOT
ATOM      1  N   UNL     1      38.607   4.744  14.445  0.00  0.00    +0.000 NA
ATOM      2  C   UNL     1      38.456   3.399  13.953  0.00  0.00    +0.000 C 
ATOM      3  C   UNL     1      37.013   3.033  13.846  0.00  0.00    +0.000 C 
ATOM      4  C   UNL     1      36.346   3.066  15.195  0.00  0.00    +0.000 C 
ATOM      5  C   UNL     1      36.921   4.174  16.042  0.00  0.00    +0.000 C 
ATOM      6  C   UNL     1      37.421   5.250  15.102  0.00  0.00    +0.000 C 
ENDROOT
BRANCH   4   7
ATOM      7  C   UNL     1      36.410   1.750  15.888  0.00  0.00    +0.000 A 
ATOM      8  C   UNL     1      36.138   0.485  15.414  0.00  0.00    +0.000 A 
ATOM      9  C   UNL     1      36.331  -0.449  16.409  0.00  0.00    +0.000 A 
ATOM     10  N   UNL     1      36.722   0.266  17.484  0.00  0.00    +0.000 NA
ATOM     11  N   UNL     1      36.769   1.561  17.180  0.00  0.00    +0.000 NA
BRANCH   9  12
ATOM     12  C   UNL     1      36.154  -1.896  16.333  0.00  0.00    +0.000 A 
ATOM     13  C   UNL     1      37.165  -2.774  16.650  0.00  0.00    +0.000 A 
ATOM     14  C   UNL     1      36.970  -4.156  16.568  0.00  0.00    +0.000 A 
ATOM     15  C   UNL     1      35.761  -4.683  16.167  0.00  0.00    +0.000 A 
ATOM     16  C   UNL     1      34.751  -3.793  15.851  0.00  0.00    +0.000 A 
ATOM     17  C   UNL     1      34.950  -2.431  15.934  0.00  0.00    +0.000 A 
ATOM     18  O   UNL     1      33.536  -4.310  15.449  0.00  0.00    +0.000 OA
ATOM     19  C   UNL     1      33.329  -5.668  15.154  0.00  0.00    +0.000 C 
ATOM     20  C   UNL     1      34.560  -6.510  15.166  0.00  0.00    +0.000 C 
ATOM     21  O   UNL     1      35.549  -6.063  16.080  0.00  0.00    +0.000 OA
ENDBRANCH   9  12
ENDBRANCH   4   7
BRANCH   1  22
ATOM     22  C   UNL     1      39.792   4.833  15.253  0.00  0.00    +0.000 C 
BRANCH  22  23
ATOM     23  C   UNL     1      40.015   6.236  15.770  0.00  0.00    +0.000 C 
BRANCH  23  28
ATOM     24  C   UNL     1      44.137   6.932  18.612  0.00  0.00    +0.000 A 
ATOM     25  C   UNL     1      43.917   6.885  17.252  0.00  0.00    +0.000 A 
ATOM     26  C   UNL     1      42.624   6.671  16.819  0.00  0.00    +0.000 A 
ATOM     27  C   UNL     1      41.569   6.507  17.693  0.00  0.00    +0.000 A 
ATOM     28  C   UNL     1      40.295   6.295  17.212  0.00  0.00    +0.000 A 
ATOM     29  C   UNL     1      39.255   6.131  18.097  0.00  0.00    +0.000 A 
ATOM     30  C   UNL     1      39.503   6.184  19.445  0.00  0.00    +0.000 A 
ATOM     31  C   UNL     1      40.771   6.393  19.913  0.00  0.00    +0.000 A 
ATOM     32  C   UNL     1      41.829   6.560  19.047  0.00  0.00    +0.000 A 
ATOM     33  C   UNL     1      43.113   6.773  19.527  0.00  0.00    +0.000 A 
ENDBRANCH  23  28
ENDBRANCH  22  23
ENDBRANCH   1  22
TORSDOF 5
ENDMDL
MODEL 10
REMARK VINA RESULT:      -7.2      3.857      7.329
REMARK  Name = 
REMARK  5 active torsions:
REMARK  status: ('A' for Active; 'I' for Inactive)
REMARK    1  A    between atoms: C_5  and  C_6
REMARK    2  A    between atoms: C_6  and  C_7
REMARK    3  A    between atoms: C_7  and  N_8
REMARK    4  A    between atoms: C_11  and  C_12
REMARK    5  A    between atoms: C_14  and  C_15
REMARK                            x       y       z     vdW  Elec       q    Type
REMARK                         _______ _______ _______ _____ _____    ______ ____
ROOT
ATOM      1  N   UNL     1      40.280  -2.858  14.620  0.00  0.00    +0.000 NA
ATOM      2  C   UNL     1      39.240  -2.666  13.642  0.00  0.00    +0.000 C 
ATOM      3  C   UNL     1      39.754  -1.905  12.465  0.00  0.00    +0.000 C 
ATOM      4  C   UNL     1      40.212  -0.530  12.869  0.00  0.00    +0.000 C 
ATOM      5  C   UNL     1      40.831  -0.561  14.244  0.00  0.00    +0.000 C 
ATOM      6  C   UNL     1      41.395  -1.950  14.455  0.00  0.00    +0.000 C 
ENDROOT
BRANCH   4   7
ATOM      7  C   UNL     1      39.120   0.478  12.776  0.00  0.00    +0.000 A 
ATOM      8  C   UNL     1      38.970   1.684  13.426  0.00  0.00    +0.000 A 
ATOM      9  C   UNL     1      37.799   2.295  13.034  0.00  0.00    +0.000 A 
ATOM     10  N   UNL     1      37.247   1.445  12.144  0.00  0.00    +0.000 NA
ATOM     11  N   UNL     1      38.022   0.375  11.990  0.00  0.00    +0.000 NA
BRANCH   9  12
ATOM     12  C   UNL     1      37.260   3.577  13.477  0.00  0.00    +0.000 A 
ATOM     13  C   UNL     1      37.634   4.156  14.669  0.00  0.00    +0.000 A 
ATOM     14  C   UNL     1      37.102   5.385  15.071  0.00  0.00    +0.000 A 
ATOM     15  C   UNL     1      36.187   6.055  14.288  0.00  0.00    +0.000 A 
ATOM     16  C   UNL     1      35.818   5.467  13.093  0.00  0.00    +0.000 A 
ATOM     17  C   UNL     1      36.346   4.254  12.702  0.00  0.00    +0.000 A 
ATOM     18  O   UNL     1      34.902   6.131  12.302  0.00  0.00    +0.000 OA
ATOM     19  C   UNL     1      34.182   7.260  12.726  0.00  0.00    +0.000 C 
ATOM     20  C   UNL     1      34.367   7.621  14.161  0.00  0.00    +0.000 C 
ATOM     21  O   UNL     1      35.646   7.286  14.675  0.00  0.00    +0.000 OA
ENDBRANCH   9  12
ENDBRANCH   4   7
BRANCH   1  22
ATOM     22  C   UNL     1      39.713  -2.836  15.939  0.00  0.00    +0.000 C 
BRANCH  22  23
ATOM     23  C   UNL     1      38.204  -2.749  15.901  0.00  0.00    +0.000 C 
BRANCH  23  28
ATOM     24  C   UNL     1      35.213   1.295  16.408  0.00  0.00    +0.000 A 
ATOM     25  C   UNL     1      35.732   0.627  15.319  0.00  0.00    +0.000 A 
ATOM     26  C   UNL     1      36.534  -0.470  15.563  0.00  0.00    +0.000 A 
ATOM     27  C   UNL     1      36.822  -0.906  16.839  0.00  0.00    +0.000 A 
ATOM     28  C   UNL     1      37.628  -2.007  17.033  0.00  0.00    +0.000 A 
ATOM     29  C   UNL     1      37.907  -2.428  18.312  0.00  0.00    +0.000 A 
ATOM     30  C   UNL     1      37.377  -1.744  19.376  0.00  0.00    +0.000 A 
ATOM     31  C   UNL     1      36.578  -0.652  19.175  0.00  0.00    +0.000 A 
ATOM     32  C   UNL     1      36.284  -0.212  17.904  0.00  0.00    +0.000 A 
ATOM     33  C   UNL     1      35.474   0.897  17.706  0.00  0.00    +0.000 A 
ENDBRANCH  23  28
ENDBRANCH  22  23
ENDBRANCH   1  22
TORSDOF 5
ENDMDL
