MODEL 1
REMARK VINA RESULT:      -6.4      0.000      0.000
REMARK  Name = 
REMARK  2 active torsions:
REMARK  status: ('A' for Active; 'I' for Inactive)
REMARK    1  A    between atoms: N_11  and  C_12
REMARK    2  A    between atoms: C_12  and  C_13
REMARK                            x       y       z     vdW  Elec       q    Type
REMARK                         _______ _______ _______ _____ _____    ______ ____
ROOT
ATOM      1  C   UNL     1      30.183  26.038  23.862  0.00  0.00    +0.000 C 
ATOM      2  C   UNL     1      29.527  25.201  22.601  0.00  0.00    +0.000 C 
ATOM      3  C   UNL     1      29.428  26.532  21.642  0.00  0.00    +0.000 C 
ATOM      4  C   UNL     1      28.062  26.529  21.023  0.00  0.00    +0.000 C 
ATOM      5  C   UNL     1      27.144  27.204  22.042  0.00  0.00    +0.000 C 
ATOM      6  C   UNL     1      27.647  26.705  23.392  0.00  0.00    +0.000 C 
ATOM      7  C   UNL     1      28.005  25.299  23.205  0.00  0.00    +0.000 C 
ATOM      8  N   UNL     1      27.179  24.571  22.273  0.00  0.00    +0.000 NA
ATOM      9  C   UNL     1      26.440  23.639  23.041  0.00  0.00    +0.000 C 
ATOM     10  O   UNL     1      25.438  22.940  22.666  0.00  0.00    +0.000 OA
ATOM     11  N   UNL     1      26.976  23.571  24.353  0.00  0.00    +0.000 N 
ATOM     12  C   UNL     1      28.069  24.474  24.410  0.00  0.00    +0.000 C 
ATOM     13  O   UNL     1      28.934  24.568  25.307  0.00  0.00    +0.000 OA
ENDROOT
BRANCH  11  14
ATOM     14  C   UNL     1      26.497  22.725  25.460  0.00  0.00    +0.000 C 
BRANCH  14  15
ATOM     15  C   UNL     1      26.057  23.568  26.596  0.00  0.00    +0.000 A 
ATOM     16  C   UNL     1      25.133  24.559  26.434  0.00  0.00    +0.000 A 
ATOM     17  C   UNL     1      24.768  25.308  27.536  0.00  0.00    +0.000 A 
ATOM     18  C   UNL     1      25.310  25.083  28.792  0.00  0.00    +0.000 A 
ATOM     19  C   UNL     1      26.242  24.074  28.930  0.00  0.00    +0.000 A 
ATOM     20  C   UNL     1      26.613  23.318  27.824  0.00  0.00    +0.000 A 
ATOM     21  F   UNL     1      27.529  22.339  27.990  0.00  0.00    +0.000 F 
ENDBRANCH  14  15
ENDBRANCH  11  14
TORSDOF 2
ENDMDL
MODEL 2
REMARK VINA RESULT:      -6.4      2.621      3.620
REMARK  Name = 
REMARK  2 active torsions:
REMARK  status: ('A' for Active; 'I' for Inactive)
REMARK    1  A    between atoms: N_11  and  C_12
REMARK    2  A    between atoms: C_12  and  C_13
REMARK                            x       y       z     vdW  Elec       q    Type
REMARK                         _______ _______ _______ _____ _____    ______ ____
ROOT
ATOM      1  C   UNL     1      27.677  28.458  24.168  0.00  0.00    +0.000 C 
ATOM      2  C   UNL     1      29.036  28.097  23.307  0.00  0.00    +0.000 C 
ATOM      3  C   UNL     1      28.851  29.379  22.293  0.00  0.00    +0.000 C 
ATOM      4  C   UNL     1      29.067  28.873  20.899  0.00  0.00    +0.000 C 
ATOM      5  C   UNL     1      27.714  28.327  20.442  0.00  0.00    +0.000 C 
ATOM      6  C   UNL     1      27.137  27.658  21.685  0.00  0.00    +0.000 C 
ATOM      7  C   UNL     1      28.260  27.005  22.360  0.00  0.00    +0.000 C 
ATOM      8  N   UNL     1      29.276  26.468  21.488  0.00  0.00    +0.000 NA
ATOM      9  C   UNL     1      29.191  25.058  21.602  0.00  0.00    +0.000 C 
ATOM     10  O   UNL     1      29.748  24.182  20.858  0.00  0.00    +0.000 OA
ATOM     11  N   UNL     1      28.366  24.717  22.705  0.00  0.00    +0.000 N 
ATOM     12  C   UNL     1      27.926  25.931  23.294  0.00  0.00    +0.000 C 
ATOM     13  O   UNL     1      27.358  26.080  24.397  0.00  0.00    +0.000 OA
ENDROOT
BRANCH  11  14
ATOM     14  C   UNL     1      28.023  23.361  23.164  0.00  0.00    +0.000 C 
BRANCH  14  15
ATOM     15  C   UNL     1      28.824  23.006  24.359  0.00  0.00    +0.000 A 
ATOM     16  C   UNL     1      30.188  22.957  24.315  0.00  0.00    +0.000 A 
ATOM     17  C   UNL     1      30.873  22.620  25.466  0.00  0.00    +0.000 A 
ATOM     18  C   UNL     1      30.222  22.330  26.655  0.00  0.00    +0.000 A 
ATOM     19  C   UNL     1      28.842  22.387  26.672  0.00  0.00    +0.000 A 
ATOM     20  C   UNL     1      28.147  22.726  25.518  0.00  0.00    +0.000 A 
ATOM     21  F   UNL     1      26.799  22.772  25.566  0.00  0.00    +0.000 F 
ENDBRANCH  14  15
ENDBRANCH  11  14
TORSDOF 2
ENDMDL
MODEL 3
REMARK VINA RESULT:      -6.1      2.432      3.344
REMARK  Name = 
REMARK  2 active torsions:
REMARK  status: ('A' for Active; 'I' for Inactive)
REMARK    1  A    between atoms: N_11  and  C_12
REMARK    2  A    between atoms: C_12  and  C_13
REMARK                            x       y       z     vdW  Elec       q    Type
REMARK                         _______ _______ _______ _____ _____    ______ ____
ROOT
ATOM      1  C   UNL     1      31.033  23.363  27.721  0.00  0.00    +0.000 C 
ATOM      2  C   UNL     1      31.175  22.822  26.169  0.00  0.00    +0.000 C 
ATOM      3  C   UNL     1      32.420  23.840  25.826  0.00  0.00    +0.000 C 
ATOM      4  C   UNL     1      32.121  24.469  24.498  0.00  0.00    +0.000 C 
ATOM      5  C   UNL     1      31.229  25.673  24.801  0.00  0.00    +0.000 C 
ATOM      6  C   UNL     1      30.316  25.194  25.925  0.00  0.00    +0.000 C 
ATOM      7  C   UNL     1      29.981  23.803  25.619  0.00  0.00    +0.000 C 
ATOM      8  N   UNL     1      29.852  23.494  24.215  0.00  0.00    +0.000 NA
ATOM      9  C   UNL     1      28.480  23.225  23.993  0.00  0.00    +0.000 C 
ATOM     10  O   UNL     1      27.879  23.118  22.871  0.00  0.00    +0.000 OA
ATOM     11  N   UNL     1      27.814  23.082  25.237  0.00  0.00    +0.000 N 
ATOM     12  C   UNL     1      28.783  23.263  26.258  0.00  0.00    +0.000 C 
ATOM     13  O   UNL     1      28.660  23.017  27.477  0.00  0.00    +0.000 OA
ENDROOT
BRANCH  11  14
ATOM     14  C   UNL     1      26.384  22.798  25.445  0.00  0.00    +0.000 C 
BRANCH  14  15
ATOM     15  C   UNL     1      25.654  24.047  25.767  0.00  0.00    +0.000 A 
ATOM     16  C   UNL     1      25.295  24.933  24.793  0.00  0.00    +0.000 A 
ATOM     17  C   UNL     1      24.616  26.079  25.161  0.00  0.00    +0.000 A 
ATOM     18  C   UNL     1      24.293  26.352  26.481  0.00  0.00    +0.000 A 
ATOM     19  C   UNL     1      24.667  25.438  27.447  0.00  0.00    +0.000 A 
ATOM     20  C   UNL     1      25.350  24.285  27.082  0.00  0.00    +0.000 A 
ATOM     21  F   UNL     1      25.704  23.411  28.049  0.00  0.00    +0.000 F 
ENDBRANCH  14  15
ENDBRANCH  11  14
TORSDOF 2
ENDMDL
MODEL 4
REMARK VINA RESULT:      -6.1      3.258      6.104
REMARK  Name = 
REMARK  2 active torsions:
REMARK  status: ('A' for Active; 'I' for Inactive)
REMARK    1  A    between atoms: N_11  and  C_12
REMARK    2  A    between atoms: C_12  and  C_13
REMARK                            x       y       z     vdW  Elec       q    Type
REMARK                         _______ _______ _______ _____ _____    ______ ____
ROOT
ATOM      1  C   UNL     1      28.086  24.046  26.102  0.00  0.00    +0.000 C 
ATOM      2  C   UNL     1      28.534  23.096  24.830  0.00  0.00    +0.000 C 
ATOM      3  C   UNL     1      29.863  22.516  25.606  0.00  0.00    +0.000 C 
ATOM      4  C   UNL     1      31.004  22.586  24.637  0.00  0.00    +0.000 C 
ATOM      5  C   UNL     1      31.563  24.004  24.756  0.00  0.00    +0.000 C 
ATOM      6  C   UNL     1      30.329  24.883  24.935  0.00  0.00    +0.000 C 
ATOM      7  C   UNL     1      29.297  24.327  24.059  0.00  0.00    +0.000 C 
ATOM      8  N   UNL     1      29.778  23.760  22.822  0.00  0.00    +0.000 NA
ATOM      9  C   UNL     1      29.319  24.615  21.790  0.00  0.00    +0.000 C 
ATOM     10  O   UNL     1      29.683  24.621  20.565  0.00  0.00    +0.000 OA
ATOM     11  N   UNL     1      28.354  25.515  22.309  0.00  0.00    +0.000 N 
ATOM     12  C   UNL     1      28.202  25.221  23.690  0.00  0.00    +0.000 C 
ATOM     13  O   UNL     1      27.313  25.636  24.463  0.00  0.00    +0.000 OA
ENDROOT
BRANCH  11  14
ATOM     14  C   UNL     1      27.634  26.563  21.566  0.00  0.00    +0.000 C 
BRANCH  14  15
ATOM     15  C   UNL     1      28.381  27.841  21.629  0.00  0.00    +0.000 A 
ATOM     16  C   UNL     1      28.352  28.629  22.743  0.00  0.00    +0.000 A 
ATOM     17  C   UNL     1      29.071  29.809  22.736  0.00  0.00    +0.000 A 
ATOM     18  C   UNL     1      29.814  30.213  21.638  0.00  0.00    +0.000 A 
ATOM     19  C   UNL     1      29.827  29.397  20.524  0.00  0.00    +0.000 A 
ATOM     20  C   UNL     1      29.106  28.209  20.526  0.00  0.00    +0.000 A 
ATOM     21  F   UNL     1      29.137  27.433  19.421  0.00  0.00    +0.000 F 
ENDBRANCH  14  15
ENDBRANCH  11  14
TORSDOF 2
ENDMDL
MODEL 5
REMARK VINA RESULT:      -6.0     21.096     23.897
REMARK  Name = 
REMARK  2 active torsions:
REMARK  status: ('A' for Active; 'I' for Inactive)
REMARK    1  A    between atoms: N_11  and  C_12
REMARK    2  A    between atoms: C_12  and  C_13
REMARK                            x       y       z     vdW  Elec       q    Type
REMARK                         _______ _______ _______ _____ _____    ______ ____
ROOT
ATOM      1  C   UNL     1      15.848   7.878  41.450  0.00  0.00    +0.000 C 
ATOM      2  C   UNL     1      17.181   7.093  40.879  0.00  0.00    +0.000 C 
ATOM      3  C   UNL     1      17.509   6.392  42.330  0.00  0.00    +0.000 C 
ATOM      4  C   UNL     1      18.977   6.565  42.580  0.00  0.00    +0.000 C 
ATOM      5  C   UNL     1      19.128   7.945  43.221  0.00  0.00    +0.000 C 
ATOM      6  C   UNL     1      18.115   8.816  42.486  0.00  0.00    +0.000 C 
ATOM      7  C   UNL     1      18.153   8.398  41.084  0.00  0.00    +0.000 C 
ATOM      8  N   UNL     1      19.448   7.987  40.597  0.00  0.00    +0.000 NA
ATOM      9  C   UNL     1      19.855   8.976  39.669  0.00  0.00    +0.000 C 
ATOM     10  O   UNL     1      21.015   9.134  39.159  0.00  0.00    +0.000 OA
ATOM     11  N   UNL     1      18.758   9.820  39.359  0.00  0.00    +0.000 N 
ATOM     12  C   UNL     1      17.642   9.353  40.102  0.00  0.00    +0.000 C 
ATOM     13  O   UNL     1      16.444   9.680  39.965  0.00  0.00    +0.000 OA
ENDROOT
BRANCH  11  14
ATOM     14  C   UNL     1      18.761  10.969  38.437  0.00  0.00    +0.000 C 
BRANCH  14  15
ATOM     15  C   UNL     1      18.197  10.575  37.125  0.00  0.00    +0.000 A 
ATOM     16  C   UNL     1      18.792   9.620  36.351  0.00  0.00    +0.000 A 
ATOM     17  C   UNL     1      18.214   9.301  35.137  0.00  0.00    +0.000 A 
ATOM     18  C   UNL     1      17.058   9.917  34.686  0.00  0.00    +0.000 A 
ATOM     19  C   UNL     1      16.476  10.879  35.488  0.00  0.00    +0.000 A 
ATOM     20  C   UNL     1      17.053  11.205  36.709  0.00  0.00    +0.000 A 
ATOM     21  F   UNL     1      16.461  12.150  37.471  0.00  0.00    +0.000 F 
ENDBRANCH  14  15
ENDBRANCH  11  14
TORSDOF 2
ENDMDL
MODEL 6
REMARK VINA RESULT:      -5.8      2.820      4.845
REMARK  Name = 
REMARK  2 active torsions:
REMARK  status: ('A' for Active; 'I' for Inactive)
REMARK    1  A    between atoms: N_11  and  C_12
REMARK    2  A    between atoms: C_12  and  C_13
REMARK                            x       y       z     vdW  Elec       q    Type
REMARK                         _______ _______ _______ _____ _____    ______ ____
ROOT
ATOM      1  C   UNL     1      24.328  26.103  28.164  0.00  0.00    +0.000 C 
ATOM      2  C   UNL     1      25.405  26.955  27.250  0.00  0.00    +0.000 C 
ATOM      3  C   UNL     1      24.380  28.226  27.054  0.00  0.00    +0.000 C 
ATOM      4  C   UNL     1      24.412  28.598  25.602  0.00  0.00    +0.000 C 
ATOM      5  C   UNL     1      23.396  27.683  24.917  0.00  0.00    +0.000 C 
ATOM      6  C   UNL     1      23.559  26.342  25.624  0.00  0.00    +0.000 C 
ATOM      7  C   UNL     1      24.992  26.175  25.867  0.00  0.00    +0.000 C 
ATOM      8  N   UNL     1      25.858  26.721  24.850  0.00  0.00    +0.000 NA
ATOM      9  C   UNL     1      26.467  25.614  24.211  0.00  0.00    +0.000 C 
ATOM     10  O   UNL     1      27.135  25.614  23.123  0.00  0.00    +0.000 OA
ATOM     11  N   UNL     1      26.230  24.437  24.967  0.00  0.00    +0.000 N 
ATOM     12  C   UNL     1      25.462  24.811  26.100  0.00  0.00    +0.000 C 
ATOM     13  O   UNL     1      25.216  24.123  27.115  0.00  0.00    +0.000 OA
ENDROOT
BRANCH  11  14
ATOM     14  C   UNL     1      26.692  23.075  24.648  0.00  0.00    +0.000 C 
BRANCH  14  15
ATOM     15  C   UNL     1      28.080  22.879  25.127  0.00  0.00    +0.000 A 
ATOM     16  C   UNL     1      28.358  22.694  26.450  0.00  0.00    +0.000 A 
ATOM     17  C   UNL     1      29.675  22.517  26.829  0.00  0.00    +0.000 A 
ATOM     18  C   UNL     1      30.714  22.523  25.912  0.00  0.00    +0.000 A 
ATOM     19  C   UNL     1      30.405  22.712  24.579  0.00  0.00    +0.000 A 
ATOM     20  C   UNL     1      29.083  22.890  24.192  0.00  0.00    +0.000 A 
ATOM     21  F   UNL     1      28.813  23.074  22.882  0.00  0.00    +0.000 F 
ENDBRANCH  14  15
ENDBRANCH  11  14
TORSDOF 2
ENDMDL
MODEL 7
REMARK VINA RESULT:      -5.8     15.085     17.903
REMARK  Name = 
REMARK  2 active torsions:
REMARK  status: ('A' for Active; 'I' for Inactive)
REMARK    1  A    between atoms: N_11  and  C_12
REMARK    2  A    between atoms: C_12  and  C_13
REMARK                            x       y       z     vdW  Elec       q    Type
REMARK                         _______ _______ _______ _____ _____    ______ ____
ROOT
ATOM      1  C   UNL     1      32.087  20.472  12.481  0.00  0.00    +0.000 C 
ATOM      2  C   UNL     1      31.994  21.958  11.772  0.00  0.00    +0.000 C 
ATOM      3  C   UNL     1      30.560  22.318  12.493  0.00  0.00    +0.000 C 
ATOM      4  C   UNL     1      29.664  22.885  11.433  0.00  0.00    +0.000 C 
ATOM      5  C   UNL     1      29.011  21.680  10.755  0.00  0.00    +0.000 C 
ATOM      6  C   UNL     1      30.119  20.634  10.694  0.00  0.00    +0.000 C 
ATOM      7  C   UNL     1      31.353  21.359  10.385  0.00  0.00    +0.000 C 
ATOM      8  N   UNL     1      31.197  22.499   9.515  0.00  0.00    +0.000 NA
ATOM      9  C   UNL     1      31.826  22.155   8.293  0.00  0.00    +0.000 C 
ATOM     10  O   UNL     1      31.747  22.770   7.177  0.00  0.00    +0.000 OA
ATOM     11  N   UNL     1      32.595  20.976   8.469  0.00  0.00    +0.000 N 
ATOM     12  C   UNL     1      32.449  20.573   9.822  0.00  0.00    +0.000 C 
ATOM     13  O   UNL     1      33.116  19.714  10.437  0.00  0.00    +0.000 OA
ENDROOT
BRANCH  11  14
ATOM     14  C   UNL     1      33.401  20.288   7.446  0.00  0.00    +0.000 C 
BRANCH  14  15
ATOM     15  C   UNL     1      32.593  19.245   6.772  0.00  0.00    +0.000 A 
ATOM     16  C   UNL     1      31.279  19.449   6.464  0.00  0.00    +0.000 A 
ATOM     17  C   UNL     1      30.583  18.433   5.836  0.00  0.00    +0.000 A 
ATOM     18  C   UNL     1      31.176  17.223   5.514  0.00  0.00    +0.000 A 
ATOM     19  C   UNL     1      32.507  17.042   5.836  0.00  0.00    +0.000 A 
ATOM     20  C   UNL     1      33.211  18.060   6.468  0.00  0.00    +0.000 A 
ATOM     21  F   UNL     1      34.511  17.853   6.771  0.00  0.00    +0.000 F 
ENDBRANCH  14  15
ENDBRANCH  11  14
TORSDOF 2
ENDMDL
MODEL 8
REMARK VINA RESULT:      -5.8      2.629      4.595
REMARK  Name = 
REMARK  2 active torsions:
REMARK  status: ('A' for Active; 'I' for Inactive)
REMARK    1  A    between atoms: N_11  and  C_12
REMARK    2  A    between atoms: C_12  and  C_13
REMARK                            x       y       z     vdW  Elec       q    Type
REMARK                         _______ _______ _______ _____ _____    ______ ____
ROOT
ATOM      1  C   UNL     1      26.142  27.179  27.908  0.00  0.00    +0.000 C 
ATOM      2  C   UNL     1      25.961  27.161  26.269  0.00  0.00    +0.000 C 
ATOM      3  C   UNL     1      24.571  28.038  26.315  0.00  0.00    +0.000 C 
ATOM      4  C   UNL     1      23.590  27.359  25.408  0.00  0.00    +0.000 C 
ATOM      5  C   UNL     1      22.924  26.274  26.256  0.00  0.00    +0.000 C 
ATOM      6  C   UNL     1      24.053  25.725  27.122  0.00  0.00    +0.000 C 
ATOM      7  C   UNL     1      25.243  25.685  26.271  0.00  0.00    +0.000 C 
ATOM      8  N   UNL     1      24.998  25.380  24.882  0.00  0.00    +0.000 NA
ATOM      9  C   UNL     1      25.551  24.096  24.655  0.00  0.00    +0.000 C 
ATOM     10  O   UNL     1      25.380  23.344  23.637  0.00  0.00    +0.000 OA
ATOM     11  N   UNL     1      26.362  23.724  25.758  0.00  0.00    +0.000 N 
ATOM     12  C   UNL     1      26.319  24.791  26.693  0.00  0.00    +0.000 C 
ATOM     13  O   UNL     1      27.049  24.956  27.694  0.00  0.00    +0.000 OA
ENDROOT
BRANCH  11  14
ATOM     14  C   UNL     1      27.114  22.467  25.916  0.00  0.00    +0.000 C 
BRANCH  14  15
ATOM     15  C   UNL     1      28.538  22.674  25.561  0.00  0.00    +0.000 A 
ATOM     16  C   UNL     1      28.912  23.051  24.304  0.00  0.00    +0.000 A 
ATOM     17  C   UNL     1      30.257  23.227  24.041  0.00  0.00    +0.000 A 
ATOM     18  C   UNL     1      31.230  23.032  25.009  0.00  0.00    +0.000 A 
ATOM     19  C   UNL     1      30.824  22.652  26.273  0.00  0.00    +0.000 A 
ATOM     20  C   UNL     1      29.473  22.473  26.543  0.00  0.00    +0.000 A 
ATOM     21  F   UNL     1      29.108  22.100  27.788  0.00  0.00    +0.000 F 
ENDBRANCH  14  15
ENDBRANCH  11  14
TORSDOF 2
ENDMDL
MODEL 9
REMARK VINA RESULT:      -5.7      4.062      7.066
REMARK  Name = 
REMARK  2 active torsions:
REMARK  status: ('A' for Active; 'I' for Inactive)
REMARK    1  A    between atoms: N_11  and  C_12
REMARK    2  A    between atoms: C_12  and  C_13
REMARK                            x       y       z     vdW  Elec       q    Type
REMARK                         _______ _______ _______ _____ _____    ______ ____
ROOT
ATOM      1  C   UNL     1      29.134  24.236  31.569  0.00  0.00    +0.000 C 
ATOM      2  C   UNL     1      28.235  24.658  30.252  0.00  0.00    +0.000 C 
ATOM      3  C   UNL     1      26.806  24.449  31.040  0.00  0.00    +0.000 C 
ATOM      4  C   UNL     1      25.910  23.668  30.126  0.00  0.00    +0.000 C 
ATOM      5  C   UNL     1      26.250  22.198  30.370  0.00  0.00    +0.000 C 
ATOM      6  C   UNL     1      27.764  22.186  30.560  0.00  0.00    +0.000 C 
ATOM      7  C   UNL     1      28.306  23.153  29.604  0.00  0.00    +0.000 C 
ATOM      8  N   UNL     1      27.597  23.245  28.351  0.00  0.00    +0.000 NA
ATOM      9  C   UNL     1      28.465  22.716  27.364  0.00  0.00    +0.000 C 
ATOM     10  O   UNL     1      28.176  22.405  26.160  0.00  0.00    +0.000 OA
ATOM     11  N   UNL     1      29.767  22.564  27.906  0.00  0.00    +0.000 N 
ATOM     12  C   UNL     1      29.717  23.005  29.254  0.00  0.00    +0.000 C 
ATOM     13  O   UNL     1      30.680  23.230  30.018  0.00  0.00    +0.000 OA
ENDROOT
BRANCH  11  14
ATOM     14  C   UNL     1      30.958  22.047  27.210  0.00  0.00    +0.000 C 
BRANCH  14  15
ATOM     15  C   UNL     1      31.632  23.138  26.469  0.00  0.00    +0.000 A 
ATOM     16  C   UNL     1      32.375  24.085  27.112  0.00  0.00    +0.000 A 
ATOM     17  C   UNL     1      32.977  25.075  26.360  0.00  0.00    +0.000 A 
ATOM     18  C   UNL     1      32.848  25.135  24.981  0.00  0.00    +0.000 A 
ATOM     19  C   UNL     1      32.091  24.165  24.354  0.00  0.00    +0.000 A 
ATOM     20  C   UNL     1      31.483  23.167  25.106  0.00  0.00    +0.000 A 
ATOM     21  F   UNL     1      30.748  22.233  24.465  0.00  0.00    +0.000 F 
ENDBRANCH  14  15
ENDBRANCH  11  14
TORSDOF 2
ENDMDL
MODEL 10
REMARK VINA RESULT:      -5.7      2.511      3.210
REMARK  Name = 
REMARK  2 active torsions:
REMARK  status: ('A' for Active; 'I' for Inactive)
REMARK    1  A    between atoms: N_11  and  C_12
REMARK    2  A    between atoms: C_12  and  C_13
REMARK                            x       y       z     vdW  Elec       q    Type
REMARK                         _______ _______ _______ _____ _____    ______ ____
ROOT
ATOM      1  C   UNL     1      29.702  28.204  23.846  0.00  0.00    +0.000 C 
ATOM      2  C   UNL     1      28.816  27.809  22.512  0.00  0.00    +0.000 C 
ATOM      3  C   UNL     1      27.696  28.981  22.791  0.00  0.00    +0.000 C 
ATOM      4  C   UNL     1      26.346  28.352  22.616  0.00  0.00    +0.000 C 
ATOM      5  C   UNL     1      26.007  27.719  23.966  0.00  0.00    +0.000 C 
ATOM      6  C   UNL     1      27.334  27.153  24.462  0.00  0.00    +0.000 C 
ATOM      7  C   UNL     1      28.013  26.606  23.287  0.00  0.00    +0.000 C 
ATOM      8  N   UNL     1      27.149  26.023  22.290  0.00  0.00    +0.000 NA
ATOM      9  C   UNL     1      27.398  24.629  22.315  0.00  0.00    +0.000 C 
ATOM     10  O   UNL     1      26.714  23.705  21.758  0.00  0.00    +0.000 OA
ATOM     11  N   UNL     1      28.566  24.367  23.077  0.00  0.00    +0.000 N 
ATOM     12  C   UNL     1      29.058  25.615  23.538  0.00  0.00    +0.000 C 
ATOM     13  O   UNL     1      30.168  25.850  24.062  0.00  0.00    +0.000 OA
ENDROOT
BRANCH  11  14
ATOM     14  C   UNL     1      29.166  23.049  23.347  0.00  0.00    +0.000 C 
BRANCH  14  15
ATOM     15  C   UNL     1      29.182  22.782  24.804  0.00  0.00    +0.000 A 
ATOM     16  C   UNL     1      28.033  22.779  25.541  0.00  0.00    +0.000 A 
ATOM     17  C   UNL     1      28.119  22.523  26.896  0.00  0.00    +0.000 A 
ATOM     18  C   UNL     1      29.329  22.271  27.524  0.00  0.00    +0.000 A 
ATOM     19  C   UNL     1      30.476  22.279  26.755  0.00  0.00    +0.000 A 
ATOM     20  C   UNL     1      30.395  22.537  25.392  0.00  0.00    +0.000 A 
ATOM     21  F   UNL     1      31.535  22.539  24.668  0.00  0.00    +0.000 F 
ENDBRANCH  14  15
ENDBRANCH  11  14
TORSDOF 2
ENDMDL
