MODEL 1
REMARK VINA RESULT:      -6.9      0.000      0.000
REMARK  Name = 
REMARK  1 active torsions:
REMARK  status: ('A' for Active; 'I' for Inactive)
REMARK    1  A    between atoms: C_2  and  C_5
REMARK                            x       y       z     vdW  Elec       q    Type
REMARK                         _______ _______ _______ _____ _____    ______ ____
ROOT
ATOM      1  C   UNL     1      26.934  23.355  28.667  0.00  0.00    +0.000 A 
ATOM      2  C   UNL     1      25.698  23.799  28.303  0.00  0.00    +0.000 A 
ATOM      3  C   UNL     1      25.345  24.060  26.997  0.00  0.00    +0.000 A 
ATOM      4  C   UNL     1      26.292  23.860  26.000  0.00  0.00    +0.000 A 
ATOM      5  N   UNL     1      26.241  24.014  24.650  0.00  0.00    +0.000 NA
ATOM      6  C   UNL     1      27.399  23.688  24.112  0.00  0.00    +0.000 A 
ATOM      7  C   UNL     1      28.242  23.308  25.156  0.00  0.00    +0.000 A 
ATOM      8  C   UNL     1      27.565  23.408  26.337  0.00  0.00    +0.000 A 
ATOM      9  C   UNL     1      27.850  23.170  27.659  0.00  0.00    +0.000 A 
ATOM     10  C   UNL     1      29.599  22.914  24.789  0.00  0.00    +0.000 C 
ATOM     11  C   UNL     1      30.178  23.771  23.709  0.00  0.00    +0.000 C 
ATOM     12  C   UNL     1      29.330  23.837  22.464  0.00  0.00    +0.000 C 
ATOM     13  C   UNL     1      27.881  23.652  22.727  0.00  0.00    +0.000 C 
ATOM     14  N   UNL     1      27.091  23.457  21.739  0.00  0.00    +0.000 NA
ATOM     15  O   UNL     1      25.746  23.281  22.024  0.00  0.00    +0.000 OA
ENDROOT
BRANCH   1  17
ATOM     16  C   UNL     1      28.757  22.943  30.312  0.00  0.00    +0.000 C 
ATOM     17  C   UNL     1      27.280  23.039  30.094  0.00  0.00    +0.000 C 
ATOM     18  C   UNL     1      26.512  21.803  30.487  0.00  0.00    +0.000 C 
ATOM     19  C   UNL     1      26.729  24.167  30.995  0.00  0.00    +0.000 C 
ENDBRANCH   1  17
TORSDOF 1
ENDMDL
MODEL 2
REMARK VINA RESULT:      -6.8      1.707      2.804
REMARK  Name = 
REMARK  1 active torsions:
REMARK  status: ('A' for Active; 'I' for Inactive)
REMARK    1  A    between atoms: C_2  and  C_5
REMARK                            x       y       z     vdW  Elec       q    Type
REMARK                         _______ _______ _______ _____ _____    ______ ____
ROOT
ATOM      1  C   UNL     1      28.170  22.753  28.600  0.00  0.00    +0.000 A 
ATOM      2  C   UNL     1      29.450  22.425  28.268  0.00  0.00    +0.000 A 
ATOM      3  C   UNL     1      29.918  22.429  26.973  0.00  0.00    +0.000 A 
ATOM      4  C   UNL     1      29.046  22.787  25.952  0.00  0.00    +0.000 A 
ATOM      5  N   UNL     1      29.213  22.897  24.607  0.00  0.00    +0.000 NA
ATOM      6  C   UNL     1      28.087  23.283  24.040  0.00  0.00    +0.000 A 
ATOM      7  C   UNL     1      27.146  23.431  25.059  0.00  0.00    +0.000 A 
ATOM      8  C   UNL     1      27.731  23.127  26.256  0.00  0.00    +0.000 A 
ATOM      9  C   UNL     1      27.330  23.100  27.569  0.00  0.00    +0.000 A 
ATOM     10  C   UNL     1      25.807  23.846  24.655  0.00  0.00    +0.000 C 
ATOM     11  C   UNL     1      25.357  23.194  23.387  0.00  0.00    +0.000 C 
ATOM     12  C   UNL     1      26.304  23.394  22.231  0.00  0.00    +0.000 C 
ATOM     13  C   UNL     1      27.717  23.569  22.650  0.00  0.00    +0.000 C 
ATOM     14  N   UNL     1      28.574  23.974  21.789  0.00  0.00    +0.000 NA
ATOM     15  O   UNL     1      29.882  24.132  22.220  0.00  0.00    +0.000 OA
ENDROOT
BRANCH   1  17
ATOM     16  C   UNL     1      26.966  24.043  30.358  0.00  0.00    +0.000 C 
ATOM     17  C   UNL     1      27.696  22.779  30.025  0.00  0.00    +0.000 C 
ATOM     18  C   UNL     1      28.885  22.499  30.906  0.00  0.00    +0.000 C 
ATOM     19  C   UNL     1      26.733  21.591  30.245  0.00  0.00    +0.000 C 
ENDBRANCH   1  17
TORSDOF 1
ENDMDL
MODEL 3
REMARK VINA RESULT:      -6.7      1.563      2.341
REMARK  Name = 
REMARK  1 active torsions:
REMARK  status: ('A' for Active; 'I' for Inactive)
REMARK    1  A    between atoms: C_2  and  C_5
REMARK                            x       y       z     vdW  Elec       q    Type
REMARK                         _______ _______ _______ _____ _____    ______ ____
ROOT
ATOM      1  C   UNL     1      29.378  23.119  27.732  0.00  0.00    +0.000 A 
ATOM      2  C   UNL     1      28.066  22.922  28.043  0.00  0.00    +0.000 A 
ATOM      3  C   UNL     1      27.049  23.008  27.117  0.00  0.00    +0.000 A 
ATOM      4  C   UNL     1      27.375  23.309  25.799  0.00  0.00    +0.000 A 
ATOM      5  N   UNL     1      26.613  23.447  24.682  0.00  0.00    +0.000 NA
ATOM      6  C   UNL     1      27.377  23.730  23.645  0.00  0.00    +0.000 A 
ATOM      7  C   UNL     1      28.691  23.780  24.107  0.00  0.00    +0.000 A 
ATOM      8  C   UNL     1      28.705  23.518  25.448  0.00  0.00    +0.000 A 
ATOM      9  C   UNL     1      29.668  23.418  26.422  0.00  0.00    +0.000 A 
ATOM     10  C   UNL     1      29.719  24.095  23.120  0.00  0.00    +0.000 C 
ATOM     11  C   UNL     1      29.286  25.147  22.150  0.00  0.00    +0.000 C 
ATOM     12  C   UNL     1      27.999  24.823  21.435  0.00  0.00    +0.000 C 
ATOM     13  C   UNL     1      27.087  23.959  22.225  0.00  0.00    +0.000 C 
ATOM     14  N   UNL     1      26.077  23.429  21.645  0.00  0.00    +0.000 NA
ATOM     15  O   UNL     1      25.252  22.622  22.414  0.00  0.00    +0.000 OA
ENDROOT
BRANCH   1  17
ATOM     16  C   UNL     1      31.510  21.986  28.339  0.00  0.00    +0.000 C 
ATOM     17  C   UNL     1      30.470  22.979  28.753  0.00  0.00    +0.000 C 
ATOM     18  C   UNL     1      29.819  22.681  30.079  0.00  0.00    +0.000 C 
ATOM     19  C   UNL     1      31.155  24.353  28.933  0.00  0.00    +0.000 C 
ENDBRANCH   1  17
TORSDOF 1
ENDMDL
MODEL 4
REMARK VINA RESULT:      -6.6     31.110     32.560
REMARK  Name = 
REMARK  1 active torsions:
REMARK  status: ('A' for Active; 'I' for Inactive)
REMARK    1  A    between atoms: C_2  and  C_5
REMARK                            x       y       z     vdW  Elec       q    Type
REMARK                         _______ _______ _______ _____ _____    ______ ____
ROOT
ATOM      1  C   UNL     1      23.182  -9.004  24.959  0.00  0.00    +0.000 A 
ATOM      2  C   UNL     1      23.343  -7.798  24.346  0.00  0.00    +0.000 A 
ATOM      3  C   UNL     1      22.406  -6.790  24.407  0.00  0.00    +0.000 A 
ATOM      4  C   UNL     1      21.239  -7.010  25.131  0.00  0.00    +0.000 A 
ATOM      5  N   UNL     1      20.160  -6.222  25.381  0.00  0.00    +0.000 NA
ATOM      6  C   UNL     1      19.293  -6.867  26.135  0.00  0.00    +0.000 A 
ATOM      7  C   UNL     1      19.830  -8.130  26.387  0.00  0.00    +0.000 A 
ATOM      8  C   UNL     1      21.043  -8.232  25.768  0.00  0.00    +0.000 A 
ATOM      9  C   UNL     1      22.018  -9.193  25.664  0.00  0.00    +0.000 A 
ATOM     10  C   UNL     1      19.023  -9.031  27.204  0.00  0.00    +0.000 C 
ATOM     11  C   UNL     1      17.564  -8.950  26.886  0.00  0.00    +0.000 C 
ATOM     12  C   UNL     1      16.997  -7.556  26.983  0.00  0.00    +0.000 C 
ATOM     13  C   UNL     1      17.995  -6.492  26.706  0.00  0.00    +0.000 C 
ATOM     14  N   UNL     1      17.699  -5.278  26.982  0.00  0.00    +0.000 NA
ATOM     15  O   UNL     1      18.659  -4.314  26.715  0.00  0.00    +0.000 OA
ENDROOT
BRANCH   1  17
ATOM     16  C   UNL     1      24.398 -10.773  26.221  0.00  0.00    +0.000 C 
ATOM     17  C   UNL     1      24.237 -10.071  24.909  0.00  0.00    +0.000 C 
ATOM     18  C   UNL     1      25.501  -9.440  24.385  0.00  0.00    +0.000 C 
ATOM     19  C   UNL     1      23.831 -11.117  23.846  0.00  0.00    +0.000 C 
ENDBRANCH   1  17
TORSDOF 1
ENDMDL
MODEL 5
REMARK VINA RESULT:      -6.5     28.588     30.028
REMARK  Name = 
REMARK  1 active torsions:
REMARK  status: ('A' for Active; 'I' for Inactive)
REMARK    1  A    between atoms: C_2  and  C_5
REMARK                            x       y       z     vdW  Elec       q    Type
REMARK                         _______ _______ _______ _____ _____    ______ ____
ROOT
ATOM      1  C   UNL     1      33.088  -3.352  33.887  0.00  0.00    +0.000 A 
ATOM      2  C   UNL     1      32.239  -4.180  34.559  0.00  0.00    +0.000 A 
ATOM      3  C   UNL     1      31.855  -5.414  34.083  0.00  0.00    +0.000 A 
ATOM      4  C   UNL     1      32.356  -5.840  32.858  0.00  0.00    +0.000 A 
ATOM      5  N   UNL     1      32.176  -6.986  32.148  0.00  0.00    +0.000 NA
ATOM      6  C   UNL     1      32.875  -6.941  31.031  0.00  0.00    +0.000 A 
ATOM      7  C   UNL     1      33.537  -5.714  31.011  0.00  0.00    +0.000 A 
ATOM      8  C   UNL     1      33.224  -5.018  32.145  0.00  0.00    +0.000 A 
ATOM      9  C   UNL     1      33.564  -3.799  32.678  0.00  0.00    +0.000 A 
ATOM     10  C   UNL     1      34.370  -5.440  29.845  0.00  0.00    +0.000 C 
ATOM     11  C   UNL     1      33.751  -5.913  28.568  0.00  0.00    +0.000 C 
ATOM     12  C   UNL     1      33.380  -7.374  28.577  0.00  0.00    +0.000 C 
ATOM     13  C   UNL     1      33.057  -7.893  29.930  0.00  0.00    +0.000 C 
ATOM     14  N   UNL     1      32.954  -9.157  30.101  0.00  0.00    +0.000 NA
ATOM     15  O   UNL     1      32.658  -9.603  31.380  0.00  0.00    +0.000 OA
ENDROOT
BRANCH   1  17
ATOM     16  C   UNL     1      33.896  -1.053  33.376  0.00  0.00    +0.000 C 
ATOM     17  C   UNL     1      33.522  -2.029  34.447  0.00  0.00    +0.000 C 
ATOM     18  C   UNL     1      34.613  -2.295  35.452  0.00  0.00    +0.000 C 
ATOM     19  C   UNL     1      32.353  -1.431  35.262  0.00  0.00    +0.000 C 
ENDBRANCH   1  17
TORSDOF 1
ENDMDL
MODEL 6
REMARK VINA RESULT:      -6.3      2.263      3.262
REMARK  Name = 
REMARK  1 active torsions:
REMARK  status: ('A' for Active; 'I' for Inactive)
REMARK    1  A    between atoms: C_2  and  C_5
REMARK                            x       y       z     vdW  Elec       q    Type
REMARK                         _______ _______ _______ _____ _____    ______ ____
ROOT
ATOM      1  C   UNL     1      30.727  22.522  29.242  0.00  0.00    +0.000 A 
ATOM      2  C   UNL     1      29.505  22.780  29.787  0.00  0.00    +0.000 A 
ATOM      3  C   UNL     1      28.386  23.056  29.033  0.00  0.00    +0.000 A 
ATOM      4  C   UNL     1      28.505  23.072  27.648  0.00  0.00    +0.000 A 
ATOM      5  N   UNL     1      27.600  23.294  26.658  0.00  0.00    +0.000 NA
ATOM      6  C   UNL     1      28.183  23.194  25.480  0.00  0.00    +0.000 A 
ATOM      7  C   UNL     1      29.525  22.895  25.712  0.00  0.00    +0.000 A 
ATOM      8  C   UNL     1      29.740  22.814  27.058  0.00  0.00    +0.000 A 
ATOM      9  C   UNL     1      30.815  22.548  27.871  0.00  0.00    +0.000 A 
ATOM     10  C   UNL     1      30.375  22.749  24.534  0.00  0.00    +0.000 C 
ATOM     11  C   UNL     1      30.064  23.751  23.469  0.00  0.00    +0.000 C 
ATOM     12  C   UNL     1      28.619  23.751  23.038  0.00  0.00    +0.000 C 
ATOM     13  C   UNL     1      27.684  23.318  24.106  0.00  0.00    +0.000 C 
ATOM     14  N   UNL     1      26.470  23.056  23.799  0.00  0.00    +0.000 NA
ATOM     15  O   UNL     1      25.629  22.647  24.823  0.00  0.00    +0.000 OA
ENDROOT
BRANCH   1  17
ATOM     16  C   UNL     1      32.892  21.298  29.369  0.00  0.00    +0.000 C 
ATOM     17  C   UNL     1      31.922  22.183  30.086  0.00  0.00    +0.000 C 
ATOM     18  C   UNL     1      31.416  21.621  31.389  0.00  0.00    +0.000 C 
ATOM     19  C   UNL     1      32.648  23.495  30.461  0.00  0.00    +0.000 C 
ENDBRANCH   1  17
TORSDOF 1
ENDMDL
MODEL 7
REMARK VINA RESULT:      -6.0     21.394     22.654
REMARK  Name = 
REMARK  1 active torsions:
REMARK  status: ('A' for Active; 'I' for Inactive)
REMARK    1  A    between atoms: C_2  and  C_5
REMARK                            x       y       z     vdW  Elec       q    Type
REMARK                         _______ _______ _______ _____ _____    ______ ____
ROOT
ATOM      1  C   UNL     1      25.949   4.828  17.702  0.00  0.00    +0.000 A 
ATOM      2  C   UNL     1      25.430   4.097  18.728  0.00  0.00    +0.000 A 
ATOM      3  C   UNL     1      24.345   3.260  18.585  0.00  0.00    +0.000 A 
ATOM      4  C   UNL     1      23.748   3.154  17.334  0.00  0.00    +0.000 A 
ATOM      5  N   UNL     1      22.695   2.419  16.887  0.00  0.00    +0.000 NA
ATOM      6  C   UNL     1      22.500   2.642  15.602  0.00  0.00    +0.000 A 
ATOM      7  C   UNL     1      23.466   3.561  15.196  0.00  0.00    +0.000 A 
ATOM      8  C   UNL     1      24.252   3.888  16.265  0.00  0.00    +0.000 A 
ATOM      9  C   UNL     1      25.335   4.704  16.478  0.00  0.00    +0.000 A 
ATOM     10  C   UNL     1      23.431   3.969  13.795  0.00  0.00    +0.000 C 
ATOM     11  C   UNL     1      22.040   4.154  13.281  0.00  0.00    +0.000 C 
ATOM     12  C   UNL     1      21.157   2.945  13.465  0.00  0.00    +0.000 C 
ATOM     13  C   UNL     1      21.535   2.111  14.633  0.00  0.00    +0.000 C 
ATOM     14  N   UNL     1      21.016   0.948  14.759  0.00  0.00    +0.000 NA
ATOM     15  O   UNL     1      21.399   0.196  15.859  0.00  0.00    +0.000 OA
ENDROOT
BRANCH   1  17
ATOM     16  C   UNL     1      27.561   5.834  19.310  0.00  0.00    +0.000 C 
ATOM     17  C   UNL     1      27.158   5.701  17.875  0.00  0.00    +0.000 C 
ATOM     18  C   UNL     1      26.877   7.011  17.186  0.00  0.00    +0.000 C 
ATOM     19  C   UNL     1      28.335   5.073  17.096  0.00  0.00    +0.000 C 
ENDBRANCH   1  17
TORSDOF 1
ENDMDL
MODEL 8
REMARK VINA RESULT:      -6.0     20.451     21.704
REMARK  Name = 
REMARK  1 active torsions:
REMARK  status: ('A' for Active; 'I' for Inactive)
REMARK    1  A    between atoms: C_2  and  C_5
REMARK                            x       y       z     vdW  Elec       q    Type
REMARK                         _______ _______ _______ _____ _____    ______ ____
ROOT
ATOM      1  C   UNL     1      23.163   2.811  17.153  0.00  0.00    +0.000 A 
ATOM      2  C   UNL     1      23.592   2.621  18.432  0.00  0.00    +0.000 A 
ATOM      3  C   UNL     1      24.690   3.261  18.962  0.00  0.00    +0.000 A 
ATOM      4  C   UNL     1      25.396   4.147  18.156  0.00  0.00    +0.000 A 
ATOM      5  N   UNL     1      26.489   4.921  18.393  0.00  0.00    +0.000 NA
ATOM      6  C   UNL     1      26.796   5.613  17.314  0.00  0.00    +0.000 A 
ATOM      7  C   UNL     1      25.865   5.275  16.332  0.00  0.00    +0.000 A 
ATOM      8  C   UNL     1      24.986   4.363  16.844  0.00  0.00    +0.000 A 
ATOM      9  C   UNL     1      23.883   3.690  16.380  0.00  0.00    +0.000 A 
ATOM     10  C   UNL     1      26.022   5.920  15.033  0.00  0.00    +0.000 C 
ATOM     11  C   UNL     1      27.453   6.042  14.617  0.00  0.00    +0.000 C 
ATOM     12  C   UNL     1      28.322   6.748  15.627  0.00  0.00    +0.000 C 
ATOM     13  C   UNL     1      27.846   6.595  17.024  0.00  0.00    +0.000 C 
ATOM     14  N   UNL     1      28.358   7.331  17.938  0.00  0.00    +0.000 NA
ATOM     15  O   UNL     1      27.883   7.164  19.230  0.00  0.00    +0.000 OA
ENDROOT
BRANCH   1  17
ATOM     16  C   UNL     1      21.581   2.610  15.240  0.00  0.00    +0.000 C 
ATOM     17  C   UNL     1      21.938   2.131  16.612  0.00  0.00    +0.000 C 
ATOM     18  C   UNL     1      20.840   2.291  17.631  0.00  0.00    +0.000 C 
ATOM     19  C   UNL     1      22.211   0.611  16.539  0.00  0.00    +0.000 C 
ENDBRANCH   1  17
TORSDOF 1
ENDMDL
MODEL 9
REMARK VINA RESULT:      -6.0     20.420     23.695
REMARK  Name = 
REMARK  1 active torsions:
REMARK  status: ('A' for Active; 'I' for Inactive)
REMARK    1  A    between atoms: C_2  and  C_5
REMARK                            x       y       z     vdW  Elec       q    Type
REMARK                         _______ _______ _______ _____ _____    ______ ____
ROOT
ATOM      1  C   UNL     1      17.988   9.730  38.635  0.00  0.00    +0.000 A 
ATOM      2  C   UNL     1      16.901  10.052  39.390  0.00  0.00    +0.000 A 
ATOM      3  C   UNL     1      16.461   9.284  40.445  0.00  0.00    +0.000 A 
ATOM      4  C   UNL     1      17.158   8.123  40.759  0.00  0.00    +0.000 A 
ATOM      5  N   UNL     1      16.980   7.186  41.728  0.00  0.00    +0.000 NA
ATOM      6  C   UNL     1      17.910   6.257  41.637  0.00  0.00    +0.000 A 
ATOM      7  C   UNL     1      18.728   6.601  40.562  0.00  0.00    +0.000 A 
ATOM      8  C   UNL     1      18.272   7.763  40.006  0.00  0.00    +0.000 A 
ATOM      9  C   UNL     1      18.655   8.574  38.966  0.00  0.00    +0.000 A 
ATOM     10  C   UNL     1      19.832   5.694  40.264  0.00  0.00    +0.000 C 
ATOM     11  C   UNL     1      19.454   4.255  40.413  0.00  0.00    +0.000 C 
ATOM     12  C   UNL     1      18.885   3.913  41.767  0.00  0.00    +0.000 C 
ATOM     13  C   UNL     1      18.196   5.052  42.423  0.00  0.00    +0.000 C 
ATOM     14  N   UNL     1      17.877   4.955  43.658  0.00  0.00    +0.000 NA
ATOM     15  O   UNL     1      17.241   6.042  44.238  0.00  0.00    +0.000 OA
ENDROOT
BRANCH   1  17
ATOM     16  C   UNL     1      19.221   9.836  36.474  0.00  0.00    +0.000 C 
ATOM     17  C   UNL     1      18.471  10.606  37.515  0.00  0.00    +0.000 C 
ATOM     18  C   UNL     1      19.249  11.742  38.128  0.00  0.00    +0.000 C 
ATOM     19  C   UNL     1      17.246  11.265  36.843  0.00  0.00    +0.000 C 
ENDBRANCH   1  17
TORSDOF 1
ENDMDL
MODEL 10
REMARK VINA RESULT:      -6.0     31.948     33.450
REMARK  Name = 
REMARK  1 active torsions:
REMARK  status: ('A' for Active; 'I' for Inactive)
REMARK    1  A    between atoms: C_2  and  C_5
REMARK                            x       y       z     vdW  Elec       q    Type
REMARK                         _______ _______ _______ _____ _____    ______ ____
ROOT
ATOM      1  C   UNL     1      22.745 -10.668  26.534  0.00  0.00    +0.000 A 
ATOM      2  C   UNL     1      23.209  -9.871  25.531  0.00  0.00    +0.000 A 
ATOM      3  C   UNL     1      22.545  -8.746  25.093  0.00  0.00    +0.000 A 
ATOM      4  C   UNL     1      21.344  -8.403  25.703  0.00  0.00    +0.000 A 
ATOM      5  N   UNL     1      20.484  -7.369  25.505  0.00  0.00    +0.000 NA
ATOM      6  C   UNL     1      19.469  -7.457  26.340  0.00  0.00    +0.000 A 
ATOM      7  C   UNL     1      19.675  -8.598  27.115  0.00  0.00    +0.000 A 
ATOM      8  C   UNL     1      20.841  -9.196  26.730  0.00  0.00    +0.000 A 
ATOM      9  C   UNL     1      21.554 -10.305  27.115  0.00  0.00    +0.000 A 
ATOM     10  C   UNL     1      18.654  -8.903  28.113  0.00  0.00    +0.000 C 
ATOM     11  C   UNL     1      17.267  -8.644  27.619  0.00  0.00    +0.000 C 
ATOM     12  C   UNL     1      17.056  -7.240  27.110  0.00  0.00    +0.000 C 
ATOM     13  C   UNL     1      18.289  -6.616  26.568  0.00  0.00    +0.000 C 
ATOM     14  N   UNL     1      18.292  -5.360  26.323  0.00  0.00    +0.000 NA
ATOM     15  O   UNL     1      19.464  -4.813  25.824  0.00  0.00    +0.000 OA
ENDROOT
BRANCH   1  17
ATOM     16  C   UNL     1      24.980 -11.607  27.100  0.00  0.00    +0.000 C 
ATOM     17  C   UNL     1      23.509 -11.866  27.019  0.00  0.00    +0.000 C 
ATOM     18  C   UNL     1      23.131 -13.033  26.144  0.00  0.00    +0.000 C 
ATOM     19  C   UNL     1      23.002 -12.234  28.432  0.00  0.00    +0.000 C 
ENDBRANCH   1  17
TORSDOF 1
ENDMDL
