MODEL 1
REMARK VINA RESULT:      -8.4      0.000      0.000
REMARK  Name = 
REMARK  6 active torsions:
REMARK  status: ('A' for Active; 'I' for Inactive)
REMARK    1  A    between atoms: C_2  and  O_3
REMARK    2  A    between atoms: O_3  and  C_4
REMARK    3  A    between atoms: C_7  and  N_8
REMARK    4  A    between atoms: C_10  and  C_11
REMARK    5  A    between atoms: N_13  and  C_14
REMARK    6  A    between atoms: C_17  and  C_18
REMARK                            x       y       z     vdW  Elec       q    Type
REMARK                         _______ _______ _______ _____ _____    ______ ____
ROOT
ATOM      1  N   UNL     1      38.776   5.523  16.939  0.00  0.00    +0.000 N 
ATOM      2  N   UNL     1      38.253   4.300  16.976  0.00  0.00    +0.000 NA
ATOM      3  C   UNL     1      37.306   3.911  16.124  0.00  0.00    +0.000 A 
ATOM      4  C   UNL     1      36.841   4.785  15.167  0.00  0.00    +0.000 A 
ATOM      5  C   UNL     1      35.873   4.439  14.270  0.00  0.00    +0.000 A 
ATOM      6  C   UNL     1      35.415   5.311  13.322  0.00  0.00    +0.000 A 
ATOM      7  C   UNL     1      35.936   6.581  13.259  0.00  0.00    +0.000 A 
ATOM      8  C   UNL     1      36.914   6.964  14.149  0.00  0.00    +0.000 A 
ATOM      9  C   UNL     1      37.357   6.069  15.092  0.00  0.00    +0.000 A 
ATOM     10  C   UNL     1      38.341   6.380  16.025  0.00  0.00    +0.000 A 
ATOM     11  O   UNL     1      38.852   7.535  16.009  0.00  0.00    +0.000 OA
ENDROOT
BRANCH   1  15
ATOM     12  C   UNL     1      41.757   6.639  19.706  0.00  0.00    +0.000 A 
ATOM     13  C   UNL     1      42.046   6.479  18.375  0.00  0.00    +0.000 A 
ATOM     14  C   UNL     1      41.081   6.110  17.434  0.00  0.00    +0.000 A 
ATOM     15  C   UNL     1      39.790   5.901  17.872  0.00  0.00    +0.000 A 
ATOM     16  C   UNL     1      39.461   6.052  19.203  0.00  0.00    +0.000 A 
ATOM     17  C   UNL     1      40.441   6.416  20.095  0.00  0.00    +0.000 A 
BRANCH  12  18
ATOM     18  O   UNL     1      42.658   6.997  20.674  0.00  0.00    +0.000 OA
BRANCH  18  20
ATOM     19  C   UNL     1      43.841   6.637  22.689  0.00  0.00    +0.000 C 
ATOM     20  C   UNL     1      43.493   6.057  21.324  0.00  0.00    +0.000 C 
ENDBRANCH  18  20
ENDBRANCH  12  18
ENDBRANCH   1  15
BRANCH   3  21
ATOM     21  C   UNL     1      36.734   2.550  16.176  0.00  0.00    +0.000 C 
ATOM     22  O   UNL     1      35.549   2.389  16.537  0.00  0.00    +0.000 OA
ATOM     23  N   UNL     1      37.512   1.425  15.824  0.00  0.00    +0.000 NA
BRANCH  23  24
ATOM     24  C   UNL     1      36.939   0.099  15.879  0.00  0.00    +0.000 A 
ATOM     25  C   UNL     1      36.579  -0.469  17.073  0.00  0.00    +0.000 A 
ATOM     26  C   UNL     1      36.039  -1.732  17.078  0.00  0.00    +0.000 A 
ATOM     27  C   UNL     1      35.832  -2.472  15.932  0.00  0.00    +0.000 A 
ATOM     28  C   UNL     1      36.212  -1.855  14.744  0.00  0.00    +0.000 A 
ATOM     29  C   UNL     1      36.751  -0.603  14.709  0.00  0.00    +0.000 A 
BRANCH  27  30
ATOM     30  C   UNL     1      35.245  -3.836  15.973  0.00  0.00    +0.000 C 
ATOM     31  C   UNL     1      36.298  -4.896  16.220  0.00  0.00    +0.000 C 
ATOM     32  C   UNL     1      34.551  -4.188  14.673  0.00  0.00    +0.000 C 
ENDBRANCH  27  30
ENDBRANCH  23  24
ENDBRANCH   3  21
TORSDOF 6
ENDMDL
MODEL 2
REMARK VINA RESULT:      -8.3     24.736     26.862
REMARK  Name = 
REMARK  6 active torsions:
REMARK  status: ('A' for Active; 'I' for Inactive)
REMARK    1  A    between atoms: C_2  and  O_3
REMARK    2  A    between atoms: O_3  and  C_4
REMARK    3  A    between atoms: C_7  and  N_8
REMARK    4  A    between atoms: C_10  and  C_11
REMARK    5  A    between atoms: N_13  and  C_14
REMARK    6  A    between atoms: C_17  and  C_18
REMARK                            x       y       z     vdW  Elec       q    Type
REMARK                         _______ _______ _______ _____ _____    ______ ____
ROOT
ATOM      1  N   UNL     1      13.771   0.328  30.591  0.00  0.00    +0.000 N 
ATOM      2  N   UNL     1      14.644   0.094  29.615  0.00  0.00    +0.000 NA
ATOM      3  C   UNL     1      14.321   0.229  28.330  0.00  0.00    +0.000 A 
ATOM      4  C   UNL     1      13.048   0.622  27.980  0.00  0.00    +0.000 A 
ATOM      5  C   UNL     1      12.663   0.776  26.680  0.00  0.00    +0.000 A 
ATOM      6  C   UNL     1      11.398   1.166  26.338  0.00  0.00    +0.000 A 
ATOM      7  C   UNL     1      10.474   1.414  27.324  0.00  0.00    +0.000 A 
ATOM      8  C   UNL     1      10.828   1.269  28.646  0.00  0.00    +0.000 A 
ATOM      9  C   UNL     1      12.106   0.876  28.964  0.00  0.00    +0.000 A 
ATOM     10  C   UNL     1      12.540   0.707  30.274  0.00  0.00    +0.000 A 
ATOM     11  O   UNL     1      11.728   0.923  31.218  0.00  0.00    +0.000 OA
ENDROOT
BRANCH   1  15
ATOM     12  C   UNL     1      14.913  -0.152  34.623  0.00  0.00    +0.000 A 
ATOM     13  C   UNL     1      14.955   1.075  34.013  0.00  0.00    +0.000 A 
ATOM     14  C   UNL     1      14.584   1.267  32.680  0.00  0.00    +0.000 A 
ATOM     15  C   UNL     1      14.159   0.171  31.957  0.00  0.00    +0.000 A 
ATOM     16  C   UNL     1      14.103  -1.080  32.537  0.00  0.00    +0.000 A 
ATOM     17  C   UNL     1      14.477  -1.223  33.851  0.00  0.00    +0.000 A 
BRANCH  12  18
ATOM     18  O   UNL     1      15.264  -0.403  35.923  0.00  0.00    +0.000 OA
BRANCH  18  20
ATOM     19  C   UNL     1      13.381  -0.409  37.352  0.00  0.00    +0.000 C 
ATOM     20  C   UNL     1      14.507  -1.251  36.768  0.00  0.00    +0.000 C 
ENDBRANCH  18  20
ENDBRANCH  12  18
ENDBRANCH   1  15
BRANCH   3  21
ATOM     21  C   UNL     1      15.300  -0.034  27.257  0.00  0.00    +0.000 C 
ATOM     22  O   UNL     1      14.940  -0.630  26.220  0.00  0.00    +0.000 OA
ATOM     23  N   UNL     1      16.644   0.381  27.387  0.00  0.00    +0.000 NA
BRANCH  23  24
ATOM     24  C   UNL     1      17.592   0.118  26.328  0.00  0.00    +0.000 A 
ATOM     25  C   UNL     1      17.972   1.103  25.455  0.00  0.00    +0.000 A 
ATOM     26  C   UNL     1      18.876   0.807  24.464  0.00  0.00    +0.000 A 
ATOM     27  C   UNL     1      19.433  -0.443  24.295  0.00  0.00    +0.000 A 
ATOM     28  C   UNL     1      19.017  -1.412  25.204  0.00  0.00    +0.000 A 
ATOM     29  C   UNL     1      18.122  -1.147  26.197  0.00  0.00    +0.000 A 
BRANCH  27  30
ATOM     30  C   UNL     1      20.409  -0.729  23.211  0.00  0.00    +0.000 C 
ATOM     31  C   UNL     1      20.341   0.305  22.106  0.00  0.00    +0.000 C 
ATOM     32  C   UNL     1      20.162  -2.082  22.575  0.00  0.00    +0.000 C 
ENDBRANCH  27  30
ENDBRANCH  23  24
ENDBRANCH   3  21
TORSDOF 6
ENDMDL
MODEL 3
REMARK VINA RESULT:      -8.0      1.838      9.139
REMARK  Name = 
REMARK  6 active torsions:
REMARK  status: ('A' for Active; 'I' for Inactive)
REMARK    1  A    between atoms: C_2  and  O_3
REMARK    2  A    between atoms: O_3  and  C_4
REMARK    3  A    between atoms: C_7  and  N_8
REMARK    4  A    between atoms: C_10  and  C_11
REMARK    5  A    between atoms: N_13  and  C_14
REMARK    6  A    between atoms: C_17  and  C_18
REMARK                            x       y       z     vdW  Elec       q    Type
REMARK                         _______ _______ _______ _____ _____    ______ ____
ROOT
ATOM      1  N   UNL     1      36.528   2.601  15.941  0.00  0.00    +0.000 N 
ATOM      2  N   UNL     1      37.478   3.287  16.573  0.00  0.00    +0.000 NA
ATOM      3  C   UNL     1      37.752   4.555  16.274  0.00  0.00    +0.000 A 
ATOM      4  C   UNL     1      37.041   5.196  15.283  0.00  0.00    +0.000 A 
ATOM      5  C   UNL     1      37.279   6.493  14.936  0.00  0.00    +0.000 A 
ATOM      6  C   UNL     1      36.570   7.125  13.952  0.00  0.00    +0.000 A 
ATOM      7  C   UNL     1      35.583   6.442  13.282  0.00  0.00    +0.000 A 
ATOM      8  C   UNL     1      35.316   5.132  13.606  0.00  0.00    +0.000 A 
ATOM      9  C   UNL     1      36.043   4.520  14.599  0.00  0.00    +0.000 A 
ATOM     10  C   UNL     1      35.833   3.200  14.984  0.00  0.00    +0.000 A 
ATOM     11  O   UNL     1      34.936   2.530  14.398  0.00  0.00    +0.000 OA
ENDROOT
BRANCH   1  15
ATOM     12  C   UNL     1      35.770  -1.418  16.970  0.00  0.00    +0.000 A 
ATOM     13  C   UNL     1      35.013  -0.397  17.485  0.00  0.00    +0.000 A 
ATOM     14  C   UNL     1      35.239   0.943  17.164  0.00  0.00    +0.000 A 
ATOM     15  C   UNL     1      36.267   1.241  16.293  0.00  0.00    +0.000 A 
ATOM     16  C   UNL     1      37.050   0.241  15.755  0.00  0.00    +0.000 A 
ATOM     17  C   UNL     1      36.793  -1.065  16.098  0.00  0.00    +0.000 A 
BRANCH  12  18
ATOM     18  O   UNL     1      35.597  -2.749  17.247  0.00  0.00    +0.000 OA
BRANCH  18  20
ATOM     19  C   UNL     1      34.331  -3.728  15.507  0.00  0.00    +0.000 C 
ATOM     20  C   UNL     1      35.661  -3.751  16.248  0.00  0.00    +0.000 C 
ENDBRANCH  18  20
ENDBRANCH  12  18
ENDBRANCH   1  15
BRANCH   3  21
ATOM     21  C   UNL     1      38.808   5.304  16.983  0.00  0.00    +0.000 C 
ATOM     22  O   UNL     1      39.954   5.378  16.490  0.00  0.00    +0.000 OA
ATOM     23  N   UNL     1      38.540   5.939  18.215  0.00  0.00    +0.000 NA
BRANCH  23  24
ATOM     24  C   UNL     1      39.584   6.670  18.898  0.00  0.00    +0.000 A 
ATOM     25  C   UNL     1      40.520   6.023  19.662  0.00  0.00    +0.000 A 
ATOM     26  C   UNL     1      41.494   6.758  20.294  0.00  0.00    +0.000 A 
ATOM     27  C   UNL     1      41.586   8.131  20.200  0.00  0.00    +0.000 A 
ATOM     28  C   UNL     1      40.615   8.745  19.415  0.00  0.00    +0.000 A 
ATOM     29  C   UNL     1      39.637   8.041  18.777  0.00  0.00    +0.000 A 
BRANCH  27  30
ATOM     30  C   UNL     1      42.653   8.895  20.897  0.00  0.00    +0.000 C 
ATOM     31  C   UNL     1      42.233  10.324  21.175  0.00  0.00    +0.000 C 
ATOM     32  C   UNL     1      43.927   8.954  20.079  0.00  0.00    +0.000 C 
ENDBRANCH  27  30
ENDBRANCH  23  24
ENDBRANCH   3  21
TORSDOF 6
ENDMDL
MODEL 4
REMARK VINA RESULT:      -7.8      5.067      9.323
REMARK  Name = 
REMARK  6 active torsions:
REMARK  status: ('A' for Active; 'I' for Inactive)
REMARK    1  A    between atoms: C_2  and  O_3
REMARK    2  A    between atoms: O_3  and  C_4
REMARK    3  A    between atoms: C_7  and  N_8
REMARK    4  A    between atoms: C_10  and  C_11
REMARK    5  A    between atoms: N_13  and  C_14
REMARK    6  A    between atoms: C_17  and  C_18
REMARK                            x       y       z     vdW  Elec       q    Type
REMARK                         _______ _______ _______ _____ _____    ______ ____
ROOT
ATOM      1  N   UNL     1      39.933  -1.798  14.688  0.00  0.00    +0.000 N 
ATOM      2  N   UNL     1      39.210  -0.764  14.264  0.00  0.00    +0.000 NA
ATOM      3  C   UNL     1      38.143  -0.327  14.930  0.00  0.00    +0.000 A 
ATOM      4  C   UNL     1      37.759  -0.950  16.097  0.00  0.00    +0.000 A 
ATOM      5  C   UNL     1      36.675  -0.544  16.819  0.00  0.00    +0.000 A 
ATOM      6  C   UNL     1      36.298  -1.166  17.977  0.00  0.00    +0.000 A 
ATOM      7  C   UNL     1      37.025  -2.237  18.440  0.00  0.00    +0.000 A 
ATOM      8  C   UNL     1      38.124  -2.674  17.737  0.00  0.00    +0.000 A 
ATOM      9  C   UNL     1      38.482  -2.031  16.576  0.00  0.00    +0.000 A 
ATOM     10  C   UNL     1      39.578  -2.412  15.809  0.00  0.00    +0.000 A 
ATOM     11  O   UNL     1      40.279  -3.391  16.193  0.00  0.00    +0.000 OA
ENDROOT
BRANCH   1  15
ATOM     12  C   UNL     1      43.301  -3.079  12.496  0.00  0.00    +0.000 A 
ATOM     13  C   UNL     1      42.035  -3.487  12.159  0.00  0.00    +0.000 A 
ATOM     14  C   UNL     1      40.900  -3.080  12.865  0.00  0.00    +0.000 A 
ATOM     15  C   UNL     1      41.070  -2.235  13.943  0.00  0.00    +0.000 A 
ATOM     16  C   UNL     1      42.328  -1.804  14.312  0.00  0.00    +0.000 A 
ATOM     17  C   UNL     1      43.417  -2.228  13.590  0.00  0.00    +0.000 A 
BRANCH  12  18
ATOM     18  O   UNL     1      44.450  -3.443  11.845  0.00  0.00    +0.000 OA
BRANCH  18  20
ATOM     19  C   UNL     1      45.522  -5.365  10.982  0.00  0.00    +0.000 C 
ATOM     20  C   UNL     1      44.450  -4.313  10.728  0.00  0.00    +0.000 C 
ENDBRANCH  18  20
ENDBRANCH  12  18
ENDBRANCH   1  15
BRANCH   3  21
ATOM     21  C   UNL     1      37.350   0.821  14.448  0.00  0.00    +0.000 C 
ATOM     22  O   UNL     1      36.480   0.649  13.569  0.00  0.00    +0.000 OA
ATOM     23  N   UNL     1      37.564   2.116  14.969  0.00  0.00    +0.000 NA
BRANCH  23  24
ATOM     24  C   UNL     1      36.780   3.232  14.488  0.00  0.00    +0.000 A 
ATOM     25  C   UNL     1      35.527   3.484  14.982  0.00  0.00    +0.000 A 
ATOM     26  C   UNL     1      34.819   4.556  14.495  0.00  0.00    +0.000 A 
ATOM     27  C   UNL     1      35.304   5.407  13.524  0.00  0.00    +0.000 A 
ATOM     28  C   UNL     1      36.579   5.112  13.052  0.00  0.00    +0.000 A 
ATOM     29  C   UNL     1      37.306   4.055  13.516  0.00  0.00    +0.000 A 
BRANCH  27  30
ATOM     30  C   UNL     1      34.510   6.557  13.020  0.00  0.00    +0.000 C 
ATOM     31  C   UNL     1      35.396   7.654  12.466  0.00  0.00    +0.000 C 
ATOM     32  C   UNL     1      33.662   7.175  14.113  0.00  0.00    +0.000 C 
ENDBRANCH  27  30
ENDBRANCH  23  24
ENDBRANCH   3  21
TORSDOF 6
ENDMDL
MODEL 5
REMARK VINA RESULT:      -7.8      2.716      6.749
REMARK  Name = 
REMARK  6 active torsions:
REMARK  status: ('A' for Active; 'I' for Inactive)
REMARK    1  A    between atoms: C_2  and  O_3
REMARK    2  A    between atoms: O_3  and  C_4
REMARK    3  A    between atoms: C_7  and  N_8
REMARK    4  A    between atoms: C_10  and  C_11
REMARK    5  A    between atoms: N_13  and  C_14
REMARK    6  A    between atoms: C_17  and  C_18
REMARK                            x       y       z     vdW  Elec       q    Type
REMARK                         _______ _______ _______ _____ _____    ______ ____
ROOT
ATOM      1  N   UNL     1      36.563   5.769  14.017  0.00  0.00    +0.000 N 
ATOM      2  N   UNL     1      36.654   4.458  14.227  0.00  0.00    +0.000 NA
ATOM      3  C   UNL     1      37.261   3.955  15.301  0.00  0.00    +0.000 A 
ATOM      4  C   UNL     1      37.817   4.801  16.234  0.00  0.00    +0.000 A 
ATOM      5  C   UNL     1      38.449   4.340  17.352  0.00  0.00    +0.000 A 
ATOM      6  C   UNL     1      39.000   5.184  18.276  0.00  0.00    +0.000 A 
ATOM      7  C   UNL     1      38.923   6.542  18.086  0.00  0.00    +0.000 A 
ATOM      8  C   UNL     1      38.292   7.042  16.970  0.00  0.00    +0.000 A 
ATOM      9  C   UNL     1      37.746   6.173  16.056  0.00  0.00    +0.000 A 
ATOM     10  C   UNL     1      37.093   6.599  14.904  0.00  0.00    +0.000 A 
ATOM     11  O   UNL     1      36.995   7.840  14.684  0.00  0.00    +0.000 OA
ENDROOT
BRANCH   1  15
ATOM     12  C   UNL     1      34.604   7.239  10.583  0.00  0.00    +0.000 A 
ATOM     13  C   UNL     1      35.935   6.911  10.557  0.00  0.00    +0.000 A 
ATOM     14  C   UNL     1      36.612   6.422  11.677  0.00  0.00    +0.000 A 
ATOM     15  C   UNL     1      35.905   6.267  12.851  0.00  0.00    +0.000 A 
ATOM     16  C   UNL     1      34.564   6.586  12.916  0.00  0.00    +0.000 A 
ATOM     17  C   UNL     1      33.937   7.064  11.791  0.00  0.00    +0.000 A 
BRANCH  12  18
ATOM     18  O   UNL     1      33.886   7.722   9.521  0.00  0.00    +0.000 OA
BRANCH  18  20
ATOM     19  C   UNL     1      33.409   6.465   7.577  0.00  0.00    +0.000 C 
ATOM     20  C   UNL     1      34.299   7.545   8.178  0.00  0.00    +0.000 C 
ENDBRANCH  18  20
ENDBRANCH  12  18
ENDBRANCH   1  15
BRANCH   3  21
ATOM     21  C   UNL     1      37.354   2.498  15.521  0.00  0.00    +0.000 C 
ATOM     22  O   UNL     1      38.441   1.911  15.335  0.00  0.00    +0.000 OA
ATOM     23  N   UNL     1      36.228   1.757  15.941  0.00  0.00    +0.000 NA
BRANCH  23  24
ATOM     24  C   UNL     1      36.333   0.331  16.154  0.00  0.00    +0.000 A 
ATOM     25  C   UNL     1      36.462  -0.190  17.415  0.00  0.00    +0.000 A 
ATOM     26  C   UNL     1      36.560  -1.552  17.570  0.00  0.00    +0.000 A 
ATOM     27  C   UNL     1      36.533  -2.438  16.513  0.00  0.00    +0.000 A 
ATOM     28  C   UNL     1      36.402  -1.864  15.252  0.00  0.00    +0.000 A 
ATOM     29  C   UNL     1      36.303  -0.516  15.068  0.00  0.00    +0.000 A 
BRANCH  27  30
ATOM     30  C   UNL     1      36.641  -3.906  16.716  0.00  0.00    +0.000 C 
ATOM     31  C   UNL     1      38.082  -4.351  16.859  0.00  0.00    +0.000 C 
ATOM     32  C   UNL     1      36.047  -4.679  15.556  0.00  0.00    +0.000 C 
ENDBRANCH  27  30
ENDBRANCH  23  24
ENDBRANCH   3  21
TORSDOF 6
ENDMDL
MODEL 6
REMARK VINA RESULT:      -7.7     23.904     26.253
REMARK  Name = 
REMARK  6 active torsions:
REMARK  status: ('A' for Active; 'I' for Inactive)
REMARK    1  A    between atoms: C_2  and  O_3
REMARK    2  A    between atoms: O_3  and  C_4
REMARK    3  A    between atoms: C_7  and  N_8
REMARK    4  A    between atoms: C_10  and  C_11
REMARK    5  A    between atoms: N_13  and  C_14
REMARK    6  A    between atoms: C_17  and  C_18
REMARK                            x       y       z     vdW  Elec       q    Type
REMARK                         _______ _______ _______ _____ _____    ______ ____
ROOT
ATOM      1  N   UNL     1      15.798  -4.751   7.137  0.00  0.00    +0.000 N 
ATOM      2  N   UNL     1      16.297  -3.952   6.196  0.00  0.00    +0.000 NA
ATOM      3  C   UNL     1      15.853  -2.710   6.016  0.00  0.00    +0.000 A 
ATOM      4  C   UNL     1      14.849  -2.216   6.818  0.00  0.00    +0.000 A 
ATOM      5  C   UNL     1      14.357  -0.951   6.678  0.00  0.00    +0.000 A 
ATOM      6  C   UNL     1      13.360  -0.465   7.476  0.00  0.00    +0.000 A 
ATOM      7  C   UNL     1      12.824  -1.266   8.456  0.00  0.00    +0.000 A 
ATOM      8  C   UNL     1      13.296  -2.548   8.626  0.00  0.00    +0.000 A 
ATOM      9  C   UNL     1      14.300  -3.012   7.810  0.00  0.00    +0.000 A 
ATOM     10  C   UNL     1      14.829  -4.293   7.919  0.00  0.00    +0.000 A 
ATOM     11  O   UNL     1      14.371  -5.069   8.805  0.00  0.00    +0.000 OA
ENDROOT
BRANCH   1  15
ATOM     12  C   UNL     1      17.296  -8.663   7.618  0.00  0.00    +0.000 A 
ATOM     13  C   UNL     1      16.368  -8.371   6.652  0.00  0.00    +0.000 A 
ATOM     14  C   UNL     1      15.852  -7.086   6.468  0.00  0.00    +0.000 A 
ATOM     15  C   UNL     1      16.302  -6.078   7.296  0.00  0.00    +0.000 A 
ATOM     16  C   UNL     1      17.236  -6.333   8.278  0.00  0.00    +0.000 A 
ATOM     17  C   UNL     1      17.716  -7.612   8.425  0.00  0.00    +0.000 A 
BRANCH  12  18
ATOM     18  O   UNL     1      17.838  -9.901   7.847  0.00  0.00    +0.000 OA
BRANCH  18  20
ATOM     19  C   UNL     1      19.756 -10.019   6.472  0.00  0.00    +0.000 C 
ATOM     20  C   UNL     1      18.428 -10.678   6.821  0.00  0.00    +0.000 C 
ENDBRANCH  18  20
ENDBRANCH  12  18
ENDBRANCH   1  15
BRANCH   3  21
ATOM     21  C   UNL     1      16.416  -1.835   4.968  0.00  0.00    +0.000 C 
ATOM     22  O   UNL     1      16.096  -2.011   3.774  0.00  0.00    +0.000 OA
ATOM     23  N   UNL     1      17.316  -0.797   5.299  0.00  0.00    +0.000 NA
BRANCH  23  24
ATOM     24  C   UNL     1      17.859   0.052   4.263  0.00  0.00    +0.000 A 
ATOM     25  C   UNL     1      17.103   1.039   3.686  0.00  0.00    +0.000 A 
ATOM     26  C   UNL     1      17.661   1.823   2.705  0.00  0.00    +0.000 A 
ATOM     27  C   UNL     1      18.958   1.671   2.261  0.00  0.00    +0.000 A 
ATOM     28  C   UNL     1      19.687   0.657   2.875  0.00  0.00    +0.000 A 
ATOM     29  C   UNL     1      19.160  -0.136   3.850  0.00  0.00    +0.000 A 
BRANCH  27  30
ATOM     30  C   UNL     1      19.530   2.537   1.197  0.00  0.00    +0.000 C 
ATOM     31  C   UNL     1      18.456   3.317   0.468  0.00  0.00    +0.000 C 
ATOM     32  C   UNL     1      20.280   1.728   0.158  0.00  0.00    +0.000 C 
ENDBRANCH  27  30
ENDBRANCH  23  24
ENDBRANCH   3  21
TORSDOF 6
ENDMDL
MODEL 7
REMARK VINA RESULT:      -7.6     25.274     27.592
REMARK  Name = 
REMARK  6 active torsions:
REMARK  status: ('A' for Active; 'I' for Inactive)
REMARK    1  A    between atoms: C_2  and  O_3
REMARK    2  A    between atoms: O_3  and  C_4
REMARK    3  A    between atoms: C_7  and  N_8
REMARK    4  A    between atoms: C_10  and  C_11
REMARK    5  A    between atoms: N_13  and  C_14
REMARK    6  A    between atoms: C_17  and  C_18
REMARK                            x       y       z     vdW  Elec       q    Type
REMARK                         _______ _______ _______ _____ _____    ______ ____
ROOT
ATOM      1  N   UNL     1      15.486   0.183  27.201  0.00  0.00    +0.000 N 
ATOM      2  N   UNL     1      14.229   0.192  26.762  0.00  0.00    +0.000 NA
ATOM      3  C   UNL     1      13.191   0.240  27.594  0.00  0.00    +0.000 A 
ATOM      4  C   UNL     1      13.402   0.283  28.955  0.00  0.00    +0.000 A 
ATOM      5  C   UNL     1      12.375   0.334  29.852  0.00  0.00    +0.000 A 
ATOM      6  C   UNL     1      12.590   0.376  31.202  0.00  0.00    +0.000 A 
ATOM      7  C   UNL     1      13.877   0.366  31.684  0.00  0.00    +0.000 A 
ATOM      8  C   UNL     1      14.937   0.316  30.808  0.00  0.00    +0.000 A 
ATOM      9  C   UNL     1      14.694   0.275  29.456  0.00  0.00    +0.000 A 
ATOM     10  C   UNL     1      15.709   0.223  28.507  0.00  0.00    +0.000 A 
ATOM     11  O   UNL     1      16.910   0.213  28.901  0.00  0.00    +0.000 OA
ENDROOT
BRANCH   1  15
ATOM     12  C   UNL     1      18.691   0.043  24.464  0.00  0.00    +0.000 A 
ATOM     13  C   UNL     1      18.023  -1.096  24.835  0.00  0.00    +0.000 A 
ATOM     14  C   UNL     1      16.958  -1.082  25.739  0.00  0.00    +0.000 A 
ATOM     15  C   UNL     1      16.571   0.130  26.274  0.00  0.00    +0.000 A 
ATOM     16  C   UNL     1      17.219   1.296  25.923  0.00  0.00    +0.000 A 
ATOM     17  C   UNL     1      18.262   1.238  25.031  0.00  0.00    +0.000 A 
BRANCH  12  18
ATOM     18  O   UNL     1      19.741   0.094  23.585  0.00  0.00    +0.000 OA
BRANCH  18  20
ATOM     19  C   UNL     1      20.575  -1.012  21.669  0.00  0.00    +0.000 C 
ATOM     20  C   UNL     1      20.459  -1.060  23.187  0.00  0.00    +0.000 C 
ENDBRANCH  18  20
ENDBRANCH  12  18
ENDBRANCH   1  15
BRANCH   3  21
ATOM     21  C   UNL     1      11.801   0.251  27.094  0.00  0.00    +0.000 C 
ATOM     22  O   UNL     1      11.105  -0.783  27.176  0.00  0.00    +0.000 OA
ATOM     23  N   UNL     1      11.249   1.417  26.521  0.00  0.00    +0.000 NA
BRANCH  23  24
ATOM     24  C   UNL     1       9.887   1.413  26.035  0.00  0.00    +0.000 A 
ATOM     25  C   UNL     1       8.914   2.161  26.645  0.00  0.00    +0.000 A 
ATOM     26  C   UNL     1       7.633   2.126  26.149  0.00  0.00    +0.000 A 
ATOM     27  C   UNL     1       7.265   1.371  25.055  0.00  0.00    +0.000 A 
ATOM     28  C   UNL     1       8.285   0.629  24.468  0.00  0.00    +0.000 A 
ATOM     29  C   UNL     1       9.565   0.643  24.939  0.00  0.00    +0.000 A 
BRANCH  27  30
ATOM     30  C   UNL     1       5.869   1.357  24.544  0.00  0.00    +0.000 C 
ATOM     31  C   UNL     1       5.823   1.274  23.033  0.00  0.00    +0.000 C 
ATOM     32  C   UNL     1       5.111   2.606  24.948  0.00  0.00    +0.000 C 
ENDBRANCH  27  30
ENDBRANCH  23  24
ENDBRANCH   3  21
TORSDOF 6
ENDMDL
MODEL 8
REMARK VINA RESULT:      -7.6     24.555     26.993
REMARK  Name = 
REMARK  6 active torsions:
REMARK  status: ('A' for Active; 'I' for Inactive)
REMARK    1  A    between atoms: C_2  and  O_3
REMARK    2  A    between atoms: O_3  and  C_4
REMARK    3  A    between atoms: C_7  and  N_8
REMARK    4  A    between atoms: C_10  and  C_11
REMARK    5  A    between atoms: N_13  and  C_14
REMARK    6  A    between atoms: C_17  and  C_18
REMARK                            x       y       z     vdW  Elec       q    Type
REMARK                         _______ _______ _______ _____ _____    ______ ____
ROOT
ATOM      1  N   UNL     1      15.834  -0.060  26.744  0.00  0.00    +0.000 N 
ATOM      2  N   UNL     1      14.632  -0.145  26.178  0.00  0.00    +0.000 NA
ATOM      3  C   UNL     1      13.510  -0.090  26.893  0.00  0.00    +0.000 A 
ATOM      4  C   UNL     1      13.573   0.058  28.261  0.00  0.00    +0.000 A 
ATOM      5  C   UNL     1      12.456   0.121  29.041  0.00  0.00    +0.000 A 
ATOM      6  C   UNL     1      12.523   0.268  30.399  0.00  0.00    +0.000 A 
ATOM      7  C   UNL     1      13.750   0.358  31.011  0.00  0.00    +0.000 A 
ATOM      8  C   UNL     1      14.899   0.299  30.255  0.00  0.00    +0.000 A 
ATOM      9  C   UNL     1      14.803   0.150  28.892  0.00  0.00    +0.000 A 
ATOM     10  C   UNL     1      15.915   0.083  28.060  0.00  0.00    +0.000 A 
ATOM     11  O   UNL     1      17.067   0.161  28.575  0.00  0.00    +0.000 OA
ENDROOT
BRANCH   1  15
ATOM     12  C   UNL     1      19.316  -0.265  24.373  0.00  0.00    +0.000 A 
ATOM     13  C   UNL     1      18.780   0.941  24.746  0.00  0.00    +0.000 A 
ATOM     14  C   UNL     1      17.628   1.042  25.531  0.00  0.00    +0.000 A 
ATOM     15  C   UNL     1      17.014  -0.124  25.940  0.00  0.00    +0.000 A 
ATOM     16  C   UNL     1      17.524  -1.355  25.585  0.00  0.00    +0.000 A 
ATOM     17  C   UNL     1      18.659  -1.409  24.812  0.00  0.00    +0.000 A 
BRANCH  12  18
ATOM     18  O   UNL     1      20.440  -0.428  23.606  0.00  0.00    +0.000 OA
BRANCH  18  20
ATOM     19  C   UNL     1      21.220  -0.776  21.402  0.00  0.00    +0.000 C 
ATOM     20  C   UNL     1      20.542  -1.422  22.603  0.00  0.00    +0.000 C 
ENDBRANCH  18  20
ENDBRANCH  12  18
ENDBRANCH   1  15
BRANCH   3  21
ATOM     21  C   UNL     1      12.183  -0.185  26.253  0.00  0.00    +0.000 C 
ATOM     22  O   UNL     1      11.560   0.856  25.958  0.00  0.00    +0.000 OA
ATOM     23  N   UNL     1      11.606  -1.443  25.968  0.00  0.00    +0.000 NA
BRANCH  23  24
ATOM     24  C   UNL     1      10.306  -1.521  25.341  0.00  0.00    +0.000 A 
ATOM     25  C   UNL     1       9.157  -1.337  26.064  0.00  0.00    +0.000 A 
ATOM     26  C   UNL     1       7.943  -1.421  25.425  0.00  0.00    +0.000 A 
ATOM     27  C   UNL     1       7.813  -1.682  24.076  0.00  0.00    +0.000 A 
ATOM     28  C   UNL     1       9.006  -1.862  23.383  0.00  0.00    +0.000 A 
ATOM     29  C   UNL     1      10.225  -1.785  23.991  0.00  0.00    +0.000 A 
BRANCH  27  30
ATOM     30  C   UNL     1       6.484  -1.766  23.417  0.00  0.00    +0.000 C 
ATOM     31  C   UNL     1       6.332  -0.731  22.322  0.00  0.00    +0.000 C 
ATOM     32  C   UNL     1       5.354  -1.544  24.402  0.00  0.00    +0.000 C 
ENDBRANCH  27  30
ENDBRANCH  23  24
ENDBRANCH   3  21
TORSDOF 6
ENDMDL
MODEL 9
REMARK VINA RESULT:      -7.4     25.194     27.721
REMARK  Name = 
REMARK  6 active torsions:
REMARK  status: ('A' for Active; 'I' for Inactive)
REMARK    1  A    between atoms: C_2  and  O_3
REMARK    2  A    between atoms: O_3  and  C_4
REMARK    3  A    between atoms: C_7  and  N_8
REMARK    4  A    between atoms: C_10  and  C_11
REMARK    5  A    between atoms: N_13  and  C_14
REMARK    6  A    between atoms: C_17  and  C_18
REMARK                            x       y       z     vdW  Elec       q    Type
REMARK                         _______ _______ _______ _____ _____    ______ ____
ROOT
ATOM      1  N   UNL     1      12.540  -0.701  30.039  0.00  0.00    +0.000 N 
ATOM      2  N   UNL     1      13.485  -0.774  29.105  0.00  0.00    +0.000 NA
ATOM      3  C   UNL     1      13.628   0.164  28.170  0.00  0.00    +0.000 A 
ATOM      4  C   UNL     1      12.782   1.251  28.153  0.00  0.00    +0.000 A 
ATOM      5  C   UNL     1      12.884   2.241  27.220  0.00  0.00    +0.000 A 
ATOM      6  C   UNL     1      12.042   3.318  27.207  0.00  0.00    +0.000 A 
ATOM      7  C   UNL     1      11.057   3.421  28.159  0.00  0.00    +0.000 A 
ATOM      8  C   UNL     1      10.925   2.441  29.116  0.00  0.00    +0.000 A 
ATOM      9  C   UNL     1      11.784   1.368  29.107  0.00  0.00    +0.000 A 
ATOM     10  C   UNL     1      11.716   0.338  30.039  0.00  0.00    +0.000 A 
ATOM     11  O   UNL     1      10.827   0.386  30.936  0.00  0.00    +0.000 OA
ENDROOT
BRANCH   1  15
ATOM     12  C   UNL     1      12.199  -3.730  32.955  0.00  0.00    +0.000 A 
ATOM     13  C   UNL     1      11.553  -3.827  31.749  0.00  0.00    +0.000 A 
ATOM     14  C   UNL     1      11.646  -2.841  30.763  0.00  0.00    +0.000 A 
ATOM     15  C   UNL     1      12.421  -1.729  31.023  0.00  0.00    +0.000 A 
ATOM     16  C   UNL     1      13.086  -1.596  32.225  0.00  0.00    +0.000 A 
ATOM     17  C   UNL     1      12.967  -2.590  33.167  0.00  0.00    +0.000 A 
BRANCH  12  18
ATOM     18  O   UNL     1      12.146  -4.661  33.959  0.00  0.00    +0.000 OA
BRANCH  18  20
ATOM     19  C   UNL     1      14.084  -6.003  34.136  0.00  0.00    +0.000 C 
ATOM     20  C   UNL     1      12.601  -5.991  33.790  0.00  0.00    +0.000 C 
ENDBRANCH  18  20
ENDBRANCH  12  18
ENDBRANCH   1  15
BRANCH   3  21
ATOM     21  C   UNL     1      14.681   0.071  27.139  0.00  0.00    +0.000 C 
ATOM     22  O   UNL     1      14.378  -0.251  25.971  0.00  0.00    +0.000 OA
ATOM     23  N   UNL     1      16.030   0.341  27.458  0.00  0.00    +0.000 NA
BRANCH  23  24
ATOM     24  C   UNL     1      17.050   0.247  26.438  0.00  0.00    +0.000 A 
ATOM     25  C   UNL     1      17.545   1.367  25.823  0.00  0.00    +0.000 A 
ATOM     26  C   UNL     1      18.515   1.229  24.860  0.00  0.00    +0.000 A 
ATOM     27  C   UNL     1      19.028   0.009  24.471  0.00  0.00    +0.000 A 
ATOM     28  C   UNL     1      18.496  -1.100  25.121  0.00  0.00    +0.000 A 
ATOM     29  C   UNL     1      17.533  -0.994  26.081  0.00  0.00    +0.000 A 
BRANCH  27  30
ATOM     30  C   UNL     1      20.077  -0.104  23.424  0.00  0.00    +0.000 C 
ATOM     31  C   UNL     1      20.265  -1.535  22.967  0.00  0.00    +0.000 C 
ATOM     32  C   UNL     1      21.421   0.388  23.922  0.00  0.00    +0.000 C 
ENDBRANCH  27  30
ENDBRANCH  23  24
ENDBRANCH   3  21
TORSDOF 6
ENDMDL
MODEL 10
REMARK VINA RESULT:      -7.4     15.603     19.306
REMARK  Name = 
REMARK  6 active torsions:
REMARK  status: ('A' for Active; 'I' for Inactive)
REMARK    1  A    between atoms: C_2  and  O_3
REMARK    2  A    between atoms: O_3  and  C_4
REMARK    3  A    between atoms: C_7  and  N_8
REMARK    4  A    between atoms: C_10  and  C_11
REMARK    5  A    between atoms: N_13  and  C_14
REMARK    6  A    between atoms: C_17  and  C_18
REMARK                            x       y       z     vdW  Elec       q    Type
REMARK                         _______ _______ _______ _____ _____    ______ ____
ROOT
ATOM      1  N   UNL     1      29.684  17.079  21.504  0.00  0.00    +0.000 N 
ATOM      2  N   UNL     1      30.297  17.025  22.684  0.00  0.00    +0.000 NA
ATOM      3  C   UNL     1      31.623  16.961  22.789  0.00  0.00    +0.000 A 
ATOM      4  C   UNL     1      32.402  16.950  21.653  0.00  0.00    +0.000 A 
ATOM      5  C   UNL     1      33.764  16.887  21.702  0.00  0.00    +0.000 A 
ATOM      6  C   UNL     1      34.533  16.877  20.572  0.00  0.00    +0.000 A 
ATOM      7  C   UNL     1      33.928  16.932  19.339  0.00  0.00    +0.000 A 
ATOM      8  C   UNL     1      32.556  16.997  19.252  0.00  0.00    +0.000 A 
ATOM      9  C   UNL     1      31.806  17.006  20.404  0.00  0.00    +0.000 A 
ATOM     10  C   UNL     1      30.417  17.070  20.399  0.00  0.00    +0.000 A 
ATOM     11  O   UNL     1      29.813  17.123  19.291  0.00  0.00    +0.000 OA
ENDROOT
BRANCH   1  15
ATOM     12  C   UNL     1      25.476  17.293  21.310  0.00  0.00    +0.000 A 
ATOM     13  C   UNL     1      26.142  16.122  21.050  0.00  0.00    +0.000 A 
ATOM     14  C   UNL     1      27.534  16.020  21.106  0.00  0.00    +0.000 A 
ATOM     15  C   UNL     1      28.259  17.146  21.437  0.00  0.00    +0.000 A 
ATOM     16  C   UNL     1      27.624  18.342  21.706  0.00  0.00    +0.000 A 
ATOM     17  C   UNL     1      26.253  18.398  21.639  0.00  0.00    +0.000 A 
BRANCH  12  18
ATOM     18  O   UNL     1      24.116  17.456  21.271  0.00  0.00    +0.000 OA
BRANCH  18  20
ATOM     19  C   UNL     1      22.076  18.477  20.653  0.00  0.00    +0.000 C 
ATOM     20  C   UNL     1      23.504  18.724  21.119  0.00  0.00    +0.000 C 
ENDBRANCH  18  20
ENDBRANCH  12  18
ENDBRANCH   1  15
BRANCH   3  21
ATOM     21  C   UNL     1      32.291  16.900  24.105  0.00  0.00    +0.000 C 
ATOM     22  O   UNL     1      32.939  15.882  24.426  0.00  0.00    +0.000 OA
ATOM     23  N   UNL     1      32.206  17.983  25.008  0.00  0.00    +0.000 NA
BRANCH  23  24
ATOM     24  C   UNL     1      32.865  17.910  26.293  0.00  0.00    +0.000 A 
ATOM     25  C   UNL     1      32.213  17.431  27.399  0.00  0.00    +0.000 A 
ATOM     26  C   UNL     1      32.879  17.381  28.600  0.00  0.00    +0.000 A 
ATOM     27  C   UNL     1      34.187  17.790  28.758  0.00  0.00    +0.000 A 
ATOM     28  C   UNL     1      34.808  18.270  27.609  0.00  0.00    +0.000 A 
ATOM     29  C   UNL     1      34.172  18.331  26.404  0.00  0.00    +0.000 A 
BRANCH  27  30
ATOM     30  C   UNL     1      34.877  17.722  30.072  0.00  0.00    +0.000 C 
ATOM     31  C   UNL     1      34.036  17.013  31.114  0.00  0.00    +0.000 C 
ATOM     32  C   UNL     1      35.191  19.102  30.613  0.00  0.00    +0.000 C 
ENDBRANCH  27  30
ENDBRANCH  23  24
ENDBRANCH   3  21
TORSDOF 6
ENDMDL
