MODEL 1
REMARK VINA RESULT:      -6.4      0.000      0.000
REMARK  Name = 
REMARK  3 active torsions:
REMARK  status: ('A' for Active; 'I' for Inactive)
REMARK    1  A    between atoms: C_5  and  C_6
REMARK    2  A    between atoms: C_6  and  C_7
REMARK    3  A    between atoms: C_6  and  C_14
REMARK                            x       y       z     vdW  Elec       q    Type
REMARK                         _______ _______ _______ _____ _____    ______ ____
ROOT
ATOM      1  C   UNL     1      18.294  10.691  38.549  0.00  0.00    +0.000 C 
ENDROOT
BRANCH   1   6
ATOM      2  O   UNL     1      17.211   5.972  41.542  0.00  0.00    +0.000 OA
ATOM      3  C   UNL     1      17.471   7.133  40.810  0.00  0.00    +0.000 A 
ATOM      4  C   UNL     1      16.679   8.258  40.919  0.00  0.00    +0.000 A 
ATOM      5  C   UNL     1      16.913   9.418  40.210  0.00  0.00    +0.000 A 
ATOM      6  C   UNL     1      17.979   9.486  39.343  0.00  0.00    +0.000 A 
ATOM      7  C   UNL     1      18.778   8.366  39.227  0.00  0.00    +0.000 A 
ATOM      8  C   UNL     1      18.539   7.207  39.940  0.00  0.00    +0.000 A 
ENDBRANCH   1   6
BRANCH   1   9
ATOM      9  C   UNL     1      17.875  10.513  37.137  0.00  0.00    +0.000 A 
ATOM     10  C   UNL     1      18.043   9.330  36.441  0.00  0.00    +0.000 A 
ATOM     11  C   UNL     1      17.613   9.283  35.126  0.00  0.00    +0.000 A 
ATOM     12  C   UNL     1      17.028  10.362  34.493  0.00  0.00    +0.000 A 
ATOM     13  O   UNL     1      16.599  10.295  33.161  0.00  0.00    +0.000 OA
ATOM     14  C   UNL     1      16.869  11.534  35.201  0.00  0.00    +0.000 A 
ATOM     15  C   UNL     1      17.292  11.598  36.513  0.00  0.00    +0.000 A 
ENDBRANCH   1   9
BRANCH   1  16
ATOM     16  C   UNL     1      19.725  11.121  38.669  0.00  0.00    +0.000 C 
ATOM     17 CL   UNL     1      20.792  10.314  37.513  0.00  0.00    +0.000 Cl
ATOM     18 CL   UNL     1      19.795  12.874  38.334  0.00  0.00    +0.000 Cl
ATOM     19 CL   UNL     1      20.240  10.874  40.342  0.00  0.00    +0.000 Cl
ENDBRANCH   1  16
TORSDOF 3
ENDMDL
MODEL 2
REMARK VINA RESULT:      -6.3     19.370     21.498
REMARK  Name = 
REMARK  3 active torsions:
REMARK  status: ('A' for Active; 'I' for Inactive)
REMARK    1  A    between atoms: C_5  and  C_6
REMARK    2  A    between atoms: C_6  and  C_7
REMARK    3  A    between atoms: C_6  and  C_14
REMARK                            x       y       z     vdW  Elec       q    Type
REMARK                         _______ _______ _______ _____ _____    ______ ____
ROOT
ATOM      1  C   UNL     1      27.817  23.089  25.138  0.00  0.00    +0.000 C 
ENDROOT
BRANCH   1   6
ATOM      2  O   UNL     1      25.960  23.246  30.517  0.00  0.00    +0.000 OA
ATOM      3  C   UNL     1      26.411  23.212  29.195  0.00  0.00    +0.000 A 
ATOM      4  C   UNL     1      25.836  23.985  28.207  0.00  0.00    +0.000 A 
ATOM      5  C   UNL     1      26.260  23.972  26.894  0.00  0.00    +0.000 A 
ATOM      6  C   UNL     1      27.307  23.159  26.522  0.00  0.00    +0.000 A 
ATOM      7  C   UNL     1      27.889  22.382  27.503  0.00  0.00    +0.000 A 
ATOM      8  C   UNL     1      27.460  22.399  28.816  0.00  0.00    +0.000 A 
ENDBRANCH   1   6
BRANCH   1   9
ATOM      9  C   UNL     1      29.237  23.513  25.080  0.00  0.00    +0.000 A 
ATOM     10  C   UNL     1      29.666  24.775  25.449  0.00  0.00    +0.000 A 
ATOM     11  C   UNL     1      31.017  25.057  25.352  0.00  0.00    +0.000 A 
ATOM     12  C   UNL     1      31.942  24.134  24.905  0.00  0.00    +0.000 A 
ATOM     13  O   UNL     1      33.307  24.438  24.813  0.00  0.00    +0.000 OA
ATOM     14  C   UNL     1      31.498  22.880  24.540  0.00  0.00    +0.000 A 
ATOM     15  C   UNL     1      30.153  22.583  24.631  0.00  0.00    +0.000 A 
ENDBRANCH   1   9
BRANCH   1  16
ATOM     16  C   UNL     1      26.961  23.828  24.153  0.00  0.00    +0.000 C 
ATOM     17 CL   UNL     1      26.790  25.546  24.533  0.00  0.00    +0.000 Cl
ATOM     18 CL   UNL     1      27.743  23.704  22.553  0.00  0.00    +0.000 Cl
ATOM     19 CL   UNL     1      25.398  23.006  24.052  0.00  0.00    +0.000 Cl
ENDBRANCH   1  16
TORSDOF 3
ENDMDL
MODEL 3
REMARK VINA RESULT:      -6.1      0.955      5.364
REMARK  Name = 
REMARK  3 active torsions:
REMARK  status: ('A' for Active; 'I' for Inactive)
REMARK    1  A    between atoms: C_5  and  C_6
REMARK    2  A    between atoms: C_6  and  C_7
REMARK    3  A    between atoms: C_6  and  C_14
REMARK                            x       y       z     vdW  Elec       q    Type
REMARK                         _______ _______ _______ _____ _____    ______ ____
ROOT
ATOM      1  C   UNL     1      19.101   9.428  37.949  0.00  0.00    +0.000 C 
ENDROOT
BRANCH   1   6
ATOM      2  O   UNL     1      15.808  10.908  33.547  0.00  0.00    +0.000 OA
ATOM      3  C   UNL     1      16.612  10.548  34.632  0.00  0.00    +0.000 A 
ATOM      4  C   UNL     1      16.291  10.900  35.927  0.00  0.00    +0.000 A 
ATOM      5  C   UNL     1      17.066  10.559  37.016  0.00  0.00    +0.000 A 
ATOM      6  C   UNL     1      18.220   9.831  36.834  0.00  0.00    +0.000 A 
ATOM      7  C   UNL     1      18.549   9.474  35.542  0.00  0.00    +0.000 A 
ATOM      8  C   UNL     1      17.770   9.819  34.455  0.00  0.00    +0.000 A 
ENDBRANCH   1   6
BRANCH   1   9
ATOM      9  C   UNL     1      18.302   8.965  39.109  0.00  0.00    +0.000 A 
ATOM     10  C   UNL     1      17.362   9.756  39.745  0.00  0.00    +0.000 A 
ATOM     11  C   UNL     1      16.677   9.214  40.819  0.00  0.00    +0.000 A 
ATOM     12  C   UNL     1      16.896   7.929  41.272  0.00  0.00    +0.000 A 
ATOM     13  O   UNL     1      16.192   7.398  42.362  0.00  0.00    +0.000 OA
ATOM     14  C   UNL     1      17.837   7.154  40.627  0.00  0.00    +0.000 A 
ATOM     15  C   UNL     1      18.529   7.679  39.555  0.00  0.00    +0.000 A 
ENDBRANCH   1   9
BRANCH   1  16
ATOM     16  C   UNL     1      20.096  10.484  38.327  0.00  0.00    +0.000 C 
ATOM     17 CL   UNL     1      19.416  12.116  38.315  0.00  0.00    +0.000 Cl
ATOM     18 CL   UNL     1      20.646  10.142  39.991  0.00  0.00    +0.000 Cl
ATOM     19 CL   UNL     1      21.497  10.334  37.257  0.00  0.00    +0.000 Cl
ENDBRANCH   1  16
TORSDOF 3
ENDMDL
MODEL 4
REMARK VINA RESULT:      -5.9      2.694      5.420
REMARK  Name = 
REMARK  3 active torsions:
REMARK  status: ('A' for Active; 'I' for Inactive)
REMARK    1  A    between atoms: C_5  and  C_6
REMARK    2  A    between atoms: C_6  and  C_7
REMARK    3  A    between atoms: C_6  and  C_14
REMARK                            x       y       z     vdW  Elec       q    Type
REMARK                         _______ _______ _______ _____ _____    ______ ____
ROOT
ATOM      1  C   UNL     1      18.191  10.703  38.500  0.00  0.00    +0.000 C 
ENDROOT
BRANCH   1   6
ATOM      2  O   UNL     1      23.628  10.954  36.829  0.00  0.00    +0.000 OA
ATOM      3  C   UNL     1      22.294  10.898  37.244  0.00  0.00    +0.000 A 
ATOM      4  C   UNL     1      21.780  11.780  38.172  0.00  0.00    +0.000 A 
ATOM      5  C   UNL     1      20.469  11.748  38.599  0.00  0.00    +0.000 A 
ATOM      6  C   UNL     1      19.608  10.802  38.092  0.00  0.00    +0.000 A 
ATOM      7  C   UNL     1      20.112   9.915  37.163  0.00  0.00    +0.000 A 
ATOM      8  C   UNL     1      21.426   9.951  36.739  0.00  0.00    +0.000 A 
ENDBRANCH   1   6
BRANCH   1   9
ATOM      9  C   UNL     1      17.957   9.472  39.293  0.00  0.00    +0.000 A 
ATOM     10  C   UNL     1      18.726   8.330  39.162  0.00  0.00    +0.000 A 
ATOM     11  C   UNL     1      18.412   7.241  39.957  0.00  0.00    +0.000 A 
ATOM     12  C   UNL     1      17.374   7.255  40.866  0.00  0.00    +0.000 A 
ATOM     13  O   UNL     1      17.071   6.142  41.662  0.00  0.00    +0.000 OA
ATOM     14  C   UNL     1      16.617   8.402  40.984  0.00  0.00    +0.000 A 
ATOM     15  C   UNL     1      16.916   9.496  40.199  0.00  0.00    +0.000 A 
ENDBRANCH   1   9
BRANCH   1  16
ATOM     16  C   UNL     1      17.235  10.832  37.352  0.00  0.00    +0.000 C 
ATOM     17 CL   UNL     1      17.269   9.440  36.261  0.00  0.00    +0.000 Cl
ATOM     18 CL   UNL     1      15.586  10.946  38.028  0.00  0.00    +0.000 Cl
ATOM     19 CL   UNL     1      17.578  12.350  36.512  0.00  0.00    +0.000 Cl
ENDBRANCH   1  16
TORSDOF 3
ENDMDL
MODEL 5
REMARK VINA RESULT:      -5.8     19.139     21.613
REMARK  Name = 
REMARK  3 active torsions:
REMARK  status: ('A' for Active; 'I' for Inactive)
REMARK    1  A    between atoms: C_5  and  C_6
REMARK    2  A    between atoms: C_6  and  C_7
REMARK    3  A    between atoms: C_6  and  C_14
REMARK                            x       y       z     vdW  Elec       q    Type
REMARK                         _______ _______ _______ _____ _____    ______ ____
ROOT
ATOM      1  C   UNL     1      27.429  24.701  25.805  0.00  0.00    +0.000 C 
ENDROOT
BRANCH   1   6
ATOM      2  O   UNL     1      32.690  23.273  24.166  0.00  0.00    +0.000 OA
ATOM      3  C   UNL     1      31.397  23.617  24.567  0.00  0.00    +0.000 A 
ATOM      4  C   UNL     1      30.353  22.715  24.518  0.00  0.00    +0.000 A 
ATOM      5  C   UNL     1      29.067  23.027  24.907  0.00  0.00    +0.000 A 
ATOM      6  C   UNL     1      28.780  24.291  25.371  0.00  0.00    +0.000 A 
ATOM      7  C   UNL     1      29.817  25.200  25.424  0.00  0.00    +0.000 A 
ATOM      8  C   UNL     1      31.104  24.882  25.033  0.00  0.00    +0.000 A 
ENDBRANCH   1   6
BRANCH   1   9
ATOM      9  C   UNL     1      27.093  24.099  27.117  0.00  0.00    +0.000 A 
ATOM     10  C   UNL     1      27.678  22.937  27.589  0.00  0.00    +0.000 A 
ATOM     11  C   UNL     1      27.284  22.470  28.830  0.00  0.00    +0.000 A 
ATOM     12  C   UNL     1      26.340  23.113  29.606  0.00  0.00    +0.000 A 
ATOM     13  O   UNL     1      25.954  22.624  30.861  0.00  0.00    +0.000 OA
ATOM     14  C   UNL     1      25.767  24.270  29.121  0.00  0.00    +0.000 A 
ATOM     15  C   UNL     1      26.148  24.750  27.884  0.00  0.00    +0.000 A 
ENDBRANCH   1   9
BRANCH   1  16
ATOM     16  C   UNL     1      26.373  24.443  24.772  0.00  0.00    +0.000 C 
ATOM     17 CL   UNL     1      25.681  22.820  24.877  0.00  0.00    +0.000 Cl
ATOM     18 CL   UNL     1      25.050  25.612  25.045  0.00  0.00    +0.000 Cl
ATOM     19 CL   UNL     1      27.063  24.776  23.178  0.00  0.00    +0.000 Cl
ENDBRANCH   1  16
TORSDOF 3
ENDMDL
MODEL 6
REMARK VINA RESULT:      -5.7     18.932     20.994
REMARK  Name = 
REMARK  3 active torsions:
REMARK  status: ('A' for Active; 'I' for Inactive)
REMARK    1  A    between atoms: C_5  and  C_6
REMARK    2  A    between atoms: C_6  and  C_7
REMARK    3  A    between atoms: C_6  and  C_14
REMARK                            x       y       z     vdW  Elec       q    Type
REMARK                         _______ _______ _______ _____ _____    ______ ____
ROOT
ATOM      1  C   UNL     1      28.699  24.440  26.095  0.00  0.00    +0.000 C 
ENDROOT
BRANCH   1   6
ATOM      2  O   UNL     1      25.910  22.877  30.805  0.00  0.00    +0.000 OA
ATOM      3  C   UNL     1      26.597  23.254  29.648  0.00  0.00    +0.000 A 
ATOM      4  C   UNL     1      27.319  22.347  28.898  0.00  0.00    +0.000 A 
ATOM      5  C   UNL     1      28.005  22.691  27.753  0.00  0.00    +0.000 A 
ATOM      6  C   UNL     1      27.988  23.994  27.311  0.00  0.00    +0.000 A 
ATOM      7  C   UNL     1      27.270  24.909  28.053  0.00  0.00    +0.000 A 
ATOM      8  C   UNL     1      26.584  24.559  29.200  0.00  0.00    +0.000 A 
ENDBRANCH   1   6
BRANCH   1   9
ATOM      9  C   UNL     1      27.908  24.128  24.880  0.00  0.00    +0.000 A 
ATOM     10  C   UNL     1      26.802  23.297  24.889  0.00  0.00    +0.000 A 
ATOM     11  C   UNL     1      26.143  23.080  23.692  0.00  0.00    +0.000 A 
ATOM     12  C   UNL     1      26.543  23.656  22.503  0.00  0.00    +0.000 A 
ATOM     13  O   UNL     1      25.863  23.424  21.301  0.00  0.00    +0.000 OA
ATOM     14  C   UNL     1      27.648  24.482  22.511  0.00  0.00    +0.000 A 
ATOM     15  C   UNL     1      28.317  24.709  23.697  0.00  0.00    +0.000 A 
ENDBRANCH   1   9
BRANCH   1  16
ATOM     16  C   UNL     1      30.104  23.924  26.008  0.00  0.00    +0.000 C 
ATOM     17 CL   UNL     1      30.219  22.355  25.201  0.00  0.00    +0.000 Cl
ATOM     18 CL   UNL     1      31.054  25.094  25.050  0.00  0.00    +0.000 Cl
ATOM     19 CL   UNL     1      30.783  23.889  27.640  0.00  0.00    +0.000 Cl
ENDBRANCH   1  16
TORSDOF 3
ENDMDL
MODEL 7
REMARK VINA RESULT:      -5.7     18.511     21.192
REMARK  Name = 
REMARK  3 active torsions:
REMARK  status: ('A' for Active; 'I' for Inactive)
REMARK    1  A    between atoms: C_5  and  C_6
REMARK    2  A    between atoms: C_6  and  C_7
REMARK    3  A    between atoms: C_6  and  C_14
REMARK                            x       y       z     vdW  Elec       q    Type
REMARK                         _______ _______ _______ _____ _____    ______ ____
ROOT
ATOM      1  C   UNL     1      28.206  24.398  26.500  0.00  0.00    +0.000 C 
ENDROOT
BRANCH   1   6
ATOM      2  O   UNL     1      25.582  23.035  21.636  0.00  0.00    +0.000 OA
ATOM      3  C   UNL     1      26.220  23.368  22.833  0.00  0.00    +0.000 A 
ATOM      4  C   UNL     1      25.560  23.343  24.045  0.00  0.00    +0.000 A 
ATOM      5  C   UNL     1      26.164  23.667  25.242  0.00  0.00    +0.000 A 
ATOM      6  C   UNL     1      27.490  24.037  25.260  0.00  0.00    +0.000 A 
ATOM      7  C   UNL     1      28.159  24.065  24.054  0.00  0.00    +0.000 A 
ATOM      8  C   UNL     1      27.549  23.740  22.858  0.00  0.00    +0.000 A 
ENDBRANCH   1   6
BRANCH   1   9
ATOM      9  C   UNL     1      27.551  23.789  27.682  0.00  0.00    +0.000 A 
ATOM     10  C   UNL     1      26.450  24.345  28.308  0.00  0.00    +0.000 A 
ATOM     11  C   UNL     1      25.923  23.686  29.405  0.00  0.00    +0.000 A 
ATOM     12  C   UNL     1      26.451  22.506  29.891  0.00  0.00    +0.000 A 
ATOM     13  O   UNL     1      25.904  21.853  31.004  0.00  0.00    +0.000 OA
ATOM     14  C   UNL     1      27.549  21.965  29.256  0.00  0.00    +0.000 A 
ATOM     15  C   UNL     1      28.086  22.610  28.161  0.00  0.00    +0.000 A 
ENDBRANCH   1   9
BRANCH   1  16
ATOM     16  C   UNL     1      28.407  25.876  26.658  0.00  0.00    +0.000 C 
ATOM     17 CL   UNL     1      28.770  26.353  28.321  0.00  0.00    +0.000 Cl
ATOM     18 CL   UNL     1      29.803  26.345  25.646  0.00  0.00    +0.000 Cl
ATOM     19 CL   UNL     1      26.980  26.701  26.019  0.00  0.00    +0.000 Cl
ENDBRANCH   1  16
TORSDOF 3
ENDMDL
MODEL 8
REMARK VINA RESULT:      -5.6     19.016     20.280
REMARK  Name = 
REMARK  3 active torsions:
REMARK  status: ('A' for Active; 'I' for Inactive)
REMARK    1  A    between atoms: C_5  and  C_6
REMARK    2  A    between atoms: C_6  and  C_7
REMARK    3  A    between atoms: C_6  and  C_14
REMARK                            x       y       z     vdW  Elec       q    Type
REMARK                         _______ _______ _______ _____ _____    ______ ____
ROOT
ATOM      1  C   UNL     1      33.172  -2.401  35.062  0.00  0.00    +0.000 C 
ENDROOT
BRANCH   1   6
ATOM      2  O   UNL     1      32.250  -6.868  31.656  0.00  0.00    +0.000 OA
ATOM      3  C   UNL     1      32.481  -5.769  32.487  0.00  0.00    +0.000 A 
ATOM      4  C   UNL     1      33.375  -4.772  32.150  0.00  0.00    +0.000 A 
ATOM      5  C   UNL     1      33.622  -3.677  32.951  0.00  0.00    +0.000 A 
ATOM      6  C   UNL     1      32.961  -3.544  34.150  0.00  0.00    +0.000 A 
ATOM      7  C   UNL     1      32.066  -4.535  34.497  0.00  0.00    +0.000 A 
ATOM      8  C   UNL     1      31.822  -5.630  33.692  0.00  0.00    +0.000 A 
ENDBRANCH   1   6
BRANCH   1   9
ATOM      9  C   UNL     1      33.403  -1.153  34.296  0.00  0.00    +0.000 A 
ATOM     10  C   UNL     1      34.370  -1.035  33.314  0.00  0.00    +0.000 A 
ATOM     11  C   UNL     1      34.492   0.182  32.666  0.00  0.00    +0.000 A 
ATOM     12  C   UNL     1      33.693   1.268  32.959  0.00  0.00    +0.000 A 
ATOM     13  O   UNL     1      33.832   2.492  32.291  0.00  0.00    +0.000 OA
ATOM     14  C   UNL     1      32.733   1.134  33.940  0.00  0.00    +0.000 A 
ATOM     15  C   UNL     1      32.598  -0.073  34.597  0.00  0.00    +0.000 A 
ENDBRANCH   1   9
BRANCH   1  16
ATOM     16  C   UNL     1      34.242  -2.649  36.083  0.00  0.00    +0.000 C 
ATOM     17 CL   UNL     1      35.059  -1.170  36.605  0.00  0.00    +0.000 Cl
ATOM     18 CL   UNL     1      33.465  -3.372  37.519  0.00  0.00    +0.000 Cl
ATOM     19 CL   UNL     1      35.370  -3.841  35.425  0.00  0.00    +0.000 Cl
ENDBRANCH   1  16
TORSDOF 3
ENDMDL
MODEL 9
REMARK VINA RESULT:      -5.6     21.000     22.332
REMARK  Name = 
REMARK  3 active torsions:
REMARK  status: ('A' for Active; 'I' for Inactive)
REMARK    1  A    between atoms: C_5  and  C_6
REMARK    2  A    between atoms: C_6  and  C_7
REMARK    3  A    between atoms: C_6  and  C_14
REMARK                            x       y       z     vdW  Elec       q    Type
REMARK                         _______ _______ _______ _____ _____    ______ ____
ROOT
ATOM      1  C   UNL     1      34.127  -5.633  33.446  0.00  0.00    +0.000 C 
ENDROOT
BRANCH   1   6
ATOM      2  O   UNL     1      34.196  -0.250  35.297  0.00  0.00    +0.000 OA
ATOM      3  C   UNL     1      34.175  -1.569  34.837  0.00  0.00    +0.000 A 
ATOM      4  C   UNL     1      33.583  -1.916  33.639  0.00  0.00    +0.000 A 
ATOM      5  C   UNL     1      33.548  -3.209  33.161  0.00  0.00    +0.000 A 
ATOM      6  C   UNL     1      34.124  -4.224  33.890  0.00  0.00    +0.000 A 
ATOM      7  C   UNL     1      34.719  -3.888  35.089  0.00  0.00    +0.000 A 
ATOM      8  C   UNL     1      34.751  -2.591  35.564  0.00  0.00    +0.000 A 
ENDBRANCH   1   6
BRANCH   1   9
ATOM      9  C   UNL     1      33.818  -5.728  31.999  0.00  0.00    +0.000 A 
ATOM     10  C   UNL     1      32.533  -5.648  31.492  0.00  0.00    +0.000 A 
ATOM     11  C   UNL     1      32.368  -5.750  30.122  0.00  0.00    +0.000 A 
ATOM     12  C   UNL     1      33.426  -5.925  29.253  0.00  0.00    +0.000 A 
ATOM     13  O   UNL     1      33.239  -6.027  27.868  0.00  0.00    +0.000 OA
ATOM     14  C   UNL     1      34.700  -6.003  29.774  0.00  0.00    +0.000 A 
ATOM     15  C   UNL     1      34.883  -5.903  31.138  0.00  0.00    +0.000 A 
ENDBRANCH   1   9
BRANCH   1  16
ATOM     16  C   UNL     1      33.245  -6.517  34.276  0.00  0.00    +0.000 C 
ATOM     17 CL   UNL     1      31.702  -5.762  34.694  0.00  0.00    +0.000 Cl
ATOM     18 CL   UNL     1      32.886  -7.981  33.318  0.00  0.00    +0.000 Cl
ATOM     19 CL   UNL     1      34.154  -7.021  35.706  0.00  0.00    +0.000 Cl
ENDBRANCH   1  16
TORSDOF 3
ENDMDL
MODEL 10
REMARK VINA RESULT:      -5.6     20.608     22.159
REMARK  Name = 
REMARK  3 active torsions:
REMARK  status: ('A' for Active; 'I' for Inactive)
REMARK    1  A    between atoms: C_5  and  C_6
REMARK    2  A    between atoms: C_6  and  C_7
REMARK    3  A    between atoms: C_6  and  C_14
REMARK                            x       y       z     vdW  Elec       q    Type
REMARK                         _______ _______ _______ _____ _____    ______ ____
ROOT
ATOM      1  C   UNL     1      32.997  -5.548  33.546  0.00  0.00    +0.000 C 
ENDROOT
BRANCH   1   6
ATOM      2  O   UNL     1      33.256  -6.109  27.887  0.00  0.00    +0.000 OA
ATOM      3  C   UNL     1      33.199  -5.969  29.277  0.00  0.00    +0.000 A 
ATOM      4  C   UNL     1      34.286  -5.544  30.013  0.00  0.00    +0.000 A 
ATOM      5  C   UNL     1      34.258  -5.397  31.384  0.00  0.00    +0.000 A 
ATOM      6  C   UNL     1      33.105  -5.680  32.079  0.00  0.00    +0.000 A 
ATOM      7  C   UNL     1      32.012  -6.106  31.352  0.00  0.00    +0.000 A 
ATOM      8  C   UNL     1      32.045  -6.252  29.979  0.00  0.00    +0.000 A 
ENDBRANCH   1   6
BRANCH   1   9
ATOM      9  C   UNL     1      32.876  -4.124  33.939  0.00  0.00    +0.000 A 
ATOM     10  C   UNL     1      32.062  -3.688  34.968  0.00  0.00    +0.000 A 
ATOM     11  C   UNL     1      32.031  -2.332  35.244  0.00  0.00    +0.000 A 
ATOM     12  C   UNL     1      32.776  -1.409  34.536  0.00  0.00    +0.000 A 
ATOM     13  O   UNL     1      32.731  -0.040  34.829  0.00  0.00    +0.000 OA
ATOM     14  C   UNL     1      33.583  -1.860  33.512  0.00  0.00    +0.000 A 
ATOM     15  C   UNL     1      33.625  -3.209  33.225  0.00  0.00    +0.000 A 
ENDBRANCH   1   9
BRANCH   1  16
ATOM     16  C   UNL     1      34.095  -6.252  34.286  0.00  0.00    +0.000 C 
ATOM     17 CL   UNL     1      35.530  -5.245  34.521  0.00  0.00    +0.000 Cl
ATOM     18 CL   UNL     1      33.471  -6.687  35.902  0.00  0.00    +0.000 Cl
ATOM     19 CL   UNL     1      34.465  -7.755  33.431  0.00  0.00    +0.000 Cl
ENDBRANCH   1  16
TORSDOF 3
ENDMDL
