MODEL 1
REMARK VINA RESULT:      -7.9      0.000      0.000
REMARK  Name = 
REMARK  9 active torsions:
REMARK  status: ('A' for Active; 'I' for Inactive)
REMARK    1  A    between atoms: O_2  and  C_3
REMARK    2  A    between atoms: C_8  and  C_9
REMARK    3  A    between atoms: C_9  and  C_10
REMARK    4  A    between atoms: C_10  and  N_11
REMARK    5  A    between atoms: C_12  and  C_14
REMARK    6  A    between atoms: C_17  and  C_18
REMARK    7  A    between atoms: C_18  and  O_19
REMARK    8  A    between atoms: O_19  and  C_20
REMARK    9  A    between atoms: C_23  and  C_24
REMARK                            x       y       z     vdW  Elec       q    Type
REMARK                         _______ _______ _______ _____ _____    ______ ____
ROOT
ATOM      1  C   UNL     1      36.206   1.973  16.925  0.00  0.00    +0.000 A 
ATOM      2  C   UNL     1      34.929   1.649  16.571  0.00  0.00    +0.000 A 
ATOM      3  C   UNL     1      34.686   0.383  17.061  0.00  0.00    +0.000 A 
ATOM      4  C   UNL     1      35.837  -0.017  17.701  0.00  0.00    +0.000 A 
ATOM      5  O   UNL     1      36.689   0.959  17.584  0.00  0.00    +0.000 OA
ENDROOT
BRANCH   1   7
ATOM      6  N   UNL     1      37.966   3.734  17.376  0.00  0.00    +0.000 NA
ATOM      7  C   UNL     1      36.884   3.248  16.602  0.00  0.00    +0.000 C 
ATOM      8  O   UNL     1      36.517   3.944  15.625  0.00  0.00    +0.000 OA
BRANCH   6   9
ATOM      9  C   UNL     1      38.631   5.004  17.044  0.00  0.00    +0.000 C 
BRANCH   9  10
ATOM     10  C   UNL     1      38.636   5.926  18.254  0.00  0.00    +0.000 C 
BRANCH  10  16
ATOM     11  C   UNL     1      40.210   7.052  19.785  0.00  0.00    +0.000 A 
ATOM     12  C   UNL     1      41.463   7.482  20.153  0.00  0.00    +0.000 A 
ATOM     13  C   UNL     1      42.541   7.231  19.332  0.00  0.00    +0.000 A 
ATOM     14  C   UNL     1      42.342   6.543  18.141  0.00  0.00    +0.000 A 
ATOM     15  C   UNL     1      41.093   6.126  17.797  0.00  0.00    +0.000 A 
ATOM     16  C   UNL     1      40.015   6.372  18.609  0.00  0.00    +0.000 A 
BRANCH  11  18
ATOM     17  C   UNL     1      38.566   8.593  20.751  0.00  0.00    +0.000 C 
ATOM     18  O   UNL     1      39.166   7.338  20.659  0.00  0.00    +0.000 OA
ENDBRANCH  11  18
ENDBRANCH  10  16
ENDBRANCH   9  10
ENDBRANCH   6   9
ENDBRANCH   1   7
BRANCH   4  19
ATOM     19  C   UNL     1      36.081  -1.330  18.404  0.00  0.00    +0.000 C 
BRANCH  19  20
ATOM     20  O   UNL     1      36.120  -2.373  17.490  0.00  0.00    +0.000 OA
BRANCH  20  21
ATOM     21  C   UNL     1      37.140  -2.444  16.559  0.00  0.00    +0.000 A 
ATOM     22  C   UNL     1      36.933  -2.405  15.204  0.00  0.00    +0.000 A 
ATOM     23  C   UNL     1      38.032  -2.484  14.348  0.00  0.00    +0.000 A 
ATOM     24  C   UNL     1      39.317  -2.601  14.812  0.00  0.00    +0.000 A 
ATOM     25  C   UNL     1      39.520  -2.639  16.174  0.00  0.00    +0.000 A 
ATOM     26  C   UNL     1      38.428  -2.560  17.020  0.00  0.00    +0.000 A 
BRANCH  24  27
ATOM     27  C   UNL     1      40.417  -2.679  13.816  0.00  0.00    +0.000 C 
ATOM     28  C   UNL     1      41.515  -1.711  14.221  0.00  0.00    +0.000 C 
ATOM     29  C   UNL     1      39.929  -2.376  12.415  0.00  0.00    +0.000 C 
ENDBRANCH  24  27
ENDBRANCH  20  21
ENDBRANCH  19  20
ENDBRANCH   4  19
TORSDOF 9
ENDMDL
MODEL 2
REMARK VINA RESULT:      -7.6     23.467     26.854
REMARK  Name = 
REMARK  9 active torsions:
REMARK  status: ('A' for Active; 'I' for Inactive)
REMARK    1  A    between atoms: O_2  and  C_3
REMARK    2  A    between atoms: C_8  and  C_9
REMARK    3  A    between atoms: C_9  and  C_10
REMARK    4  A    between atoms: C_10  and  N_11
REMARK    5  A    between atoms: C_12  and  C_14
REMARK    6  A    between atoms: C_17  and  C_18
REMARK    7  A    between atoms: C_18  and  O_19
REMARK    8  A    between atoms: O_19  and  C_20
REMARK    9  A    between atoms: C_23  and  C_24
REMARK                            x       y       z     vdW  Elec       q    Type
REMARK                         _______ _______ _______ _____ _____    ______ ____
ROOT
ATOM      1  C   UNL     1      13.578   0.519  27.398  0.00  0.00    +0.000 A 
ATOM      2  C   UNL     1      13.690  -0.497  26.494  0.00  0.00    +0.000 A 
ATOM      3  C   UNL     1      15.038  -0.692  26.275  0.00  0.00    +0.000 A 
ATOM      4  C   UNL     1      15.699   0.222  27.064  0.00  0.00    +0.000 A 
ATOM      5  O   UNL     1      14.787   0.901  27.696  0.00  0.00    +0.000 OA
ENDROOT
BRANCH   1   7
ATOM      6  N   UNL     1      12.051   2.452  27.975  0.00  0.00    +0.000 NA
ATOM      7  C   UNL     1      12.304   1.059  27.920  0.00  0.00    +0.000 C 
ATOM      8  O   UNL     1      11.400   0.294  28.335  0.00  0.00    +0.000 OA
BRANCH   6   9
ATOM      9  C   UNL     1      10.779   2.976  28.498  0.00  0.00    +0.000 C 
BRANCH   9  10
ATOM     10  C   UNL     1      10.066   3.787  27.428  0.00  0.00    +0.000 C 
BRANCH  10  16
ATOM     11  C   UNL     1       7.816   2.911  26.918  0.00  0.00    +0.000 A 
ATOM     12  C   UNL     1       6.937   2.147  26.187  0.00  0.00    +0.000 A 
ATOM     13  C   UNL     1       7.398   1.400  25.125  0.00  0.00    +0.000 A 
ATOM     14  C   UNL     1       8.752   1.433  24.809  0.00  0.00    +0.000 A 
ATOM     15  C   UNL     1       9.604   2.196  25.545  0.00  0.00    +0.000 A 
ATOM     16  C   UNL     1       9.152   2.942  26.605  0.00  0.00    +0.000 A 
BRANCH  11  18
ATOM     17  C   UNL     1       6.399   4.703  27.805  0.00  0.00    +0.000 C 
ATOM     18  O   UNL     1       7.284   3.640  27.976  0.00  0.00    +0.000 OA
ENDBRANCH  11  18
ENDBRANCH  10  16
ENDBRANCH   9  10
ENDBRANCH   6   9
ENDBRANCH   1   7
BRANCH   4  19
ATOM     19  C   UNL     1      17.191   0.414  27.184  0.00  0.00    +0.000 C 
BRANCH  19  20
ATOM     20  O   UNL     1      17.867  -0.666  26.633  0.00  0.00    +0.000 OA
BRANCH  20  21
ATOM     21  C   UNL     1      18.594  -0.509  25.468  0.00  0.00    +0.000 A 
ATOM     22  C   UNL     1      19.112  -1.557  24.751  0.00  0.00    +0.000 A 
ATOM     23  C   UNL     1      19.832  -1.292  23.586  0.00  0.00    +0.000 A 
ATOM     24  C   UNL     1      20.044  -0.017  23.128  0.00  0.00    +0.000 A 
ATOM     25  C   UNL     1      19.521   1.033  23.851  0.00  0.00    +0.000 A 
ATOM     26  C   UNL     1      18.807   0.766  25.006  0.00  0.00    +0.000 A 
BRANCH  24  27
ATOM     27  C   UNL     1      20.825   0.157  21.877  0.00  0.00    +0.000 C 
ATOM     28  C   UNL     1      19.923   0.761  20.815  0.00  0.00    +0.000 C 
ATOM     29  C   UNL     1      21.413  -1.153  21.395  0.00  0.00    +0.000 C 
ENDBRANCH  24  27
ENDBRANCH  20  21
ENDBRANCH  19  20
ENDBRANCH   4  19
TORSDOF 9
ENDMDL
MODEL 3
REMARK VINA RESULT:      -7.4      2.106      9.210
REMARK  Name = 
REMARK  9 active torsions:
REMARK  status: ('A' for Active; 'I' for Inactive)
REMARK    1  A    between atoms: O_2  and  C_3
REMARK    2  A    between atoms: C_8  and  C_9
REMARK    3  A    between atoms: C_9  and  C_10
REMARK    4  A    between atoms: C_10  and  N_11
REMARK    5  A    between atoms: C_12  and  C_14
REMARK    6  A    between atoms: C_17  and  C_18
REMARK    7  A    between atoms: C_18  and  O_19
REMARK    8  A    between atoms: O_19  and  C_20
REMARK    9  A    between atoms: C_23  and  C_24
REMARK                            x       y       z     vdW  Elec       q    Type
REMARK                         _______ _______ _______ _____ _____    ______ ____
ROOT
ATOM      1  C   UNL     1      36.602   2.588  16.209  0.00  0.00    +0.000 A 
ATOM      2  C   UNL     1      36.395   2.947  14.910  0.00  0.00    +0.000 A 
ATOM      3  C   UNL     1      37.361   3.880  14.592  0.00  0.00    +0.000 A 
ATOM      4  C   UNL     1      38.125   4.051  15.724  0.00  0.00    +0.000 A 
ATOM      5  O   UNL     1      37.629   3.267  16.635  0.00  0.00    +0.000 OA
ENDROOT
BRANCH   1   7
ATOM      6  N   UNL     1      36.388   0.634  17.803  0.00  0.00    +0.000 NA
ATOM      7  C   UNL     1      35.792   1.606  16.963  0.00  0.00    +0.000 C 
ATOM      8  O   UNL     1      34.540   1.604  16.880  0.00  0.00    +0.000 OA
BRANCH   6   9
ATOM      9  C   UNL     1      35.570  -0.337  18.546  0.00  0.00    +0.000 C 
BRANCH   9  10
ATOM     10  C   UNL     1      35.295  -1.560  17.685  0.00  0.00    +0.000 C 
BRANCH  10  16
ATOM     11  C   UNL     1      36.705  -2.942  16.205  0.00  0.00    +0.000 A 
ATOM     12  C   UNL     1      37.830  -3.683  15.928  0.00  0.00    +0.000 A 
ATOM     13  C   UNL     1      38.800  -3.842  16.894  0.00  0.00    +0.000 A 
ATOM     14  C   UNL     1      38.623  -3.246  18.138  0.00  0.00    +0.000 A 
ATOM     15  C   UNL     1      37.503  -2.518  18.390  0.00  0.00    +0.000 A 
ATOM     16  C   UNL     1      36.532  -2.355  17.433  0.00  0.00    +0.000 A 
BRANCH  11  18
ATOM     17  C   UNL     1      34.945  -3.870  14.773  0.00  0.00    +0.000 C 
ATOM     18  O   UNL     1      35.767  -2.822  15.186  0.00  0.00    +0.000 OA
ENDBRANCH  11  18
ENDBRANCH  10  16
ENDBRANCH   9  10
ENDBRANCH   6   9
ENDBRANCH   1   7
BRANCH   4  19
ATOM     19  C   UNL     1      39.312   4.968  15.893  0.00  0.00    +0.000 C 
BRANCH  19  20
ATOM     20  O   UNL     1      39.061   5.914  16.876  0.00  0.00    +0.000 OA
BRANCH  20  21
ATOM     21  C   UNL     1      40.009   6.173  17.849  0.00  0.00    +0.000 A 
ATOM     22  C   UNL     1      41.344   6.338  17.581  0.00  0.00    +0.000 A 
ATOM     23  C   UNL     1      42.221   6.596  18.635  0.00  0.00    +0.000 A 
ATOM     24  C   UNL     1      41.797   6.691  19.936  0.00  0.00    +0.000 A 
ATOM     25  C   UNL     1      40.456   6.525  20.201  0.00  0.00    +0.000 A 
ATOM     26  C   UNL     1      39.588   6.269  19.152  0.00  0.00    +0.000 A 
BRANCH  24  27
ATOM     27  C   UNL     1      42.812   6.967  20.985  0.00  0.00    +0.000 C 
ATOM     28  C   UNL     1      43.303   8.396  20.828  0.00  0.00    +0.000 C 
ATOM     29  C   UNL     1      43.971   5.995  20.915  0.00  0.00    +0.000 C 
ENDBRANCH  24  27
ENDBRANCH  20  21
ENDBRANCH  19  20
ENDBRANCH   4  19
TORSDOF 9
ENDMDL
MODEL 4
REMARK VINA RESULT:      -7.2      1.978      8.722
REMARK  Name = 
REMARK  9 active torsions:
REMARK  status: ('A' for Active; 'I' for Inactive)
REMARK    1  A    between atoms: O_2  and  C_3
REMARK    2  A    between atoms: C_8  and  C_9
REMARK    3  A    between atoms: C_9  and  C_10
REMARK    4  A    between atoms: C_10  and  N_11
REMARK    5  A    between atoms: C_12  and  C_14
REMARK    6  A    between atoms: C_17  and  C_18
REMARK    7  A    between atoms: C_18  and  O_19
REMARK    8  A    between atoms: O_19  and  C_20
REMARK    9  A    between atoms: C_23  and  C_24
REMARK                            x       y       z     vdW  Elec       q    Type
REMARK                         _______ _______ _______ _____ _____    ______ ____
ROOT
ATOM      1  C   UNL     1      38.064   3.318  15.398  0.00  0.00    +0.000 A 
ATOM      2  C   UNL     1      38.081   4.566  14.846  0.00  0.00    +0.000 A 
ATOM      3  C   UNL     1      38.317   5.456  15.873  0.00  0.00    +0.000 A 
ATOM      4  C   UNL     1      38.435   4.705  17.021  0.00  0.00    +0.000 A 
ATOM      5  O   UNL     1      38.277   3.462  16.675  0.00  0.00    +0.000 OA
ENDROOT
BRANCH   1   7
ATOM      6  N   UNL     1      38.244   0.804  15.174  0.00  0.00    +0.000 NA
ATOM      7  C   UNL     1      37.842   2.059  14.653  0.00  0.00    +0.000 C 
ATOM      8  O   UNL     1      37.288   2.064  13.528  0.00  0.00    +0.000 OA
BRANCH   6   9
ATOM      9  C   UNL     1      38.019  -0.440  14.422  0.00  0.00    +0.000 C 
BRANCH   9  10
ATOM     10  C   UNL     1      36.868  -1.223  15.035  0.00  0.00    +0.000 C 
BRANCH  10  16
ATOM     11  C   UNL     1      36.070  -0.724  17.316  0.00  0.00    +0.000 A 
ATOM     12  C   UNL     1      36.152  -0.806  18.687  0.00  0.00    +0.000 A 
ATOM     13  C   UNL     1      37.180  -1.514  19.270  0.00  0.00    +0.000 A 
ATOM     14  C   UNL     1      38.121  -2.138  18.459  0.00  0.00    +0.000 A 
ATOM     15  C   UNL     1      38.021  -2.044  17.105  0.00  0.00    +0.000 A 
ATOM     16  C   UNL     1      37.000  -1.340  16.517  0.00  0.00    +0.000 A 
BRANCH  11  18
ATOM     17  C   UNL     1      34.922   1.395  16.871  0.00  0.00    +0.000 C 
ATOM     18  O   UNL     1      35.008   0.006  16.794  0.00  0.00    +0.000 OA
ENDBRANCH  11  18
ENDBRANCH  10  16
ENDBRANCH   9  10
ENDBRANCH   6   9
ENDBRANCH   1   7
BRANCH   4  19
ATOM     19  C   UNL     1      38.697   5.211  18.419  0.00  0.00    +0.000 C 
BRANCH  19  20
ATOM     20  O   UNL     1      39.371   6.424  18.380  0.00  0.00    +0.000 OA
BRANCH  20  21
ATOM     21  C   UNL     1      40.698   6.493  18.758  0.00  0.00    +0.000 A 
ATOM     22  C   UNL     1      41.120   6.423  20.061  0.00  0.00    +0.000 A 
ATOM     23  C   UNL     1      42.485   6.503  20.338  0.00  0.00    +0.000 A 
ATOM     24  C   UNL     1      43.427   6.650  19.352  0.00  0.00    +0.000 A 
ATOM     25  C   UNL     1      42.999   6.719  18.044  0.00  0.00    +0.000 A 
ATOM     26  C   UNL     1      41.644   6.639  17.773  0.00  0.00    +0.000 A 
BRANCH  24  27
ATOM     27  C   UNL     1      44.855   6.726  19.752  0.00  0.00    +0.000 C 
ATOM     28  C   UNL     1      45.036   5.988  21.067  0.00  0.00    +0.000 C 
ATOM     29  C   UNL     1      45.327   8.159  19.878  0.00  0.00    +0.000 C 
ENDBRANCH  24  27
ENDBRANCH  20  21
ENDBRANCH  19  20
ENDBRANCH   4  19
TORSDOF 9
ENDMDL
MODEL 5
REMARK VINA RESULT:      -7.2      2.013      4.100
REMARK  Name = 
REMARK  9 active torsions:
REMARK  status: ('A' for Active; 'I' for Inactive)
REMARK    1  A    between atoms: O_2  and  C_3
REMARK    2  A    between atoms: C_8  and  C_9
REMARK    3  A    between atoms: C_9  and  C_10
REMARK    4  A    between atoms: C_10  and  N_11
REMARK    5  A    between atoms: C_12  and  C_14
REMARK    6  A    between atoms: C_17  and  C_18
REMARK    7  A    between atoms: C_18  and  O_19
REMARK    8  A    between atoms: O_19  and  C_20
REMARK    9  A    between atoms: C_23  and  C_24
REMARK                            x       y       z     vdW  Elec       q    Type
REMARK                         _______ _______ _______ _____ _____    ______ ____
ROOT
ATOM      1  C   UNL     1      38.479   2.290  14.468  0.00  0.00    +0.000 A 
ATOM      2  C   UNL     1      39.781   2.056  14.136  0.00  0.00    +0.000 A 
ATOM      3  C   UNL     1      39.800   0.915  13.362  0.00  0.00    +0.000 A 
ATOM      4  C   UNL     1      38.493   0.495  13.252  0.00  0.00    +0.000 A 
ATOM      5  O   UNL     1      37.770   1.343  13.923  0.00  0.00    +0.000 OA
ENDROOT
BRANCH   1   7
ATOM      6  N   UNL     1      38.717   3.873  16.427  0.00  0.00    +0.000 NA
ATOM      7  C   UNL     1      37.998   3.418  15.295  0.00  0.00    +0.000 C 
ATOM      8  O   UNL     1      36.928   4.012  15.017  0.00  0.00    +0.000 OA
BRANCH   6   9
ATOM      9  C   UNL     1      38.227   4.996  17.242  0.00  0.00    +0.000 C 
BRANCH   9  10
ATOM     10  C   UNL     1      39.344   5.532  18.124  0.00  0.00    +0.000 C 
BRANCH  10  16
ATOM     11  C   UNL     1      39.609   7.053  20.048  0.00  0.00    +0.000 A 
ATOM     12  C   UNL     1      39.243   8.137  20.812  0.00  0.00    +0.000 A 
ATOM     13  C   UNL     1      38.154   8.897  20.443  0.00  0.00    +0.000 A 
ATOM     14  C   UNL     1      37.443   8.555  19.299  0.00  0.00    +0.000 A 
ATOM     15  C   UNL     1      37.824   7.479  18.558  0.00  0.00    +0.000 A 
ATOM     16  C   UNL     1      38.906   6.716  18.919  0.00  0.00    +0.000 A 
BRANCH  11  18
ATOM     17  C   UNL     1      42.014   6.840  20.474  0.00  0.00    +0.000 C 
ATOM     18  O   UNL     1      40.717   6.330  20.477  0.00  0.00    +0.000 OA
ENDBRANCH  11  18
ENDBRANCH  10  16
ENDBRANCH   9  10
ENDBRANCH   6   9
ENDBRANCH   1   7
BRANCH   4  19
ATOM     19  C   UNL     1      37.983  -0.712  12.504  0.00  0.00    +0.000 C 
BRANCH  19  20
ATOM     20  O   UNL     1      38.096  -1.853  13.286  0.00  0.00    +0.000 OA
BRANCH  20  21
ATOM     21  C   UNL     1      37.726  -1.823  14.617  0.00  0.00    +0.000 A 
ATOM     22  C   UNL     1      38.625  -1.811  15.653  0.00  0.00    +0.000 A 
ATOM     23  C   UNL     1      38.149  -1.780  16.964  0.00  0.00    +0.000 A 
ATOM     24  C   UNL     1      36.810  -1.763  17.259  0.00  0.00    +0.000 A 
ATOM     25  C   UNL     1      35.910  -1.775  16.215  0.00  0.00    +0.000 A 
ATOM     26  C   UNL     1      36.386  -1.805  14.916  0.00  0.00    +0.000 A 
BRANCH  24  27
ATOM     27  C   UNL     1      36.407  -1.732  18.688  0.00  0.00    +0.000 C 
ATOM     28  C   UNL     1      35.854  -0.355  19.012  0.00  0.00    +0.000 C 
ATOM     29  C   UNL     1      37.564  -2.070  19.605  0.00  0.00    +0.000 C 
ENDBRANCH  24  27
ENDBRANCH  20  21
ENDBRANCH  19  20
ENDBRANCH   4  19
TORSDOF 9
ENDMDL
MODEL 6
REMARK VINA RESULT:      -7.1      2.072      8.904
REMARK  Name = 
REMARK  9 active torsions:
REMARK  status: ('A' for Active; 'I' for Inactive)
REMARK    1  A    between atoms: O_2  and  C_3
REMARK    2  A    between atoms: C_8  and  C_9
REMARK    3  A    between atoms: C_9  and  C_10
REMARK    4  A    between atoms: C_10  and  N_11
REMARK    5  A    between atoms: C_12  and  C_14
REMARK    6  A    between atoms: C_17  and  C_18
REMARK    7  A    between atoms: C_18  and  O_19
REMARK    8  A    between atoms: O_19  and  C_20
REMARK    9  A    between atoms: C_23  and  C_24
REMARK                            x       y       z     vdW  Elec       q    Type
REMARK                         _______ _______ _______ _____ _____    ______ ____
ROOT
ATOM      1  C   UNL     1      37.757   2.737  14.474  0.00  0.00    +0.000 A 
ATOM      2  C   UNL     1      36.632   3.283  13.927  0.00  0.00    +0.000 A 
ATOM      3  C   UNL     1      36.560   4.586  14.373  0.00  0.00    +0.000 A 
ATOM      4  C   UNL     1      37.657   4.783  15.182  0.00  0.00    +0.000 A 
ATOM      5  O   UNL     1      38.316   3.663  15.200  0.00  0.00    +0.000 OA
ENDROOT
BRANCH   1   7
ATOM      6  N   UNL     1      38.725   0.559  15.322  0.00  0.00    +0.000 NA
ATOM      7  C   UNL     1      38.223   1.350  14.260  0.00  0.00    +0.000 C 
ATOM      8  O   UNL     1      38.187   0.826  13.120  0.00  0.00    +0.000 OA
BRANCH   6   9
ATOM      9  C   UNL     1      39.187  -0.819  15.095  0.00  0.00    +0.000 C 
BRANCH   9  10
ATOM     10  C   UNL     1      38.779  -1.708  16.260  0.00  0.00    +0.000 C 
BRANCH  10  16
ATOM     11  C   UNL     1      36.504  -1.888  17.197  0.00  0.00    +0.000 A 
ATOM     12  C   UNL     1      35.185  -2.275  17.144  0.00  0.00    +0.000 A 
ATOM     13  C   UNL     1      34.709  -2.933  16.031  0.00  0.00    +0.000 A 
ATOM     14  C   UNL     1      35.575  -3.194  14.975  0.00  0.00    +0.000 A 
ATOM     15  C   UNL     1      36.875  -2.803  15.049  0.00  0.00    +0.000 A 
ATOM     16  C   UNL     1      37.357  -2.148  16.154  0.00  0.00    +0.000 A 
BRANCH  11  18
ATOM     17  C   UNL     1      36.215  -0.169  18.921  0.00  0.00    +0.000 C 
ATOM     18  O   UNL     1      36.918  -1.229  18.349  0.00  0.00    +0.000 OA
ENDBRANCH  11  18
ENDBRANCH  10  16
ENDBRANCH   9  10
ENDBRANCH   6   9
ENDBRANCH   1   7
BRANCH   4  19
ATOM     19  C   UNL     1      38.035   6.048  15.915  0.00  0.00    +0.000 C 
BRANCH  19  20
ATOM     20  O   UNL     1      38.191   5.797  17.270  0.00  0.00    +0.000 OA
BRANCH  20  21
ATOM     21  C   UNL     1      39.409   6.028  17.883  0.00  0.00    +0.000 A 
ATOM     22  C   UNL     1      40.584   6.190  17.195  0.00  0.00    +0.000 A 
ATOM     23  C   UNL     1      41.762   6.418  17.909  0.00  0.00    +0.000 A 
ATOM     24  C   UNL     1      41.789   6.485  19.278  0.00  0.00    +0.000 A 
ATOM     25  C   UNL     1      40.606   6.322  19.965  0.00  0.00    +0.000 A 
ATOM     26  C   UNL     1      39.440   6.096  19.254  0.00  0.00    +0.000 A 
BRANCH  24  27
ATOM     27  C   UNL     1      43.095   6.731  19.941  0.00  0.00    +0.000 C 
ATOM     28  C   UNL     1      43.081   6.076  21.311  0.00  0.00    +0.000 C 
ATOM     29  C   UNL     1      43.394   8.210  20.062  0.00  0.00    +0.000 C 
ENDBRANCH  24  27
ENDBRANCH  20  21
ENDBRANCH  19  20
ENDBRANCH   4  19
TORSDOF 9
ENDMDL
MODEL 7
REMARK VINA RESULT:      -7.1      1.909      9.145
REMARK  Name = 
REMARK  9 active torsions:
REMARK  status: ('A' for Active; 'I' for Inactive)
REMARK    1  A    between atoms: O_2  and  C_3
REMARK    2  A    between atoms: C_8  and  C_9
REMARK    3  A    between atoms: C_9  and  C_10
REMARK    4  A    between atoms: C_10  and  N_11
REMARK    5  A    between atoms: C_12  and  C_14
REMARK    6  A    between atoms: C_17  and  C_18
REMARK    7  A    between atoms: C_18  and  O_19
REMARK    8  A    between atoms: O_19  and  C_20
REMARK    9  A    between atoms: C_23  and  C_24
REMARK                            x       y       z     vdW  Elec       q    Type
REMARK                         _______ _______ _______ _____ _____    ______ ____
ROOT
ATOM      1  C   UNL     1      36.951   1.291  16.173  0.00  0.00    +0.000 A 
ATOM      2  C   UNL     1      37.547   1.539  14.971  0.00  0.00    +0.000 A 
ATOM      3  C   UNL     1      37.856   2.883  14.947  0.00  0.00    +0.000 A 
ATOM      4  C   UNL     1      37.432   3.404  16.148  0.00  0.00    +0.000 A 
ATOM      5  O   UNL     1      36.910   2.421  16.820  0.00  0.00    +0.000 OA
ENDROOT
BRANCH   1   7
ATOM      6  N   UNL     1      37.179  -0.821  17.548  0.00  0.00    +0.000 NA
ATOM      7  C   UNL     1      36.456  -0.028  16.624  0.00  0.00    +0.000 C 
ATOM      8  O   UNL     1      35.370  -0.490  16.196  0.00  0.00    +0.000 OA
BRANCH   6   9
ATOM      9  C   UNL     1      36.675  -2.132  17.987  0.00  0.00    +0.000 C 
BRANCH   9  10
ATOM     10  C   UNL     1      37.603  -3.238  17.510  0.00  0.00    +0.000 C 
BRANCH  10  16
ATOM     11  C   UNL     1      37.091  -3.578  15.121  0.00  0.00    +0.000 A 
ATOM     12  C   UNL     1      37.374  -3.462  13.780  0.00  0.00    +0.000 A 
ATOM     13  C   UNL     1      38.539  -2.846  13.377  0.00  0.00    +0.000 A 
ATOM     14  C   UNL     1      39.412  -2.350  14.338  0.00  0.00    +0.000 A 
ATOM     15  C   UNL     1      39.112  -2.476  15.659  0.00  0.00    +0.000 A 
ATOM     16  C   UNL     1      37.954  -3.088  16.068  0.00  0.00    +0.000 A 
BRANCH  11  18
ATOM     17  C   UNL     1      34.645  -3.734  15.078  0.00  0.00    +0.000 C 
ATOM     18  O   UNL     1      35.899  -4.210  15.458  0.00  0.00    +0.000 OA
ENDBRANCH  11  18
ENDBRANCH  10  16
ENDBRANCH   9  10
ENDBRANCH   6   9
ENDBRANCH   1   7
BRANCH   4  19
ATOM     19  C   UNL     1      37.542   4.836  16.611  0.00  0.00    +0.000 C 
BRANCH  19  20
ATOM     20  O   UNL     1      38.744   5.392  16.197  0.00  0.00    +0.000 OA
BRANCH  20  21
ATOM     21  C   UNL     1      39.697   5.757  17.128  0.00  0.00    +0.000 A 
ATOM     22  C   UNL     1      39.474   5.758  18.482  0.00  0.00    +0.000 A 
ATOM     23  C   UNL     1      40.504   6.145  19.339  0.00  0.00    +0.000 A 
ATOM     24  C   UNL     1      41.737   6.528  18.879  0.00  0.00    +0.000 A 
ATOM     25  C   UNL     1      41.958   6.526  17.519  0.00  0.00    +0.000 A 
ATOM     26  C   UNL     1      40.934   6.141  16.671  0.00  0.00    +0.000 A 
BRANCH  24  27
ATOM     27  C   UNL     1      42.766   6.923  19.876  0.00  0.00    +0.000 C 
ATOM     28  C   UNL     1      44.128   6.912  19.206  0.00  0.00    +0.000 C 
ATOM     29  C   UNL     1      42.758   6.009  21.083  0.00  0.00    +0.000 C 
ENDBRANCH  24  27
ENDBRANCH  20  21
ENDBRANCH  19  20
ENDBRANCH   4  19
TORSDOF 9
ENDMDL
MODEL 8
REMARK VINA RESULT:      -7.1      1.631      2.375
REMARK  Name = 
REMARK  9 active torsions:
REMARK  status: ('A' for Active; 'I' for Inactive)
REMARK    1  A    between atoms: O_2  and  C_3
REMARK    2  A    between atoms: C_8  and  C_9
REMARK    3  A    between atoms: C_9  and  C_10
REMARK    4  A    between atoms: C_10  and  N_11
REMARK    5  A    between atoms: C_12  and  C_14
REMARK    6  A    between atoms: C_17  and  C_18
REMARK    7  A    between atoms: C_18  and  O_19
REMARK    8  A    between atoms: O_19  and  C_20
REMARK    9  A    between atoms: C_23  and  C_24
REMARK                            x       y       z     vdW  Elec       q    Type
REMARK                         _______ _______ _______ _____ _____    ______ ____
ROOT
ATOM      1  C   UNL     1      36.593   2.430  16.427  0.00  0.00    +0.000 A 
ATOM      2  C   UNL     1      35.230   2.472  16.384  0.00  0.00    +0.000 A 
ATOM      3  C   UNL     1      34.781   1.190  16.624  0.00  0.00    +0.000 A 
ATOM      4  C   UNL     1      35.901   0.411  16.806  0.00  0.00    +0.000 A 
ATOM      5  O   UNL     1      36.930   1.196  16.677  0.00  0.00    +0.000 OA
ENDROOT
BRANCH   1   7
ATOM      6  N   UNL     1      38.183   4.194  17.298  0.00  0.00    +0.000 NA
ATOM      7  C   UNL     1      37.489   3.588  16.222  0.00  0.00    +0.000 C 
ATOM      8  O   UNL     1      37.664   4.075  15.079  0.00  0.00    +0.000 OA
BRANCH   6   9
ATOM      9  C   UNL     1      39.071   5.347  17.081  0.00  0.00    +0.000 C 
BRANCH   9  10
ATOM     10  C   UNL     1      38.268   6.638  17.090  0.00  0.00    +0.000 C 
BRANCH  10  16
ATOM     11  C   UNL     1      37.541   8.420  18.634  0.00  0.00    +0.000 A 
ATOM     12  C   UNL     1      37.587   9.098  19.829  0.00  0.00    +0.000 A 
ATOM     13  C   UNL     1      38.462   8.691  20.813  0.00  0.00    +0.000 A 
ATOM     14  C   UNL     1      39.286   7.596  20.579  0.00  0.00    +0.000 A 
ATOM     15  C   UNL     1      39.224   6.941  19.388  0.00  0.00    +0.000 A 
ATOM     16  C   UNL     1      38.355   7.340  18.403  0.00  0.00    +0.000 A 
BRANCH  11  18
ATOM     17  C   UNL     1      36.576  10.213  17.268  0.00  0.00    +0.000 C 
ATOM     18  O   UNL     1      36.636   8.884  17.685  0.00  0.00    +0.000 OA
ENDBRANCH  11  18
ENDBRANCH  10  16
ENDBRANCH   9  10
ENDBRANCH   6   9
ENDBRANCH   1   7
BRANCH   4  19
ATOM     19  C   UNL     1      35.946  -1.069  17.098  0.00  0.00    +0.000 C 
BRANCH  19  20
ATOM     20  O   UNL     1      37.257  -1.524  17.113  0.00  0.00    +0.000 OA
BRANCH  20  21
ATOM     21  C   UNL     1      37.909  -1.804  15.927  0.00  0.00    +0.000 A 
ATOM     22  C   UNL     1      39.208  -1.445  15.674  0.00  0.00    +0.000 A 
ATOM     23  C   UNL     1      39.775  -1.775  14.442  0.00  0.00    +0.000 A 
ATOM     24  C   UNL     1      39.080  -2.445  13.470  0.00  0.00    +0.000 A 
ATOM     25  C   UNL     1      37.775  -2.804  13.727  0.00  0.00    +0.000 A 
ATOM     26  C   UNL     1      37.215  -2.476  14.950  0.00  0.00    +0.000 A 
BRANCH  24  27
ATOM     27  C   UNL     1      39.775  -2.747  12.192  0.00  0.00    +0.000 C 
ATOM     28  C   UNL     1      41.171  -3.259  12.502  0.00  0.00    +0.000 C 
ATOM     29  C   UNL     1      39.842  -1.533  11.289  0.00  0.00    +0.000 C 
ENDBRANCH  24  27
ENDBRANCH  20  21
ENDBRANCH  19  20
ENDBRANCH   4  19
TORSDOF 9
ENDMDL
MODEL 9
REMARK VINA RESULT:      -7.0      1.639      2.436
REMARK  Name = 
REMARK  9 active torsions:
REMARK  status: ('A' for Active; 'I' for Inactive)
REMARK    1  A    between atoms: O_2  and  C_3
REMARK    2  A    between atoms: C_8  and  C_9
REMARK    3  A    between atoms: C_9  and  C_10
REMARK    4  A    between atoms: C_10  and  N_11
REMARK    5  A    between atoms: C_12  and  C_14
REMARK    6  A    between atoms: C_17  and  C_18
REMARK    7  A    between atoms: C_18  and  O_19
REMARK    8  A    between atoms: O_19  and  C_20
REMARK    9  A    between atoms: C_23  and  C_24
REMARK                            x       y       z     vdW  Elec       q    Type
REMARK                         _______ _______ _______ _____ _____    ______ ____
ROOT
ATOM      1  C   UNL     1      36.830   2.699  16.355  0.00  0.00    +0.000 A 
ATOM      2  C   UNL     1      36.329   2.656  15.087  0.00  0.00    +0.000 A 
ATOM      3  C   UNL     1      35.694   1.439  14.947  0.00  0.00    +0.000 A 
ATOM      4  C   UNL     1      35.835   0.784  16.149  0.00  0.00    +0.000 A 
ATOM      5  O   UNL     1      36.510   1.575  16.931  0.00  0.00    +0.000 OA
ENDROOT
BRANCH   1   7
ATOM      6  N   UNL     1      37.781   5.040  16.226  0.00  0.00    +0.000 NA
ATOM      7  C   UNL     1      37.589   3.828  16.935  0.00  0.00    +0.000 C 
ATOM      8  O   UNL     1      38.091   3.747  18.082  0.00  0.00    +0.000 OA
BRANCH   6   9
ATOM      9  C   UNL     1      38.540   6.155  16.815  0.00  0.00    +0.000 C 
BRANCH   9  10
ATOM     10  C   UNL     1      40.030   5.951  16.594  0.00  0.00    +0.000 C 
BRANCH  10  16
ATOM     11  C   UNL     1      42.165   6.466  17.718  0.00  0.00    +0.000 A 
ATOM     12  C   UNL     1      42.933   6.721  18.830  0.00  0.00    +0.000 A 
ATOM     13  C   UNL     1      42.347   6.733  20.078  0.00  0.00    +0.000 A 
ATOM     14  C   UNL     1      40.983   6.486  20.190  0.00  0.00    +0.000 A 
ATOM     15  C   UNL     1      40.244   6.236  19.076  0.00  0.00    +0.000 A 
ATOM     16  C   UNL     1      40.820   6.223  17.830  0.00  0.00    +0.000 A 
BRANCH  11  18
ATOM     17  C   UNL     1      43.234   7.633  15.846  0.00  0.00    +0.000 C 
ATOM     18  O   UNL     1      42.820   6.469  16.490  0.00  0.00    +0.000 OA
ENDBRANCH  11  18
ENDBRANCH  10  16
ENDBRANCH   9  10
ENDBRANCH   6   9
ENDBRANCH   1   7
BRANCH   4  19
ATOM     19  C   UNL     1      35.315  -0.587  16.508  0.00  0.00    +0.000 C 
BRANCH  19  20
ATOM     20  O   UNL     1      36.361  -1.429  16.856  0.00  0.00    +0.000 OA
BRANCH  20  21
ATOM     21  C   UNL     1      37.328  -1.758  15.924  0.00  0.00    +0.000 A 
ATOM     22  C   UNL     1      38.671  -1.568  16.126  0.00  0.00    +0.000 A 
ATOM     23  C   UNL     1      39.566  -1.933  15.121  0.00  0.00    +0.000 A 
ATOM     24  C   UNL     1      39.154  -2.476  13.932  0.00  0.00    +0.000 A 
ATOM     25  C   UNL     1      37.804  -2.666  13.732  0.00  0.00    +0.000 A 
ATOM     26  C   UNL     1      36.918  -2.303  14.732  0.00  0.00    +0.000 A 
BRANCH  24  27
ATOM     27  C   UNL     1      40.188  -2.830  12.926  0.00  0.00    +0.000 C 
ATOM     28  C   UNL     1      41.506  -2.194  13.333  0.00  0.00    +0.000 C 
ATOM     29  C   UNL     1      39.792  -2.387  11.533  0.00  0.00    +0.000 C 
ENDBRANCH  24  27
ENDBRANCH  20  21
ENDBRANCH  19  20
ENDBRANCH   4  19
TORSDOF 9
ENDMDL
MODEL 10
REMARK VINA RESULT:      -7.0      1.994      9.086
REMARK  Name = 
REMARK  9 active torsions:
REMARK  status: ('A' for Active; 'I' for Inactive)
REMARK    1  A    between atoms: O_2  and  C_3
REMARK    2  A    between atoms: C_8  and  C_9
REMARK    3  A    between atoms: C_9  and  C_10
REMARK    4  A    between atoms: C_10  and  N_11
REMARK    5  A    between atoms: C_12  and  C_14
REMARK    6  A    between atoms: C_17  and  C_18
REMARK    7  A    between atoms: C_18  and  O_19
REMARK    8  A    between atoms: O_19  and  C_20
REMARK    9  A    between atoms: C_23  and  C_24
REMARK                            x       y       z     vdW  Elec       q    Type
REMARK                         _______ _______ _______ _____ _____    ______ ____
ROOT
ATOM      1  C   UNL     1      36.984   2.991  16.245  0.00  0.00    +0.000 A 
ATOM      2  C   UNL     1      37.313   3.779  15.181  0.00  0.00    +0.000 A 
ATOM      3  C   UNL     1      37.992   4.870  15.683  0.00  0.00    +0.000 A 
ATOM      4  C   UNL     1      38.050   4.699  17.048  0.00  0.00    +0.000 A 
ATOM      5  O   UNL     1      37.441   3.581  17.313  0.00  0.00    +0.000 OA
ENDROOT
BRANCH   1   7
ATOM      6  N   UNL     1      36.697   0.546  16.832  0.00  0.00    +0.000 NA
ATOM      7  C   UNL     1      36.246   1.712  16.164  0.00  0.00    +0.000 C 
ATOM      8  O   UNL     1      35.189   1.618  15.495  0.00  0.00    +0.000 OA
BRANCH   6   9
ATOM      9  C   UNL     1      35.953  -0.720  16.742  0.00  0.00    +0.000 C 
BRANCH   9  10
ATOM     10  C   UNL     1      36.316  -1.453  15.460  0.00  0.00    +0.000 C 
BRANCH  10  16
ATOM     11  C   UNL     1      38.643  -1.472  14.642  0.00  0.00    +0.000 A 
ATOM     12  C   UNL     1      39.938  -1.937  14.643  0.00  0.00    +0.000 A 
ATOM     13  C   UNL     1      40.303  -2.940  15.516  0.00  0.00    +0.000 A 
ATOM     14  C   UNL     1      39.353  -3.464  16.384  0.00  0.00    +0.000 A 
ATOM     15  C   UNL     1      38.078  -2.989  16.365  0.00  0.00    +0.000 A 
ATOM     16  C   UNL     1      37.706  -1.991  15.499  0.00  0.00    +0.000 A 
BRANCH  11  18
ATOM     17  C   UNL     1      38.991   0.774  13.722  0.00  0.00    +0.000 C 
ATOM     18  O   UNL     1      38.342  -0.460  13.737  0.00  0.00    +0.000 OA
ENDBRANCH  11  18
ENDBRANCH  10  16
ENDBRANCH   9  10
ENDBRANCH   6   9
ENDBRANCH   1   7
BRANCH   4  19
ATOM     19  C   UNL     1      38.690   5.622  18.056  0.00  0.00    +0.000 C 
BRANCH  19  20
ATOM     20  O   UNL     1      39.922   6.066  17.597  0.00  0.00    +0.000 OA
BRANCH  20  21
ATOM     21  C   UNL     1      40.963   6.265  18.485  0.00  0.00    +0.000 A 
ATOM     22  C   UNL     1      40.826   6.175  19.846  0.00  0.00    +0.000 A 
ATOM     23  C   UNL     1      41.940   6.395  20.656  0.00  0.00    +0.000 A 
ATOM     24  C   UNL     1      43.173   6.700  20.142  0.00  0.00    +0.000 A 
ATOM     25  C   UNL     1      43.308   6.789  18.773  0.00  0.00    +0.000 A 
ATOM     26  C   UNL     1      42.200   6.570  17.972  0.00  0.00    +0.000 A 
BRANCH  24  27
ATOM     27  C   UNL     1      44.295   6.916  21.091  0.00  0.00    +0.000 C 
ATOM     28  C   UNL     1      44.226   5.862  22.182  0.00  0.00    +0.000 C 
ATOM     29  C   UNL     1      44.263   8.306  21.690  0.00  0.00    +0.000 C 
ENDBRANCH  24  27
ENDBRANCH  20  21
ENDBRANCH  19  20
ENDBRANCH   4  19
TORSDOF 9
ENDMDL
