MODEL 1
REMARK VINA RESULT:      -8.3      0.000      0.000
REMARK  Name = 
REMARK  5 active torsions:
REMARK  status: ('A' for Active; 'I' for Inactive)
REMARK    1  A    between atoms: O_2  and  C_3
REMARK    2  A    between atoms: C_6  and  C_7
REMARK    3  A    between atoms: N_8  and  N_9
REMARK    4  A    between atoms: C_10  and  C_12
REMARK    5  A    between atoms: C_27  and  O_28
REMARK                            x       y       z     vdW  Elec       q    Type
REMARK                         _______ _______ _______ _____ _____    ______ ____
ROOT
ATOM      1  N   UNL     1      38.489   3.774  15.287  0.00  0.00    +0.000 NA
ATOM      2  C   UNL     1      38.982   5.076  15.092  0.00  0.00    +0.000 C 
ATOM      3  O   UNL     1      40.162   5.217  14.684  0.00  0.00    +0.000 OA
ENDROOT
BRANCH   2   4
ATOM      4  C   UNL     1      38.163   6.275  15.351  0.00  0.00    +0.000 A 
ATOM      5  C   UNL     1      37.312   6.903  14.480  0.00  0.00    +0.000 A 
ATOM      6  C   UNL     1      37.089   6.435  13.073  0.00  0.00    +0.000 C 
ATOM      7  N   UNL     1      36.771   7.945  15.118  0.00  0.00    +0.000 NA
ATOM      8  C   UNL     1      37.259   7.991  16.371  0.00  0.00    +0.000 A 
ATOM      9  N   UNL     1      37.235   8.645  17.527  0.00  0.00    +0.000 N 
ATOM     10  C   UNL     1      36.452   9.833  17.856  0.00  0.00    +0.000 C 
ATOM     11  C   UNL     1      38.059   8.045  18.390  0.00  0.00    +0.000 A 
ATOM     12  C   UNL     1      38.429   8.282  19.718  0.00  0.00    +0.000 A 
ATOM     13  C   UNL     1      39.335   7.457  20.360  0.00  0.00    +0.000 A 
ATOM     14  C   UNL     1      39.884   6.393  19.699  0.00  0.00    +0.000 A 
ATOM     15  C   UNL     1      39.526   6.157  18.405  0.00  0.00    +0.000 A 
ATOM     16  C   UNL     1      38.627   6.967  17.752  0.00  0.00    +0.000 A 
ATOM     17  N   UNL     1      38.125   6.947  16.508  0.00  0.00    +0.000 N 
ENDBRANCH   2   4
BRANCH   1  19
ATOM     18  C   UNL     1      38.928   1.525  14.686  0.00  0.00    +0.000 C 
ATOM     19  N   UNL     1      39.328   2.690  15.019  0.00  0.00    +0.000 NA
BRANCH  18  23
ATOM     20  C   UNL     1      41.744  -1.580  13.947  0.00  0.00    +0.000 A 
ATOM     21  C   UNL     1      41.932  -0.324  13.390  0.00  0.00    +0.000 A 
ATOM     22  C   UNL     1      41.004   0.678  13.641  0.00  0.00    +0.000 A 
ATOM     23  C   UNL     1      39.894   0.469  14.429  0.00  0.00    +0.000 A 
ATOM     24  C   UNL     1      39.698  -0.786  14.990  0.00  0.00    +0.000 A 
ATOM     25  C   UNL     1      38.587  -0.997  15.780  0.00  0.00    +0.000 A 
ATOM     26  C   UNL     1      38.371  -2.241  16.351  0.00  0.00    +0.000 A 
ATOM     27  C   UNL     1      39.286  -3.235  16.106  0.00  0.00    +0.000 A 
ATOM     28  C   UNL     1      40.398  -3.026  15.316  0.00  0.00    +0.000 A 
ATOM     29  C   UNL     1      40.627  -1.778  14.735  0.00  0.00    +0.000 A 
BRANCH  20  31
ATOM     30  C   UNL     1      43.100  -2.988  12.477  0.00  0.00    +0.000 C 
ATOM     31  O   UNL     1      42.626  -2.632  13.742  0.00  0.00    +0.000 OA
ENDBRANCH  20  31
BRANCH  25  32
ATOM     32  O   UNL     1      37.702   0.061  15.985  0.00  0.00    +0.000 OA
ATOM     33  C   UNL     1      36.429  -0.229  16.577  0.00  0.00    +0.000 C 
ENDBRANCH  25  32
ENDBRANCH  18  23
ENDBRANCH   1  19
TORSDOF 5
ENDMDL
MODEL 2
REMARK VINA RESULT:      -8.0      1.718      3.130
REMARK  Name = 
REMARK  5 active torsions:
REMARK  status: ('A' for Active; 'I' for Inactive)
REMARK    1  A    between atoms: O_2  and  C_3
REMARK    2  A    between atoms: C_6  and  C_7
REMARK    3  A    between atoms: N_8  and  N_9
REMARK    4  A    between atoms: C_10  and  C_12
REMARK    5  A    between atoms: C_27  and  O_28
REMARK                            x       y       z     vdW  Elec       q    Type
REMARK                         _______ _______ _______ _____ _____    ______ ____
ROOT
ATOM      1  N   UNL     1      36.677   2.872  16.243  0.00  0.00    +0.000 NA
ATOM      2  C   UNL     1      37.729   3.754  15.940  0.00  0.00    +0.000 C 
ATOM      3  O   UNL     1      38.908   3.324  15.993  0.00  0.00    +0.000 OA
ENDROOT
BRANCH   2   4
ATOM      4  C   UNL     1      37.492   5.161  15.564  0.00  0.00    +0.000 A 
ATOM      5  C   UNL     1      36.897   5.626  14.420  0.00  0.00    +0.000 A 
ATOM      6  C   UNL     1      36.382   4.722  13.340  0.00  0.00    +0.000 C 
ATOM      7  N   UNL     1      36.884   6.960  14.481  0.00  0.00    +0.000 NA
ATOM      8  C   UNL     1      37.455   7.350  15.635  0.00  0.00    +0.000 A 
ATOM      9  N   UNL     1      37.800   8.393  16.384  0.00  0.00    +0.000 N 
ATOM     10  C   UNL     1      37.598   9.806  16.079  0.00  0.00    +0.000 C 
ATOM     11  C   UNL     1      38.381   7.958  17.504  0.00  0.00    +0.000 A 
ATOM     12  C   UNL     1      38.930   8.582  18.630  0.00  0.00    +0.000 A 
ATOM     13  C   UNL     1      39.475   7.836  19.659  0.00  0.00    +0.000 A 
ATOM     14  C   UNL     1      39.484   6.470  19.588  0.00  0.00    +0.000 A 
ATOM     15  C   UNL     1      38.951   5.857  18.494  0.00  0.00    +0.000 A 
ATOM     16  C   UNL     1      38.405   6.583  17.461  0.00  0.00    +0.000 A 
ATOM     17  N   UNL     1      37.831   6.224  16.303  0.00  0.00    +0.000 N 
ENDBRANCH   2   4
BRANCH   1  19
ATOM     18  C   UNL     1      37.096   0.591  15.760  0.00  0.00    +0.000 C 
ATOM     19  N   UNL     1      36.984   1.554  16.590  0.00  0.00    +0.000 NA
BRANCH  18  23
ATOM     20  C   UNL     1      38.061  -3.319  17.138  0.00  0.00    +0.000 A 
ATOM     21  C   UNL     1      36.920  -2.681  17.601  0.00  0.00    +0.000 A 
ATOM     22  C   UNL     1      36.620  -1.405  17.142  0.00  0.00    +0.000 A 
ATOM     23  C   UNL     1      37.419  -0.744  16.235  0.00  0.00    +0.000 A 
ATOM     24  C   UNL     1      38.563  -1.377  15.767  0.00  0.00    +0.000 A 
ATOM     25  C   UNL     1      39.365  -0.717  14.859  0.00  0.00    +0.000 A 
ATOM     26  C   UNL     1      40.512  -1.328  14.378  0.00  0.00    +0.000 A 
ATOM     27  C   UNL     1      40.814  -2.590  14.829  0.00  0.00    +0.000 A 
ATOM     28  C   UNL     1      40.012  -3.251  15.737  0.00  0.00    +0.000 A 
ATOM     29  C   UNL     1      38.855  -2.647  16.230  0.00  0.00    +0.000 A 
BRANCH  20  31
ATOM     30  C   UNL     1      38.760  -4.895  18.873  0.00  0.00    +0.000 C 
ATOM     31  O   UNL     1      38.429  -4.593  17.550  0.00  0.00    +0.000 OA
ENDBRANCH  20  31
BRANCH  25  32
ATOM     32  O   UNL     1      38.995   0.562  14.446  0.00  0.00    +0.000 OA
ATOM     33  C   UNL     1      39.753   1.180  13.398  0.00  0.00    +0.000 C 
ENDBRANCH  25  32
ENDBRANCH  18  23
ENDBRANCH   1  19
TORSDOF 5
ENDMDL
MODEL 3
REMARK VINA RESULT:      -8.0     26.161     28.788
REMARK  Name = 
REMARK  5 active torsions:
REMARK  status: ('A' for Active; 'I' for Inactive)
REMARK    1  A    between atoms: O_2  and  C_3
REMARK    2  A    between atoms: C_6  and  C_7
REMARK    3  A    between atoms: N_8  and  N_9
REMARK    4  A    between atoms: C_10  and  C_12
REMARK    5  A    between atoms: C_27  and  O_28
REMARK                            x       y       z     vdW  Elec       q    Type
REMARK                         _______ _______ _______ _____ _____    ______ ____
ROOT
ATOM      1  N   UNL     1      26.186  14.770  39.309  0.00  0.00    +0.000 NA
ATOM      2  C   UNL     1      24.923  15.184  38.848  0.00  0.00    +0.000 C 
ATOM      3  O   UNL     1      23.943  14.415  39.009  0.00  0.00    +0.000 OA
ENDROOT
BRANCH   2   4
ATOM      4  C   UNL     1      24.715  16.486  38.186  0.00  0.00    +0.000 A 
ATOM      5  C   UNL     1      24.266  17.647  38.760  0.00  0.00    +0.000 A 
ATOM      6  C   UNL     1      23.905  17.756  40.212  0.00  0.00    +0.000 C 
ATOM      7  N   UNL     1      24.225  18.582  37.808  0.00  0.00    +0.000 NA
ATOM      8  C   UNL     1      24.638  18.042  36.646  0.00  0.00    +0.000 A 
ATOM      9  N   UNL     1      24.867  18.271  35.358  0.00  0.00    +0.000 N 
ATOM     10  C   UNL     1      24.686  19.528  34.637  0.00  0.00    +0.000 C 
ATOM     11  C   UNL     1      25.307  17.150  34.783  0.00  0.00    +0.000 A 
ATOM     12  C   UNL     1      25.698  16.802  33.485  0.00  0.00    +0.000 A 
ATOM     13  C   UNL     1      26.119  15.518  33.191  0.00  0.00    +0.000 A 
ATOM     14  C   UNL     1      26.157  14.566  34.172  0.00  0.00    +0.000 A 
ATOM     15  C   UNL     1      25.777  14.899  35.438  0.00  0.00    +0.000 A 
ATOM     16  C   UNL     1      25.357  16.171  35.748  0.00  0.00    +0.000 A 
ATOM     17  N   UNL     1      24.941  16.736  36.891  0.00  0.00    +0.000 N 
ENDBRANCH   2   4
BRANCH   1  19
ATOM     18  C   UNL     1      27.331  13.115  40.557  0.00  0.00    +0.000 C 
ATOM     19  N   UNL     1      26.300  13.522  39.926  0.00  0.00    +0.000 NA
BRANCH  18  23
ATOM     20  C   UNL     1      27.374   9.241  42.321  0.00  0.00    +0.000 A 
ATOM     21  C   UNL     1      26.232  10.023  42.390  0.00  0.00    +0.000 A 
ATOM     22  C   UNL     1      26.234  11.285  41.810  0.00  0.00    +0.000 A 
ATOM     23  C   UNL     1      27.339  11.792  41.162  0.00  0.00    +0.000 A 
ATOM     24  C   UNL     1      28.487  11.015  41.089  0.00  0.00    +0.000 A 
ATOM     25  C   UNL     1      29.594  11.521  40.441  0.00  0.00    +0.000 A 
ATOM     26  C   UNL     1      30.752  10.764  40.355  0.00  0.00    +0.000 A 
ATOM     27  C   UNL     1      30.755   9.516  40.928  0.00  0.00    +0.000 A 
ATOM     28  C   UNL     1      29.648   9.008  41.576  0.00  0.00    +0.000 A 
ATOM     29  C   UNL     1      28.476   9.760  41.670  0.00  0.00    +0.000 A 
BRANCH  20  31
ATOM     30  C   UNL     1      26.734   7.599  44.018  0.00  0.00    +0.000 C 
ATOM     31  O   UNL     1      27.450   7.971  42.877  0.00  0.00    +0.000 OA
ENDBRANCH  20  31
BRANCH  25  32
ATOM     32  O   UNL     1      29.517  12.797  39.883  0.00  0.00    +0.000 OA
ATOM     33  C   UNL     1      30.739  13.445  39.507  0.00  0.00    +0.000 C 
ENDBRANCH  25  32
ENDBRANCH  18  23
ENDBRANCH   1  19
TORSDOF 5
ENDMDL
MODEL 4
REMARK VINA RESULT:      -7.8      5.374      9.736
REMARK  Name = 
REMARK  5 active torsions:
REMARK  status: ('A' for Active; 'I' for Inactive)
REMARK    1  A    between atoms: O_2  and  C_3
REMARK    2  A    between atoms: C_6  and  C_7
REMARK    3  A    between atoms: N_8  and  N_9
REMARK    4  A    between atoms: C_10  and  C_12
REMARK    5  A    between atoms: C_27  and  O_28
REMARK                            x       y       z     vdW  Elec       q    Type
REMARK                         _______ _______ _______ _____ _____    ______ ____
ROOT
ATOM      1  N   UNL     1      39.942  -2.334  13.134  0.00  0.00    +0.000 NA
ATOM      2  C   UNL     1      40.945  -1.858  12.271  0.00  0.00    +0.000 C 
ATOM      3  O   UNL     1      40.936  -0.643  11.951  0.00  0.00    +0.000 OA
ENDROOT
BRANCH   2   4
ATOM      4  C   UNL     1      42.000  -2.736  11.731  0.00  0.00    +0.000 A 
ATOM      5  C   UNL     1      41.955  -3.479  10.580  0.00  0.00    +0.000 A 
ATOM      6  C   UNL     1      40.764  -3.503   9.669  0.00  0.00    +0.000 C 
ATOM      7  N   UNL     1      43.118  -4.125  10.466  0.00  0.00    +0.000 NA
ATOM      8  C   UNL     1      43.898  -3.810  11.516  0.00  0.00    +0.000 A 
ATOM      9  N   UNL     1      45.078  -4.004  12.095  0.00  0.00    +0.000 N 
ATOM     10  C   UNL     1      46.167  -4.853  11.621  0.00  0.00    +0.000 C 
ATOM     11  C   UNL     1      45.141  -3.286  13.218  0.00  0.00    +0.000 A 
ATOM     12  C   UNL     1      46.110  -3.101  14.211  0.00  0.00    +0.000 A 
ATOM     13  C   UNL     1      45.872  -2.266  15.288  0.00  0.00    +0.000 A 
ATOM     14  C   UNL     1      44.678  -1.608  15.397  0.00  0.00    +0.000 A 
ATOM     15  C   UNL     1      43.730  -1.785  14.433  0.00  0.00    +0.000 A 
ATOM     16  C   UNL     1      43.950  -2.611  13.356  0.00  0.00    +0.000 A 
ATOM     17  N   UNL     1      43.195  -2.944  12.299  0.00  0.00    +0.000 N 
ENDBRANCH   2   4
BRANCH   1  19
ATOM     18  C   UNL     1      38.321  -1.580  14.687  0.00  0.00    +0.000 C 
ATOM     19  N   UNL     1      38.978  -1.439  13.603  0.00  0.00    +0.000 NA
BRANCH  18  23
ATOM     20  C   UNL     1      35.444   1.334  15.850  0.00  0.00    +0.000 A 
ATOM     21  C   UNL     1      35.888   1.281  14.538  0.00  0.00    +0.000 A 
ATOM     22  C   UNL     1      36.827   0.325  14.175  0.00  0.00    +0.000 A 
ATOM     23  C   UNL     1      37.338  -0.582  15.078  0.00  0.00    +0.000 A 
ATOM     24  C   UNL     1      36.899  -0.534  16.394  0.00  0.00    +0.000 A 
ATOM     25  C   UNL     1      37.410  -1.441  17.300  0.00  0.00    +0.000 A 
ATOM     26  C   UNL     1      36.986  -1.413  18.619  0.00  0.00    +0.000 A 
ATOM     27  C   UNL     1      36.058  -0.469  18.983  0.00  0.00    +0.000 A 
ATOM     28  C   UNL     1      35.546   0.438  18.078  0.00  0.00    +0.000 A 
ATOM     29  C   UNL     1      35.964   0.422  16.747  0.00  0.00    +0.000 A 
BRANCH  20  31
ATOM     30  C   UNL     1      34.115   3.362  15.525  0.00  0.00    +0.000 C 
ATOM     31  O   UNL     1      34.508   2.261  16.290  0.00  0.00    +0.000 OA
ENDBRANCH  20  31
BRANCH  25  32
ATOM     32  O   UNL     1      38.349  -2.371  16.857  0.00  0.00    +0.000 OA
ATOM     33  C   UNL     1      38.751  -3.408  17.761  0.00  0.00    +0.000 C 
ENDBRANCH  25  32
ENDBRANCH  18  23
ENDBRANCH   1  19
TORSDOF 5
ENDMDL
MODEL 5
REMARK VINA RESULT:      -7.7     26.003     29.563
REMARK  Name = 
REMARK  5 active torsions:
REMARK  status: ('A' for Active; 'I' for Inactive)
REMARK    1  A    between atoms: O_2  and  C_3
REMARK    2  A    between atoms: C_6  and  C_7
REMARK    3  A    between atoms: N_8  and  N_9
REMARK    4  A    between atoms: C_10  and  C_12
REMARK    5  A    between atoms: C_27  and  O_28
REMARK                            x       y       z     vdW  Elec       q    Type
REMARK                         _______ _______ _______ _____ _____    ______ ____
ROOT
ATOM      1  N   UNL     1      25.366  14.851  39.020  0.00  0.00    +0.000 NA
ATOM      2  C   UNL     1      26.216  15.611  38.197  0.00  0.00    +0.000 C 
ATOM      3  O   UNL     1      27.408  15.239  38.057  0.00  0.00    +0.000 OA
ENDROOT
BRANCH   2   4
ATOM      4  C   UNL     1      25.755  16.825  37.498  0.00  0.00    +0.000 A 
ATOM      5  C   UNL     1      25.529  18.063  38.043  0.00  0.00    +0.000 A 
ATOM      6  C   UNL     1      25.729  18.364  39.498  0.00  0.00    +0.000 C 
ATOM      7  N   UNL     1      25.123  18.872  37.062  0.00  0.00    +0.000 NA
ATOM      8  C   UNL     1      25.086  18.178  35.909  0.00  0.00    +0.000 A 
ATOM      9  N   UNL     1      24.818  18.236  34.610  0.00  0.00    +0.000 N 
ATOM     10  C   UNL     1      24.361  19.397  33.851  0.00  0.00    +0.000 C 
ATOM     11  C   UNL     1      25.034  17.039  34.062  0.00  0.00    +0.000 A 
ATOM     12  C   UNL     1      24.923  16.519  32.767  0.00  0.00    +0.000 A 
ATOM     13  C   UNL     1      25.228  15.195  32.505  0.00  0.00    +0.000 A 
ATOM     14  C   UNL     1      25.644  14.373  33.517  0.00  0.00    +0.000 A 
ATOM     15  C   UNL     1      25.753  14.874  34.780  0.00  0.00    +0.000 A 
ATOM     16  C   UNL     1      25.455  16.188  35.057  0.00  0.00    +0.000 A 
ATOM     17  N   UNL     1      25.481  16.904  36.190  0.00  0.00    +0.000 N 
ENDBRANCH   2   4
BRANCH   1  19
ATOM     18  C   UNL     1      25.795  13.472  40.897  0.00  0.00    +0.000 C 
ATOM     19  N   UNL     1      25.879  13.714  39.647  0.00  0.00    +0.000 NA
BRANCH  18  23
ATOM     20  C   UNL     1      27.455   9.901  42.511  0.00  0.00    +0.000 A 
ATOM     21  C   UNL     1      27.993  10.459  41.361  0.00  0.00    +0.000 A 
ATOM     22  C   UNL     1      27.439  11.624  40.848  0.00  0.00    +0.000 A 
ATOM     23  C   UNL     1      26.367  12.252  41.443  0.00  0.00    +0.000 A 
ATOM     24  C   UNL     1      25.824  11.699  42.595  0.00  0.00    +0.000 A 
ATOM     25  C   UNL     1      24.750  12.325  43.193  0.00  0.00    +0.000 A 
ATOM     26  C   UNL     1      24.190  11.792  44.343  0.00  0.00    +0.000 A 
ATOM     27  C   UNL     1      24.735  10.640  44.855  0.00  0.00    +0.000 A 
ATOM     28  C   UNL     1      25.809  10.012  44.258  0.00  0.00    +0.000 A 
ATOM     29  C   UNL     1      26.381  10.538  43.100  0.00  0.00    +0.000 A 
BRANCH  20  31
ATOM     30  C   UNL     1      27.760   7.474  42.523  0.00  0.00    +0.000 C 
ATOM     31  O   UNL     1      27.953   8.738  43.085  0.00  0.00    +0.000 OA
ENDBRANCH  20  31
BRANCH  25  32
ATOM     32  O   UNL     1      24.252  13.493  42.616  0.00  0.00    +0.000 OA
ATOM     33  C   UNL     1      23.487  14.381  43.441  0.00  0.00    +0.000 C 
ENDBRANCH  25  32
ENDBRANCH  18  23
ENDBRANCH   1  19
TORSDOF 5
ENDMDL
MODEL 6
REMARK VINA RESULT:      -7.6      4.259      8.798
REMARK  Name = 
REMARK  5 active torsions:
REMARK  status: ('A' for Active; 'I' for Inactive)
REMARK    1  A    between atoms: O_2  and  C_3
REMARK    2  A    between atoms: C_6  and  C_7
REMARK    3  A    between atoms: N_8  and  N_9
REMARK    4  A    between atoms: C_10  and  C_12
REMARK    5  A    between atoms: C_27  and  O_28
REMARK                            x       y       z     vdW  Elec       q    Type
REMARK                         _______ _______ _______ _____ _____    ______ ____
ROOT
ATOM      1  N   UNL     1      38.298   1.384  13.925  0.00  0.00    +0.000 NA
ATOM      2  C   UNL     1      37.902   0.043  13.779  0.00  0.00    +0.000 C 
ATOM      3  O   UNL     1      37.104  -0.251  12.854  0.00  0.00    +0.000 OA
ENDROOT
BRANCH   2   4
ATOM      4  C   UNL     1      38.391  -1.024  14.673  0.00  0.00    +0.000 A 
ATOM      5  C   UNL     1      39.328  -1.982  14.387  0.00  0.00    +0.000 A 
ATOM      6  C   UNL     1      40.017  -2.082  13.058  0.00  0.00    +0.000 C 
ATOM      7  N   UNL     1      39.475  -2.746  15.473  0.00  0.00    +0.000 NA
ATOM      8  C   UNL     1      38.655  -2.294  16.439  0.00  0.00    +0.000 A 
ATOM      9  N   UNL     1      38.237  -2.474  17.687  0.00  0.00    +0.000 N 
ATOM     10  C   UNL     1      38.674  -3.502  18.627  0.00  0.00    +0.000 C 
ATOM     11  C   UNL     1      37.323  -1.547  17.983  0.00  0.00    +0.000 A 
ATOM     12  C   UNL     1      36.558  -1.252  19.118  0.00  0.00    +0.000 A 
ATOM     13  C   UNL     1      35.669  -0.193  19.118  0.00  0.00    +0.000 A 
ATOM     14  C   UNL     1      35.524   0.583  18.001  0.00  0.00    +0.000 A 
ATOM     15  C   UNL     1      36.267   0.300  16.893  0.00  0.00    +0.000 A 
ATOM     16  C   UNL     1      37.156  -0.748  16.876  0.00  0.00    +0.000 A 
ATOM     17  N   UNL     1      37.983  -1.221  15.932  0.00  0.00    +0.000 N 
ENDBRANCH   2   4
BRANCH   1  19
ATOM     18  C   UNL     1      37.411   3.508  13.367  0.00  0.00    +0.000 C 
ATOM     19  N   UNL     1      37.790   2.335  13.038  0.00  0.00    +0.000 NA
BRANCH  18  23
ATOM     20  C   UNL     1      35.892   6.179  10.421  0.00  0.00    +0.000 A 
ATOM     21  C   UNL     1      36.952   5.339  10.117  0.00  0.00    +0.000 A 
ATOM     22  C   UNL     1      37.436   4.474  11.089  0.00  0.00    +0.000 A 
ATOM     23  C   UNL     1      36.897   4.418  12.356  0.00  0.00    +0.000 A 
ATOM     24  C   UNL     1      35.835   5.256  12.668  0.00  0.00    +0.000 A 
ATOM     25  C   UNL     1      35.294   5.202  13.936  0.00  0.00    +0.000 A 
ATOM     26  C   UNL     1      34.234   6.029  14.271  0.00  0.00    +0.000 A 
ATOM     27  C   UNL     1      33.752   6.887  13.313  0.00  0.00    +0.000 A 
ATOM     28  C   UNL     1      34.291   6.942  12.044  0.00  0.00    +0.000 A 
ATOM     29  C   UNL     1      35.360   6.115  11.694  0.00  0.00    +0.000 A 
BRANCH  20  31
ATOM     30  C   UNL     1      36.101   8.090   8.909  0.00  0.00    +0.000 C 
ATOM     31  O   UNL     1      35.353   7.071   9.504  0.00  0.00    +0.000 OA
ENDBRANCH  20  31
BRANCH  25  32
ATOM     32  O   UNL     1      35.836   4.306  14.856  0.00  0.00    +0.000 OA
ATOM     33  C   UNL     1      34.937   3.457  15.582  0.00  0.00    +0.000 C 
ENDBRANCH  25  32
ENDBRANCH  18  23
ENDBRANCH   1  19
TORSDOF 5
ENDMDL
MODEL 7
REMARK VINA RESULT:      -7.5      6.233      9.914
REMARK  Name = 
REMARK  5 active torsions:
REMARK  status: ('A' for Active; 'I' for Inactive)
REMARK    1  A    between atoms: O_2  and  C_3
REMARK    2  A    between atoms: C_6  and  C_7
REMARK    3  A    between atoms: N_8  and  N_9
REMARK    4  A    between atoms: C_10  and  C_12
REMARK    5  A    between atoms: C_27  and  O_28
REMARK                            x       y       z     vdW  Elec       q    Type
REMARK                         _______ _______ _______ _____ _____    ______ ____
ROOT
ATOM      1  N   UNL     1      36.972   1.080  10.375  0.00  0.00    +0.000 NA
ATOM      2  C   UNL     1      37.583   1.463  11.583  0.00  0.00    +0.000 C 
ATOM      3  O   UNL     1      37.623   2.684  11.876  0.00  0.00    +0.000 OA
ENDROOT
BRANCH   2   4
ATOM      4  C   UNL     1      38.176   0.481  12.510  0.00  0.00    +0.000 A 
ATOM      5  C   UNL     1      39.242  -0.347  12.273  0.00  0.00    +0.000 A 
ATOM      6  C   UNL     1      39.987  -0.369  10.971  0.00  0.00    +0.000 C 
ATOM      7  N   UNL     1      39.449  -1.072  13.376  0.00  0.00    +0.000 NA
ATOM      8  C   UNL     1      38.539  -0.723  14.304  0.00  0.00    +0.000 A 
ATOM      9  N   UNL     1      38.103  -0.943  15.539  0.00  0.00    +0.000 N 
ATOM     10  C   UNL     1      38.637  -1.894  16.510  0.00  0.00    +0.000 C 
ATOM     11  C   UNL     1      37.064  -0.144  15.788  0.00  0.00    +0.000 A 
ATOM     12  C   UNL     1      36.224   0.059  16.890  0.00  0.00    +0.000 A 
ATOM     13  C   UNL     1      35.202   0.990  16.841  0.00  0.00    +0.000 A 
ATOM     14  C   UNL     1      34.998   1.728  15.708  0.00  0.00    +0.000 A 
ATOM     15  C   UNL     1      35.812   1.534  14.632  0.00  0.00    +0.000 A 
ATOM     16  C   UNL     1      36.833   0.613  14.663  0.00  0.00    +0.000 A 
ATOM     17  N   UNL     1      37.751   0.245  13.757  0.00  0.00    +0.000 N 
ENDBRANCH   2   4
BRANCH   1  19
ATOM     18  C   UNL     1      36.556   2.107   8.282  0.00  0.00    +0.000 C 
ATOM     19  N   UNL     1      36.433   2.071   9.551  0.00  0.00    +0.000 NA
BRANCH  18  23
ATOM     20  C   UNL     1      34.786   5.264   6.042  0.00  0.00    +0.000 A 
ATOM     21  C   UNL     1      35.088   5.448   7.382  0.00  0.00    +0.000 A 
ATOM     22  C   UNL     1      35.665   4.408   8.099  0.00  0.00    +0.000 A 
ATOM     23  C   UNL     1      35.952   3.190   7.522  0.00  0.00    +0.000 A 
ATOM     24  C   UNL     1      35.652   2.999   6.181  0.00  0.00    +0.000 A 
ATOM     25  C   UNL     1      35.938   1.780   5.601  0.00  0.00    +0.000 A 
ATOM     26  C   UNL     1      35.649   1.565   4.263  0.00  0.00    +0.000 A 
ATOM     27  C   UNL     1      35.078   2.590   3.550  0.00  0.00    +0.000 A 
ATOM     28  C   UNL     1      34.791   3.810   4.128  0.00  0.00    +0.000 A 
ATOM     29  C   UNL     1      35.077   4.040   5.474  0.00  0.00    +0.000 A 
BRANCH  20  31
ATOM     30  C   UNL     1      32.966   6.823   5.551  0.00  0.00    +0.000 C 
ATOM     31  O   UNL     1      34.208   6.255   5.259  0.00  0.00    +0.000 OA
ENDBRANCH  20  31
BRANCH  25  32
ATOM     32  O   UNL     1      36.519   0.786   6.388  0.00  0.00    +0.000 OA
ATOM     33  C   UNL     1      37.126  -0.331   5.726  0.00  0.00    +0.000 C 
ENDBRANCH  25  32
ENDBRANCH  18  23
ENDBRANCH   1  19
TORSDOF 5
ENDMDL
MODEL 8
REMARK VINA RESULT:      -7.4      5.032     10.296
REMARK  Name = 
REMARK  5 active torsions:
REMARK  status: ('A' for Active; 'I' for Inactive)
REMARK    1  A    between atoms: O_2  and  C_3
REMARK    2  A    between atoms: C_6  and  C_7
REMARK    3  A    between atoms: N_8  and  N_9
REMARK    4  A    between atoms: C_10  and  C_12
REMARK    5  A    between atoms: C_27  and  O_28
REMARK                            x       y       z     vdW  Elec       q    Type
REMARK                         _______ _______ _______ _____ _____    ______ ____
ROOT
ATOM      1  N   UNL     1      41.426  -1.627  14.713  0.00  0.00    +0.000 NA
ATOM      2  C   UNL     1      42.441  -1.232  13.824  0.00  0.00    +0.000 C 
ATOM      3  O   UNL     1      42.264  -0.199  13.130  0.00  0.00    +0.000 OA
ENDROOT
BRANCH   2   4
ATOM      4  C   UNL     1      43.699  -1.989  13.680  0.00  0.00    +0.000 A 
ATOM      5  C   UNL     1      44.821  -1.890  14.460  0.00  0.00    +0.000 A 
ATOM      6  C   UNL     1      44.928  -0.950  15.624  0.00  0.00    +0.000 C 
ATOM      7  N   UNL     1      45.725  -2.751  13.985  0.00  0.00    +0.000 NA
ATOM      8  C   UNL     1      45.202  -3.392  12.924  0.00  0.00    +0.000 A 
ATOM      9  N   UNL     1      45.423  -4.305  11.984  0.00  0.00    +0.000 N 
ATOM     10  C   UNL     1      46.637  -5.090  11.781  0.00  0.00    +0.000 C 
ATOM     11  C   UNL     1      44.338  -4.415  11.214  0.00  0.00    +0.000 A 
ATOM     12  C   UNL     1      44.001  -5.194  10.101  0.00  0.00    +0.000 A 
ATOM     13  C   UNL     1      42.759  -5.078   9.504  0.00  0.00    +0.000 A 
ATOM     14  C   UNL     1      41.839  -4.194   9.997  0.00  0.00    +0.000 A 
ATOM     15  C   UNL     1      42.163  -3.432  11.081  0.00  0.00    +0.000 A 
ATOM     16  C   UNL     1      43.393  -3.535  11.687  0.00  0.00    +0.000 A 
ATOM     17  N   UNL     1      43.940  -2.912  12.741  0.00  0.00    +0.000 N 
ENDBRANCH   2   4
BRANCH   1  19
ATOM     18  C   UNL     1      39.161  -1.252  15.297  0.00  0.00    +0.000 C 
ATOM     19  N   UNL     1      40.264  -0.856  14.791  0.00  0.00    +0.000 NA
BRANCH  18  23
ATOM     20  C   UNL     1      35.787   1.340  15.392  0.00  0.00    +0.000 A 
ATOM     21  C   UNL     1      36.894   1.669  14.626  0.00  0.00    +0.000 A 
ATOM     22  C   UNL     1      37.987   0.813  14.605  0.00  0.00    +0.000 A 
ATOM     23  C   UNL     1      38.012  -0.362  15.325  0.00  0.00    +0.000 A 
ATOM     24  C   UNL     1      36.907  -0.698  16.095  0.00  0.00    +0.000 A 
ATOM     25  C   UNL     1      36.930  -1.873  16.817  0.00  0.00    +0.000 A 
ATOM     26  C   UNL     1      35.838  -2.230  17.593  0.00  0.00    +0.000 A 
ATOM     27  C   UNL     1      34.755  -1.386  17.616  0.00  0.00    +0.000 A 
ATOM     28  C   UNL     1      34.730  -0.210  16.895  0.00  0.00    +0.000 A 
ATOM     29  C   UNL     1      35.823   0.161  16.110  0.00  0.00    +0.000 A 
BRANCH  20  31
ATOM     30  C   UNL     1      34.666   3.496  15.111  0.00  0.00    +0.000 C 
ATOM     31  O   UNL     1      34.657   2.145  15.465  0.00  0.00    +0.000 OA
ENDBRANCH  20  31
BRANCH  25  32
ATOM     32  O   UNL     1      38.064  -2.680  16.743  0.00  0.00    +0.000 OA
ATOM     33  C   UNL     1      37.980  -4.014  17.263  0.00  0.00    +0.000 C 
ENDBRANCH  25  32
ENDBRANCH  18  23
ENDBRANCH   1  19
TORSDOF 5
ENDMDL
MODEL 9
REMARK VINA RESULT:      -7.4     27.201     29.296
REMARK  Name = 
REMARK  5 active torsions:
REMARK  status: ('A' for Active; 'I' for Inactive)
REMARK    1  A    between atoms: O_2  and  C_3
REMARK    2  A    between atoms: C_6  and  C_7
REMARK    3  A    between atoms: N_8  and  N_9
REMARK    4  A    between atoms: C_10  and  C_12
REMARK    5  A    between atoms: C_27  and  O_28
REMARK                            x       y       z     vdW  Elec       q    Type
REMARK                         _______ _______ _______ _____ _____    ______ ____
ROOT
ATOM      1  N   UNL     1      10.267   2.763   8.238  0.00  0.00    +0.000 NA
ATOM      2  C   UNL     1      10.544   3.866   9.065  0.00  0.00    +0.000 C 
ATOM      3  O   UNL     1      11.725   4.042   9.457  0.00  0.00    +0.000 OA
ENDROOT
BRANCH   2   4
ATOM      4  C   UNL     1       9.497   4.817   9.485  0.00  0.00    +0.000 A 
ATOM      5  C   UNL     1       9.280   6.080   9.001  0.00  0.00    +0.000 A 
ATOM      6  C   UNL     1      10.122   6.700   7.926  0.00  0.00    +0.000 C 
ATOM      7  N   UNL     1       8.234   6.593   9.654  0.00  0.00    +0.000 NA
ATOM      8  C   UNL     1       7.783   5.685  10.539  0.00  0.00    +0.000 A 
ATOM      9  N   UNL     1       6.877   5.433  11.476  0.00  0.00    +0.000 N 
ATOM     10  C   UNL     1       5.815   6.320  11.942  0.00  0.00    +0.000 C 
ATOM     11  C   UNL     1       7.072   4.204  11.959  0.00  0.00    +0.000 A 
ATOM     12  C   UNL     1       6.443   3.422  12.934  0.00  0.00    +0.000 A 
ATOM     13  C   UNL     1       6.892   2.144  13.218  0.00  0.00    +0.000 A 
ATOM     14  C   UNL     1       7.964   1.627  12.544  0.00  0.00    +0.000 A 
ATOM     15  C   UNL     1       8.581   2.385  11.594  0.00  0.00    +0.000 A 
ATOM     16  C   UNL     1       8.148   3.656  11.299  0.00  0.00    +0.000 A 
ATOM     17  N   UNL     1       8.575   4.581  10.427  0.00  0.00    +0.000 N 
ENDBRANCH   2   4
BRANCH   1  19
ATOM     18  C   UNL     1      11.185   0.665   7.631  0.00  0.00    +0.000 C 
ATOM     19  N   UNL     1      11.314   1.909   7.884  0.00  0.00    +0.000 NA
BRANCH  18  23
ATOM     20  C   UNL     1      14.587  -1.674   6.598  0.00  0.00    +0.000 A 
ATOM     21  C   UNL     1      14.189  -0.628   5.780  0.00  0.00    +0.000 A 
ATOM     22  C   UNL     1      13.077   0.125   6.131  0.00  0.00    +0.000 A 
ATOM     23  C   UNL     1      12.348  -0.130   7.272  0.00  0.00    +0.000 A 
ATOM     24  C   UNL     1      12.740  -1.176   8.096  0.00  0.00    +0.000 A 
ATOM     25  C   UNL     1      12.012  -1.434   9.239  0.00  0.00    +0.000 A 
ATOM     26  C   UNL     1      12.384  -2.473  10.077  0.00  0.00    +0.000 A 
ATOM     27  C   UNL     1      13.483  -3.221   9.734  0.00  0.00    +0.000 A 
ATOM     28  C   UNL     1      14.213  -2.965   8.592  0.00  0.00    +0.000 A 
ATOM     29  C   UNL     1      13.849  -1.922   7.739  0.00  0.00    +0.000 A 
BRANCH  20  31
ATOM     30  C   UNL     1      16.668  -2.111   5.389  0.00  0.00    +0.000 C 
ATOM     31  O   UNL     1      15.687  -2.473   6.315  0.00  0.00    +0.000 OA
ENDBRANCH  20  31
BRANCH  25  32
ATOM     32  O   UNL     1      10.908  -0.631   9.522  0.00  0.00    +0.000 OA
ATOM     33  C   UNL     1       9.814  -1.216  10.242  0.00  0.00    +0.000 C 
ENDBRANCH  25  32
ENDBRANCH  18  23
ENDBRANCH   1  19
TORSDOF 5
ENDMDL
MODEL 10
REMARK VINA RESULT:      -7.3      5.480      7.611
REMARK  Name = 
REMARK  5 active torsions:
REMARK  status: ('A' for Active; 'I' for Inactive)
REMARK    1  A    between atoms: O_2  and  C_3
REMARK    2  A    between atoms: C_6  and  C_7
REMARK    3  A    between atoms: N_8  and  N_9
REMARK    4  A    between atoms: C_10  and  C_12
REMARK    5  A    between atoms: C_27  and  O_28
REMARK                            x       y       z     vdW  Elec       q    Type
REMARK                         _______ _______ _______ _____ _____    ______ ____
ROOT
ATOM      1  N   UNL     1      39.150  -1.169  12.759  0.00  0.00    +0.000 NA
ATOM      2  C   UNL     1      38.099  -1.688  13.536  0.00  0.00    +0.000 C 
ATOM      3  O   UNL     1      37.768  -2.889  13.373  0.00  0.00    +0.000 OA
ENDROOT
BRANCH   2   4
ATOM      4  C   UNL     1      37.378  -0.872  14.531  0.00  0.00    +0.000 A 
ATOM      5  C   UNL     1      36.629   0.252  14.296  0.00  0.00    +0.000 A 
ATOM      6  C   UNL     1      36.432   0.834  12.928  0.00  0.00    +0.000 C 
ATOM      7  N   UNL     1      36.153   0.676  15.470  0.00  0.00    +0.000 NA
ATOM      8  C   UNL     1      36.582  -0.151  16.441  0.00  0.00    +0.000 A 
ATOM      9  N   UNL     1      36.561  -0.406  17.744  0.00  0.00    +0.000 N 
ATOM     10  C   UNL     1      35.872   0.354  18.783  0.00  0.00    +0.000 C 
ATOM     11  C   UNL     1      37.286  -1.499  17.991  0.00  0.00    +0.000 A 
ATOM     12  C   UNL     1      37.613  -2.219  19.146  0.00  0.00    +0.000 A 
ATOM     13  C   UNL     1      38.410  -3.347  19.077  0.00  0.00    +0.000 A 
ATOM     14  C   UNL     1      38.893  -3.775  17.871  0.00  0.00    +0.000 A 
ATOM     15  C   UNL     1      38.579  -3.077  16.743  0.00  0.00    +0.000 A 
ATOM     16  C   UNL     1      37.787  -1.954  16.793  0.00  0.00    +0.000 A 
ATOM     17  N   UNL     1      37.344  -1.112  15.847  0.00  0.00    +0.000 N 
ENDBRANCH   2   4
BRANCH   1  19
ATOM     18  C   UNL     1      41.014  -2.341  11.887  0.00  0.00    +0.000 C 
ATOM     19  N   UNL     1      39.784  -2.007  11.839  0.00  0.00    +0.000 NA
BRANCH  18  23
ATOM     20  C   UNL     1      42.656  -4.923   8.928  0.00  0.00    +0.000 A 
ATOM     21  C   UNL     1      41.385  -4.396   8.762  0.00  0.00    +0.000 A 
ATOM     22  C   UNL     1      40.863  -3.556   9.737  0.00  0.00    +0.000 A 
ATOM     23  C   UNL     1      41.569  -3.223  10.872  0.00  0.00    +0.000 A 
ATOM     24  C   UNL     1      42.842  -3.747  11.046  0.00  0.00    +0.000 A 
ATOM     25  C   UNL     1      43.551  -3.415  12.182  0.00  0.00    +0.000 A 
ATOM     26  C   UNL     1      44.824  -3.926  12.378  0.00  0.00    +0.000 A 
ATOM     27  C   UNL     1      45.344  -4.757  11.416  0.00  0.00    +0.000 A 
ATOM     28  C   UNL     1      44.637  -5.090  10.279  0.00  0.00    +0.000 A 
ATOM     29  C   UNL     1      43.354  -4.584  10.070  0.00  0.00    +0.000 A 
BRANCH  20  31
ATOM     30  C   UNL     1      43.524  -5.379   6.687  0.00  0.00    +0.000 C 
ATOM     31  O   UNL     1      43.246  -5.771   7.999  0.00  0.00    +0.000 OA
ENDBRANCH  20  31
BRANCH  25  32
ATOM     32  O   UNL     1      42.958  -2.564  13.114  0.00  0.00    +0.000 OA
ATOM     33  C   UNL     1      43.799  -1.952  14.101  0.00  0.00    +0.000 C 
ENDBRANCH  25  32
ENDBRANCH  18  23
ENDBRANCH   1  19
TORSDOF 5
ENDMDL
