MODEL 1
REMARK VINA RESULT:      -7.4      0.000      0.000
REMARK  Name = 
REMARK  2 active torsions:
REMARK  status: ('A' for Active; 'I' for Inactive)
REMARK    1  A    between atoms: C_5  and  C_6
REMARK    2  A    between atoms: C_15  and  C_16
REMARK                            x       y       z     vdW  Elec       q    Type
REMARK                         _______ _______ _______ _____ _____    ______ ____
ROOT
ATOM      1  C   UNL     1      17.369   9.907  39.107  0.00  0.00    +0.000 A 
ATOM      2  O   UNL     1      16.078  10.120  39.074  0.00  0.00    +0.000 OA
ATOM      3  C   UNL     1      15.733  10.948  38.114  0.00  0.00    +0.000 A 
ATOM      4  C   UNL     1      14.527  11.474  37.681  0.00  0.00    +0.000 A 
ATOM      5  C   UNL     1      14.448  12.342  36.627  0.00  0.00    +0.000 A 
ATOM      6  O   UNL     1      13.215  12.867  36.199  0.00  0.00    +0.000 OA
ATOM      7  C   UNL     1      15.615  12.696  35.981  0.00  0.00    +0.000 A 
ATOM      8  C   UNL     1      16.851  12.192  36.383  0.00  0.00    +0.000 A 
ATOM      9  C   UNL     1      16.878  11.320  37.452  0.00  0.00    +0.000 A 
ATOM     10  C   UNL     1      17.917  10.662  38.078  0.00  0.00    +0.000 A 
ENDROOT
BRANCH   1  15
ATOM     11  O   UNL     1      20.380   6.647  42.648  0.00  0.00    +0.000 OA
ATOM     12  C   UNL     1      19.638   7.463  41.787  0.00  0.00    +0.000 A 
ATOM     13  C   UNL     1      19.250   8.736  42.147  0.00  0.00    +0.000 A 
ATOM     14  C   UNL     1      18.509   9.522  41.258  0.00  0.00    +0.000 A 
ATOM     15  C   UNL     1      18.144   9.062  40.009  0.00  0.00    +0.000 A 
ATOM     16  C   UNL     1      18.546   7.786  39.678  0.00  0.00    +0.000 A 
ATOM     17  C   UNL     1      19.280   6.997  40.550  0.00  0.00    +0.000 A 
ENDBRANCH   1  15
BRANCH  10  18
ATOM     18  C   UNL     1      19.340  10.707  37.767  0.00  0.00    +0.000 A 
ATOM     19  C   UNL     1      20.122  11.696  38.322  0.00  0.00    +0.000 A 
ATOM     20  C   UNL     1      21.480  11.803  38.075  0.00  0.00    +0.000 A 
ATOM     21  C   UNL     1      22.073  10.873  37.233  0.00  0.00    +0.000 A 
ATOM     22  O   UNL     1      23.451  10.944  36.953  0.00  0.00    +0.000 OA
ATOM     23  C   UNL     1      21.320   9.878  36.667  0.00  0.00    +0.000 A 
ATOM     24  C   UNL     1      19.974   9.810  36.941  0.00  0.00    +0.000 A 
ENDBRANCH  10  18
TORSDOF 2
ENDMDL
MODEL 2
REMARK VINA RESULT:      -7.3      0.999      4.340
REMARK  Name = 
REMARK  2 active torsions:
REMARK  status: ('A' for Active; 'I' for Inactive)
REMARK    1  A    between atoms: C_5  and  C_6
REMARK    2  A    between atoms: C_15  and  C_16
REMARK                            x       y       z     vdW  Elec       q    Type
REMARK                         _______ _______ _______ _____ _____    ______ ____
ROOT
ATOM      1  C   UNL     1      18.397  11.021  37.494  0.00  0.00    +0.000 A 
ATOM      2  O   UNL     1      17.638  11.777  36.743  0.00  0.00    +0.000 OA
ATOM      3  C   UNL     1      16.371  11.709  37.085  0.00  0.00    +0.000 A 
ATOM      4  C   UNL     1      15.212  12.301  36.614  0.00  0.00    +0.000 A 
ATOM      5  C   UNL     1      13.988  12.048  37.168  0.00  0.00    +0.000 A 
ATOM      6  O   UNL     1      12.818  12.658  36.678  0.00  0.00    +0.000 OA
ATOM      7  C   UNL     1      13.918  11.173  38.233  0.00  0.00    +0.000 A 
ATOM      8  C   UNL     1      15.061  10.554  38.741  0.00  0.00    +0.000 A 
ATOM      9  C   UNL     1      16.272  10.841  38.146  0.00  0.00    +0.000 A 
ATOM     10  C   UNL     1      17.554  10.403  38.408  0.00  0.00    +0.000 A 
ENDROOT
BRANCH   1  15
ATOM     11  O   UNL     1      24.021  10.261  37.314  0.00  0.00    +0.000 OA
ATOM     12  C   UNL     1      22.637  10.461  37.370  0.00  0.00    +0.000 A 
ATOM     13  C   UNL     1      22.076  11.435  38.167  0.00  0.00    +0.000 A 
ATOM     14  C   UNL     1      20.686  11.605  38.195  0.00  0.00    +0.000 A 
ATOM     15  C   UNL     1      19.842  10.818  37.440  0.00  0.00    +0.000 A 
ATOM     16  C   UNL     1      20.432   9.853  36.653  0.00  0.00    +0.000 A 
ATOM     17  C   UNL     1      21.807   9.675  36.616  0.00  0.00    +0.000 A 
ENDBRANCH   1  15
BRANCH  10  18
ATOM     18  C   UNL     1      18.004   9.472  39.434  0.00  0.00    +0.000 A 
ATOM     19  C   UNL     1      18.277   8.167  39.089  0.00  0.00    +0.000 A 
ATOM     20  C   UNL     1      18.710   7.225  40.008  0.00  0.00    +0.000 A 
ATOM     21  C   UNL     1      18.874   7.617  41.328  0.00  0.00    +0.000 A 
ATOM     22  O   UNL     1      19.310   6.693  42.296  0.00  0.00    +0.000 OA
ATOM     23  C   UNL     1      18.609   8.910  41.701  0.00  0.00    +0.000 A 
ATOM     24  C   UNL     1      18.182   9.812  40.754  0.00  0.00    +0.000 A 
ENDBRANCH  10  18
TORSDOF 2
ENDMDL
MODEL 3
REMARK VINA RESULT:      -7.2     30.546     33.357
REMARK  Name = 
REMARK  2 active torsions:
REMARK  status: ('A' for Active; 'I' for Inactive)
REMARK    1  A    between atoms: C_5  and  C_6
REMARK    2  A    between atoms: C_15  and  C_16
REMARK                            x       y       z     vdW  Elec       q    Type
REMARK                         _______ _______ _______ _____ _____    ______ ____
ROOT
ATOM      1  C   UNL     1      31.861  22.100  11.480  0.00  0.00    +0.000 A 
ATOM      2  O   UNL     1      31.452  22.568  12.631  0.00  0.00    +0.000 OA
ATOM      3  C   UNL     1      30.164  22.829  12.635  0.00  0.00    +0.000 A 
ATOM      4  C   UNL     1      29.283  23.324  13.581  0.00  0.00    +0.000 A 
ATOM      5  C   UNL     1      27.954  23.505  13.314  0.00  0.00    +0.000 A 
ATOM      6  O   UNL     1      27.071  24.008  14.288  0.00  0.00    +0.000 OA
ATOM      7  C   UNL     1      27.487  23.177  12.058  0.00  0.00    +0.000 A 
ATOM      8  C   UNL     1      28.338  22.676  11.074  0.00  0.00    +0.000 A 
ATOM      9  C   UNL     1      29.671  22.513  11.392  0.00  0.00    +0.000 A 
ATOM     10  C   UNL     1      30.743  22.050  10.657  0.00  0.00    +0.000 A 
ENDROOT
BRANCH   1  15
ATOM     11  O   UNL     1      37.066  20.474   9.899  0.00  0.00    +0.000 OA
ATOM     12  C   UNL     1      35.779  20.858  10.293  0.00  0.00    +0.000 A 
ATOM     13  C   UNL     1      34.869  19.949  10.786  0.00  0.00    +0.000 A 
ATOM     14  C   UNL     1      33.591  20.372  11.170  0.00  0.00    +0.000 A 
ATOM     15  C   UNL     1      33.201  21.692  11.072  0.00  0.00    +0.000 A 
ATOM     16  C   UNL     1      34.133  22.577  10.575  0.00  0.00    +0.000 A 
ATOM     17  C   UNL     1      35.402  22.170  10.191  0.00  0.00    +0.000 A 
ENDBRANCH   1  15
BRANCH  10  18
ATOM     18  C   UNL     1      30.766  21.582   9.277  0.00  0.00    +0.000 A 
ATOM     19  C   UNL     1      31.244  22.415   8.289  0.00  0.00    +0.000 A 
ATOM     20  C   UNL     1      31.298  22.041   6.957  0.00  0.00    +0.000 A 
ATOM     21  C   UNL     1      30.850  20.775   6.608  0.00  0.00    +0.000 A 
ATOM     22  O   UNL     1      30.885  20.353   5.266  0.00  0.00    +0.000 OA
ATOM     23  C   UNL     1      30.368  19.925   7.570  0.00  0.00    +0.000 A 
ATOM     24  C   UNL     1      30.334  20.338   8.882  0.00  0.00    +0.000 A 
ENDBRANCH  10  18
TORSDOF 2
ENDMDL
MODEL 4
REMARK VINA RESULT:      -7.2      2.051      5.721
REMARK  Name = 
REMARK  2 active torsions:
REMARK  status: ('A' for Active; 'I' for Inactive)
REMARK    1  A    between atoms: C_5  and  C_6
REMARK    2  A    between atoms: C_15  and  C_16
REMARK                            x       y       z     vdW  Elec       q    Type
REMARK                         _______ _______ _______ _____ _____    ______ ____
ROOT
ATOM      1  C   UNL     1      20.320   9.074  39.237  0.00  0.00    +0.000 A 
ATOM      2  O   UNL     1      21.573   8.862  39.548  0.00  0.00    +0.000 OA
ATOM      3  C   UNL     1      22.397   9.275  38.611  0.00  0.00    +0.000 A 
ATOM      4  C   UNL     1      23.775   9.275  38.470  0.00  0.00    +0.000 A 
ATOM      5  C   UNL     1      24.392   9.782  37.359  0.00  0.00    +0.000 A 
ATOM      6  O   UNL     1      25.794   9.776  37.231  0.00  0.00    +0.000 OA
ATOM      7  C   UNL     1      23.607  10.308  36.355  0.00  0.00    +0.000 A 
ATOM      8  C   UNL     1      22.215  10.328  36.454  0.00  0.00    +0.000 A 
ATOM      9  C   UNL     1      21.640   9.805  37.594  0.00  0.00    +0.000 A 
ATOM     10  C   UNL     1      20.323   9.679  37.987  0.00  0.00    +0.000 A 
ENDROOT
BRANCH   1  15
ATOM     11  O   UNL     1      15.632   7.834  42.189  0.00  0.00    +0.000 OA
ATOM     12  C   UNL     1      16.788   8.123  41.456  0.00  0.00    +0.000 A 
ATOM     13  C   UNL     1      17.440   7.159  40.717  0.00  0.00    +0.000 A 
ATOM     14  C   UNL     1      18.594   7.488  39.996  0.00  0.00    +0.000 A 
ATOM     15  C   UNL     1      19.114   8.765  39.998  0.00  0.00    +0.000 A 
ATOM     16  C   UNL     1      18.441   9.707  40.747  0.00  0.00    +0.000 A 
ATOM     17  C   UNL     1      17.297   9.394  41.465  0.00  0.00    +0.000 A 
ENDBRANCH   1  15
BRANCH  10  18
ATOM     18  C   UNL     1      19.119  10.085  37.274  0.00  0.00    +0.000 A 
ATOM     19  C   UNL     1      18.565  11.320  37.533  0.00  0.00    +0.000 A 
ATOM     20  C   UNL     1      17.423  11.776  36.895  0.00  0.00    +0.000 A 
ATOM     21  C   UNL     1      16.817  10.952  35.958  0.00  0.00    +0.000 A 
ATOM     22  O   UNL     1      15.654  11.374  35.287  0.00  0.00    +0.000 OA
ATOM     23  C   UNL     1      17.346   9.718  35.681  0.00  0.00    +0.000 A 
ATOM     24  C   UNL     1      18.482   9.306  36.338  0.00  0.00    +0.000 A 
ENDBRANCH  10  18
TORSDOF 2
ENDMDL
MODEL 5
REMARK VINA RESULT:      -6.8     20.543     22.594
REMARK  Name = 
REMARK  2 active torsions:
REMARK  status: ('A' for Active; 'I' for Inactive)
REMARK    1  A    between atoms: C_5  and  C_6
REMARK    2  A    between atoms: C_15  and  C_16
REMARK                            x       y       z     vdW  Elec       q    Type
REMARK                         _______ _______ _______ _____ _____    ______ ____
ROOT
ATOM      1  C   UNL     1      29.703  23.410  26.045  0.00  0.00    +0.000 A 
ATOM      2  O   UNL     1      28.513  23.020  25.668  0.00  0.00    +0.000 OA
ATOM      3  C   UNL     1      28.245  23.361  24.428  0.00  0.00    +0.000 A 
ATOM      4  C   UNL     1      27.154  23.184  23.593  0.00  0.00    +0.000 A 
ATOM      5  C   UNL     1      27.137  23.654  22.309  0.00  0.00    +0.000 A 
ATOM      6  O   UNL     1      26.021  23.467  21.472  0.00  0.00    +0.000 OA
ATOM      7  C   UNL     1      28.250  24.322  21.840  0.00  0.00    +0.000 A 
ATOM      8  C   UNL     1      29.371  24.522  22.645  0.00  0.00    +0.000 A 
ATOM      9  C   UNL     1      29.339  24.030  23.934  0.00  0.00    +0.000 A 
ATOM     10  C   UNL     1      30.265  24.063  24.956  0.00  0.00    +0.000 A 
ENDROOT
BRANCH   1  15
ATOM     11  O   UNL     1      32.282  22.743  31.060  0.00  0.00    +0.000 OA
ATOM     12  C   UNL     1      31.639  22.922  29.830  0.00  0.00    +0.000 A 
ATOM     13  C   UNL     1      30.830  24.011  29.584  0.00  0.00    +0.000 A 
ATOM     14  C   UNL     1      30.205  24.155  28.340  0.00  0.00    +0.000 A 
ATOM     15  C   UNL     1      30.371  23.230  27.330  0.00  0.00    +0.000 A 
ATOM     16  C   UNL     1      31.185  22.153  27.605  0.00  0.00    +0.000 A 
ATOM     17  C   UNL     1      31.810  21.998  28.833  0.00  0.00    +0.000 A 
ENDBRANCH   1  15
BRANCH  10  18
ATOM     18  C   UNL     1      31.597  24.654  24.957  0.00  0.00    +0.000 A 
ATOM     19  C   UNL     1      32.682  23.874  24.620  0.00  0.00    +0.000 A 
ATOM     20  C   UNL     1      33.977  24.364  24.597  0.00  0.00    +0.000 A 
ATOM     21  C   UNL     1      34.185  25.695  24.928  0.00  0.00    +0.000 A 
ATOM     22  O   UNL     1      35.484  26.236  24.919  0.00  0.00    +0.000 OA
ATOM     23  C   UNL     1      33.124  26.495  25.268  0.00  0.00    +0.000 A 
ATOM     24  C   UNL     1      31.855  25.966  25.276  0.00  0.00    +0.000 A 
ENDBRANCH  10  18
TORSDOF 2
ENDMDL
MODEL 6
REMARK VINA RESULT:      -6.7     17.861     20.835
REMARK  Name = 
REMARK  2 active torsions:
REMARK  status: ('A' for Active; 'I' for Inactive)
REMARK    1  A    between atoms: C_5  and  C_6
REMARK    2  A    between atoms: C_15  and  C_16
REMARK                            x       y       z     vdW  Elec       q    Type
REMARK                         _______ _______ _______ _____ _____    ______ ____
ROOT
ATOM      1  C   UNL     1      29.399  23.312  26.122  0.00  0.00    +0.000 A 
ATOM      2  O   UNL     1      29.415  23.186  24.819  0.00  0.00    +0.000 OA
ATOM      3  C   UNL     1      28.219  23.311  24.291  0.00  0.00    +0.000 A 
ATOM      4  C   UNL     1      27.725  23.261  22.998  0.00  0.00    +0.000 A 
ATOM      5  C   UNL     1      26.397  23.428  22.719  0.00  0.00    +0.000 A 
ATOM      6  O   UNL     1      25.911  23.374  21.399  0.00  0.00    +0.000 OA
ATOM      7  C   UNL     1      25.530  23.656  23.768  0.00  0.00    +0.000 A 
ATOM      8  C   UNL     1      25.983  23.715  25.086  0.00  0.00    +0.000 A 
ATOM      9  C   UNL     1      27.332  23.539  25.316  0.00  0.00    +0.000 A 
ATOM     10  C   UNL     1      28.077  23.540  26.477  0.00  0.00    +0.000 A 
ENDROOT
BRANCH   1  15
ATOM     11  O   UNL     1      33.709  23.074  29.811  0.00  0.00    +0.000 OA
ATOM     12  C   UNL     1      32.650  23.150  28.899  0.00  0.00    +0.000 A 
ATOM     13  C   UNL     1      32.331  24.324  28.251  0.00  0.00    +0.000 A 
ATOM     14  C   UNL     1      31.265  24.359  27.345  0.00  0.00    +0.000 A 
ATOM     15  C   UNL     1      30.506  23.241  27.071  0.00  0.00    +0.000 A 
ATOM     16  C   UNL     1      30.848  22.082  27.733  0.00  0.00    +0.000 A 
ATOM     17  C   UNL     1      31.902  22.034  28.633  0.00  0.00    +0.000 A 
ENDBRANCH   1  15
BRANCH  10  18
ATOM     18  C   UNL     1      27.623  23.739  27.848  0.00  0.00    +0.000 A 
ATOM     19  C   UNL     1      27.641  25.006  28.388  0.00  0.00    +0.000 A 
ATOM     20  C   UNL     1      27.224  25.273  29.682  0.00  0.00    +0.000 A 
ATOM     21  C   UNL     1      26.772  24.219  30.461  0.00  0.00    +0.000 A 
ATOM     22  O   UNL     1      26.340  24.444  31.781  0.00  0.00    +0.000 OA
ATOM     23  C   UNL     1      26.743  22.947  29.950  0.00  0.00    +0.000 A 
ATOM     24  C   UNL     1      27.165  22.728  28.659  0.00  0.00    +0.000 A 
ENDBRANCH  10  18
TORSDOF 2
ENDMDL
MODEL 7
REMARK VINA RESULT:      -6.7     18.392     21.158
REMARK  Name = 
REMARK  2 active torsions:
REMARK  status: ('A' for Active; 'I' for Inactive)
REMARK    1  A    between atoms: C_5  and  C_6
REMARK    2  A    between atoms: C_15  and  C_16
REMARK                            x       y       z     vdW  Elec       q    Type
REMARK                         _______ _______ _______ _____ _____    ______ ____
ROOT
ATOM      1  C   UNL     1      32.212  -3.513  34.952  0.00  0.00    +0.000 A 
ATOM      2  O   UNL     1      31.849  -2.327  35.368  0.00  0.00    +0.000 OA
ATOM      3  C   UNL     1      32.477  -1.362  34.735  0.00  0.00    +0.000 A 
ATOM      4  C   UNL     1      32.444   0.021  34.809  0.00  0.00    +0.000 A 
ATOM      5  C   UNL     1      33.225   0.811  34.011  0.00  0.00    +0.000 A 
ATOM      6  O   UNL     1      33.180   2.215  34.097  0.00  0.00    +0.000 OA
ATOM      7  C   UNL     1      34.067   0.199  33.105  0.00  0.00    +0.000 A 
ATOM      8  C   UNL     1      34.133  -1.190  32.997  0.00  0.00    +0.000 A 
ATOM      9  C   UNL     1      33.326  -1.943  33.824  0.00  0.00    +0.000 A 
ATOM     10  C   UNL     1      33.161  -3.307  33.959  0.00  0.00    +0.000 A 
ENDROOT
BRANCH   1  15
ATOM     11  O   UNL     1      30.454  -8.619  36.706  0.00  0.00    +0.000 OA
ATOM     12  C   UNL     1      30.895  -7.358  36.289  0.00  0.00    +0.000 A 
ATOM     13  C   UNL     1      31.662  -6.551  37.101  0.00  0.00    +0.000 A 
ATOM     14  C   UNL     1      32.085  -5.296  36.648  0.00  0.00    +0.000 A 
ATOM     15  C   UNL     1      31.756  -4.827  35.393  0.00  0.00    +0.000 A 
ATOM     16  C   UNL     1      30.989  -5.656  34.604  0.00  0.00    +0.000 A 
ATOM     17  C   UNL     1      30.564  -6.901  35.041  0.00  0.00    +0.000 A 
ENDBRANCH   1  15
BRANCH  10  18
ATOM     18  C   UNL     1      33.824  -4.379  33.228  0.00  0.00    +0.000 A 
ATOM     19  C   UNL     1      34.782  -5.138  33.864  0.00  0.00    +0.000 A 
ATOM     20  C   UNL     1      35.454  -6.173  33.236  0.00  0.00    +0.000 A 
ATOM     21  C   UNL     1      35.146  -6.454  31.912  0.00  0.00    +0.000 A 
ATOM     22  O   UNL     1      35.805  -7.496  31.235  0.00  0.00    +0.000 OA
ATOM     23  C   UNL     1      34.197  -5.715  31.255  0.00  0.00    +0.000 A 
ATOM     24  C   UNL     1      33.554  -4.696  31.918  0.00  0.00    +0.000 A 
ENDBRANCH  10  18
TORSDOF 2
ENDMDL
MODEL 8
REMARK VINA RESULT:      -6.6     18.482     21.406
REMARK  Name = 
REMARK  2 active torsions:
REMARK  status: ('A' for Active; 'I' for Inactive)
REMARK    1  A    between atoms: C_5  and  C_6
REMARK    2  A    between atoms: C_15  and  C_16
REMARK                            x       y       z     vdW  Elec       q    Type
REMARK                         _______ _______ _______ _____ _____    ______ ____
ROOT
ATOM      1  C   UNL     1      31.314  22.653  27.785  0.00  0.00    +0.000 A 
ATOM      2  O   UNL     1      32.439  22.149  28.223  0.00  0.00    +0.000 OA
ATOM      3  C   UNL     1      32.417  21.929  29.519  0.00  0.00    +0.000 A 
ATOM      4  C   UNL     1      33.332  21.422  30.426  0.00  0.00    +0.000 A 
ATOM      5  C   UNL     1      33.043  21.297  31.757  0.00  0.00    +0.000 A 
ATOM      6  O   UNL     1      33.984  20.779  32.668  0.00  0.00    +0.000 OA
ATOM      7  C   UNL     1      31.796  21.690  32.198  0.00  0.00    +0.000 A 
ATOM      8  C   UNL     1      30.844  22.206  31.319  0.00  0.00    +0.000 A 
ATOM      9  C   UNL     1      31.183  22.313  29.986  0.00  0.00    +0.000 A 
ATOM     10  C   UNL     1      30.481  22.773  28.891  0.00  0.00    +0.000 A 
ENDROOT
BRANCH   1  15
ATOM     11  O   UNL     1      29.878  24.170  22.506  0.00  0.00    +0.000 OA
ATOM     12  C   UNL     1      30.241  23.811  23.809  0.00  0.00    +0.000 A 
ATOM     13  C   UNL     1      31.055  24.610  24.583  0.00  0.00    +0.000 A 
ATOM     14  C   UNL     1      31.396  24.216  25.882  0.00  0.00    +0.000 A 
ATOM     15  C   UNL     1      30.938  23.035  26.428  0.00  0.00    +0.000 A 
ATOM     16  C   UNL     1      30.127  22.257  25.630  0.00  0.00    +0.000 A 
ATOM     17  C   UNL     1      29.782  22.636  24.342  0.00  0.00    +0.000 A 
ENDBRANCH   1  15
BRANCH  10  18
ATOM     18  C   UNL     1      29.122  23.296  28.836  0.00  0.00    +0.000 A 
ATOM     19  C   UNL     1      28.918  24.655  28.919  0.00  0.00    +0.000 A 
ATOM     20  C   UNL     1      27.657  25.227  28.873  0.00  0.00    +0.000 A 
ATOM     21  C   UNL     1      26.558  24.391  28.739  0.00  0.00    +0.000 A 
ATOM     22  O   UNL     1      25.258  24.927  28.689  0.00  0.00    +0.000 OA
ATOM     23  C   UNL     1      26.731  23.033  28.654  0.00  0.00    +0.000 A 
ATOM     24  C   UNL     1      28.002  22.509  28.703  0.00  0.00    +0.000 A 
ENDBRANCH  10  18
TORSDOF 2
ENDMDL
MODEL 9
REMARK VINA RESULT:      -6.6     19.784     21.294
REMARK  Name = 
REMARK  2 active torsions:
REMARK  status: ('A' for Active; 'I' for Inactive)
REMARK    1  A    between atoms: C_5  and  C_6
REMARK    2  A    between atoms: C_15  and  C_16
REMARK                            x       y       z     vdW  Elec       q    Type
REMARK                         _______ _______ _______ _____ _____    ______ ____
ROOT
ATOM      1  C   UNL     1      26.737  24.507  26.780  0.00  0.00    +0.000 A 
ATOM      2  O   UNL     1      25.748  24.807  27.582  0.00  0.00    +0.000 OA
ATOM      3  C   UNL     1      24.762  25.410  26.956  0.00  0.00    +0.000 A 
ATOM      4  C   UNL     1      23.533  25.912  27.350  0.00  0.00    +0.000 A 
ATOM      5  C   UNL     1      22.675  26.510  26.468  0.00  0.00    +0.000 A 
ATOM      6  O   UNL     1      21.429  27.014  26.884  0.00  0.00    +0.000 OA
ATOM      7  C   UNL     1      23.057  26.609  25.146  0.00  0.00    +0.000 A 
ATOM      8  C   UNL     1      24.286  26.118  24.705  0.00  0.00    +0.000 A 
ATOM      9  C   UNL     1      25.116  25.524  25.633  0.00  0.00    +0.000 A 
ATOM     10  C   UNL     1      26.367  24.952  25.518  0.00  0.00    +0.000 A 
ENDROOT
BRANCH   1  15
ATOM     11  O   UNL     1      31.664  21.947  27.965  0.00  0.00    +0.000 OA
ATOM     12  C   UNL     1      30.456  22.593  27.680  0.00  0.00    +0.000 A 
ATOM     13  C   UNL     1      30.238  23.910  28.022  0.00  0.00    +0.000 A 
ATOM     14  C   UNL     1      29.015  24.521  27.719  0.00  0.00    +0.000 A 
ATOM     15  C   UNL     1      28.000  23.840  27.079  0.00  0.00    +0.000 A 
ATOM     16  C   UNL     1      28.248  22.525  26.751  0.00  0.00    +0.000 A 
ATOM     17  C   UNL     1      29.454  21.909  27.045  0.00  0.00    +0.000 A 
ENDBRANCH   1  15
BRANCH  10  18
ATOM     18  C   UNL     1      27.195  24.810  24.327  0.00  0.00    +0.000 A 
ATOM     19  C   UNL     1      28.175  25.744  24.070  0.00  0.00    +0.000 A 
ATOM     20  C   UNL     1      29.001  25.676  22.961  0.00  0.00    +0.000 A 
ATOM     21  C   UNL     1      28.831  24.622  22.075  0.00  0.00    +0.000 A 
ATOM     22  O   UNL     1      29.647  24.513  20.934  0.00  0.00    +0.000 OA
ATOM     23  C   UNL     1      27.864  23.678  22.305  0.00  0.00    +0.000 A 
ATOM     24  C   UNL     1      27.066  23.785  23.420  0.00  0.00    +0.000 A 
ENDBRANCH  10  18
TORSDOF 2
ENDMDL
MODEL 10
REMARK VINA RESULT:      -6.6     17.822     20.554
REMARK  Name = 
REMARK  2 active torsions:
REMARK  status: ('A' for Active; 'I' for Inactive)
REMARK    1  A    between atoms: C_5  and  C_6
REMARK    2  A    between atoms: C_15  and  C_16
REMARK                            x       y       z     vdW  Elec       q    Type
REMARK                         _______ _______ _______ _____ _____    ______ ____
ROOT
ATOM      1  C   UNL     1      26.766  23.983  26.813  0.00  0.00    +0.000 A 
ATOM      2  O   UNL     1      25.821  24.020  25.908  0.00  0.00    +0.000 OA
ATOM      3  C   UNL     1      26.278  23.788  24.698  0.00  0.00    +0.000 A 
ATOM      4  C   UNL     1      25.696  23.720  23.444  0.00  0.00    +0.000 A 
ATOM      5  C   UNL     1      26.424  23.455  22.317  0.00  0.00    +0.000 A 
ATOM      6  O   UNL     1      25.817  23.389  21.049  0.00  0.00    +0.000 OA
ATOM      7  C   UNL     1      27.782  23.250  22.447  0.00  0.00    +0.000 A 
ATOM      8  C   UNL     1      28.411  23.309  23.691  0.00  0.00    +0.000 A 
ATOM      9  C   UNL     1      27.633  23.580  24.797  0.00  0.00    +0.000 A 
ATOM     10  C   UNL     1      27.945  23.703  26.136  0.00  0.00    +0.000 A 
ENDROOT
BRANCH   1  15
ATOM     11  O   UNL     1      26.405  24.731  32.429  0.00  0.00    +0.000 OA
ATOM     12  C   UNL     1      26.492  24.529  31.047  0.00  0.00    +0.000 A 
ATOM     13  C   UNL     1      26.419  23.271  30.490  0.00  0.00    +0.000 A 
ATOM     14  C   UNL     1      26.510  23.110  29.103  0.00  0.00    +0.000 A 
ATOM     15  C   UNL     1      26.673  24.186  28.255  0.00  0.00    +0.000 A 
ATOM     16  C   UNL     1      26.743  25.431  28.841  0.00  0.00    +0.000 A 
ATOM     17  C   UNL     1      26.655  25.603  30.213  0.00  0.00    +0.000 A 
ENDBRANCH   1  15
BRANCH  10  18
ATOM     18  C   UNL     1      29.246  23.573  26.781  0.00  0.00    +0.000 A 
ATOM     19  C   UNL     1      30.027  24.694  26.958  0.00  0.00    +0.000 A 
ATOM     20  C   UNL     1      31.272  24.651  27.562  0.00  0.00    +0.000 A 
ATOM     21  C   UNL     1      31.748  23.426  28.007  0.00  0.00    +0.000 A 
ATOM     22  O   UNL     1      33.008  23.334  28.627  0.00  0.00    +0.000 OA
ATOM     23  C   UNL     1      30.992  22.293  27.844  0.00  0.00    +0.000 A 
ATOM     24  C   UNL     1      29.760  22.384  27.239  0.00  0.00    +0.000 A 
ENDBRANCH  10  18
TORSDOF 2
ENDMDL
