MODEL 1
REMARK VINA RESULT:      -6.6      0.000      0.000
REMARK  Name = 
REMARK  3 active torsions:
REMARK  status: ('A' for Active; 'I' for Inactive)
REMARK    1  A    between atoms: C_2  and  O_3
REMARK    2  A    between atoms: O_3  and  C_4
REMARK    3  A    between atoms: C_9  and  C_10
REMARK                            x       y       z     vdW  Elec       q    Type
REMARK                         _______ _______ _______ _____ _____    ______ ____
ROOT
ATOM      1  C   UNL     1      17.676  -7.166  27.469  0.00  0.00    +0.000 C 
ATOM      2  C   UNL     1      18.649  -6.670  26.761  0.00  0.00    +0.000 C 
ATOM      3  C   UNL     1      18.852  -5.279  26.330  0.00  0.00    +0.000 C 
ATOM      4  O   UNL     1      18.104  -4.304  26.555  0.00  0.00    +0.000 OA
ATOM      5  N   UNL     1      20.063  -5.200  25.596  0.00  0.00    +0.000 NA
ATOM      6  C   UNL     1      20.623  -6.524  25.561  0.00  0.00    +0.000 A 
ATOM      7  C   UNL     1      21.802  -6.905  24.955  0.00  0.00    +0.000 A 
ATOM      8  C   UNL     1      22.169  -8.215  25.037  0.00  0.00    +0.000 A 
ATOM      9  C   UNL     1      21.364  -9.122  25.717  0.00  0.00    +0.000 A 
ATOM     10 CL   UNL     1      21.931 -10.779  25.762  0.00  0.00    +0.000 Cl
ATOM     11  C   UNL     1      20.198  -8.715  26.310  0.00  0.00    +0.000 A 
ATOM     12  C   UNL     1      19.794  -7.408  26.248  0.00  0.00    +0.000 A 
ENDROOT
BRANCH   1  18
ATOM     13  C   UNL     1      16.711  -9.316  27.027  0.00  0.00    +0.000 A 
ATOM     14  C   UNL     1      16.539 -10.646  27.274  0.00  0.00    +0.000 A 
ATOM     15  C   UNL     1      17.170 -11.264  28.318  0.00  0.00    +0.000 A 
ATOM     16  C   UNL     1      18.003 -10.506  29.140  0.00  0.00    +0.000 A 
ATOM     17  C   UNL     1      18.170  -9.177  28.886  0.00  0.00    +0.000 A 
ATOM     18  C   UNL     1      17.547  -8.555  27.851  0.00  0.00    +0.000 A 
BRANCH  13  19
ATOM     19  O   UNL     1      16.048  -8.712  25.945  0.00  0.00    +0.000 OA
BRANCH  19  21
ATOM     20  C   UNL     1      13.621  -8.550  25.997  0.00  0.00    +0.000 C 
ATOM     21  C   UNL     1      14.842  -9.302  25.515  0.00  0.00    +0.000 C 
ENDBRANCH  19  21
ENDBRANCH  13  19
ENDBRANCH   1  18
TORSDOF 3
ENDMDL
MODEL 2
REMARK VINA RESULT:      -6.4     32.884     34.240
REMARK  Name = 
REMARK  3 active torsions:
REMARK  status: ('A' for Active; 'I' for Inactive)
REMARK    1  A    between atoms: C_2  and  O_3
REMARK    2  A    between atoms: O_3  and  C_4
REMARK    3  A    between atoms: C_9  and  C_10
REMARK                            x       y       z     vdW  Elec       q    Type
REMARK                         _______ _______ _______ _____ _____    ______ ____
ROOT
ATOM      1  C   UNL     1      30.439  23.354  24.118  0.00  0.00    +0.000 C 
ATOM      2  C   UNL     1      29.233  23.634  23.714  0.00  0.00    +0.000 C 
ATOM      3  C   UNL     1      28.764  23.901  22.345  0.00  0.00    +0.000 C 
ATOM      4  O   UNL     1      29.453  23.924  21.304  0.00  0.00    +0.000 OA
ATOM      5  N   UNL     1      27.366  24.135  22.380  0.00  0.00    +0.000 NA
ATOM      6  C   UNL     1      26.951  24.019  23.752  0.00  0.00    +0.000 A 
ATOM      7  C   UNL     1      25.670  24.166  24.242  0.00  0.00    +0.000 A 
ATOM      8  C   UNL     1      25.476  24.011  25.582  0.00  0.00    +0.000 A 
ATOM      9  C   UNL     1      26.552  23.713  26.411  0.00  0.00    +0.000 A 
ATOM     10 CL   UNL     1      26.190  23.535  28.115  0.00  0.00    +0.000 Cl
ATOM     11  C   UNL     1      27.814  23.573  25.897  0.00  0.00    +0.000 A 
ATOM     12  C   UNL     1      28.049  23.722  24.556  0.00  0.00    +0.000 A 
ENDROOT
BRANCH   1  18
ATOM     13  C   UNL     1      31.589  24.117  26.078  0.00  0.00    +0.000 A 
ATOM     14  C   UNL     1      31.980  24.005  27.380  0.00  0.00    +0.000 A 
ATOM     15  C   UNL     1      31.639  22.917  28.134  0.00  0.00    +0.000 A 
ATOM     16  C   UNL     1      30.875  21.908  27.549  0.00  0.00    +0.000 A 
ATOM     17  C   UNL     1      30.487  22.029  26.247  0.00  0.00    +0.000 A 
ATOM     18  C   UNL     1      30.822  23.106  25.490  0.00  0.00    +0.000 A 
BRANCH  13  19
ATOM     19  O   UNL     1      31.956  25.249  25.330  0.00  0.00    +0.000 OA
BRANCH  19  21
ATOM     20  C   UNL     1      34.166  24.541  24.601  0.00  0.00    +0.000 C 
ATOM     21  C   UNL     1      33.325  25.587  25.299  0.00  0.00    +0.000 C 
ENDBRANCH  19  21
ENDBRANCH  13  19
ENDBRANCH   1  18
TORSDOF 3
ENDMDL
MODEL 3
REMARK VINA RESULT:      -6.4     32.365     33.852
REMARK  Name = 
REMARK  3 active torsions:
REMARK  status: ('A' for Active; 'I' for Inactive)
REMARK    1  A    between atoms: C_2  and  O_3
REMARK    2  A    between atoms: O_3  and  C_4
REMARK    3  A    between atoms: C_9  and  C_10
REMARK                            x       y       z     vdW  Elec       q    Type
REMARK                         _______ _______ _______ _____ _____    ______ ____
ROOT
ATOM      1  C   UNL     1      26.272  22.831  25.103  0.00  0.00    +0.000 C 
ATOM      2  C   UNL     1      26.727  23.453  24.053  0.00  0.00    +0.000 C 
ATOM      3  C   UNL     1      26.245  23.381  22.665  0.00  0.00    +0.000 C 
ATOM      4  O   UNL     1      25.305  22.683  22.230  0.00  0.00    +0.000 OA
ATOM      5  N   UNL     1      27.028  24.250  21.864  0.00  0.00    +0.000 NA
ATOM      6  C   UNL     1      27.996  24.866  22.731  0.00  0.00    +0.000 A 
ATOM      7  C   UNL     1      28.958  25.787  22.371  0.00  0.00    +0.000 A 
ATOM      8  C   UNL     1      29.784  26.263  23.344  0.00  0.00    +0.000 A 
ATOM      9  C   UNL     1      29.643  25.821  24.656  0.00  0.00    +0.000 A 
ATOM     10 CL   UNL     1      30.756  26.498  25.825  0.00  0.00    +0.000 Cl
ATOM     11  C   UNL     1      28.678  24.905  24.984  0.00  0.00    +0.000 A 
ATOM     12  C   UNL     1      27.829  24.403  24.034  0.00  0.00    +0.000 A 
ENDROOT
BRANCH   1  18
ATOM     13  C   UNL     1      26.091  23.808  27.284  0.00  0.00    +0.000 A 
ATOM     14  C   UNL     1      26.486  23.977  28.578  0.00  0.00    +0.000 A 
ATOM     15  C   UNL     1      27.578  23.324  29.080  0.00  0.00    +0.000 A 
ATOM     16  C   UNL     1      28.293  22.471  28.240  0.00  0.00    +0.000 A 
ATOM     17  C   UNL     1      27.891  22.309  26.947  0.00  0.00    +0.000 A 
ATOM     18  C   UNL     1      26.807  22.954  26.440  0.00  0.00    +0.000 A 
BRANCH  13  19
ATOM     19  O   UNL     1      24.963  24.494  26.800  0.00  0.00    +0.000 OA
BRANCH  19  21
ATOM     20  C   UNL     1      24.660  26.331  25.234  0.00  0.00    +0.000 C 
ATOM     21  C   UNL     1      25.083  25.887  26.617  0.00  0.00    +0.000 C 
ENDBRANCH  19  21
ENDBRANCH  13  19
ENDBRANCH   1  18
TORSDOF 3
ENDMDL
MODEL 4
REMARK VINA RESULT:      -6.3     32.698     34.064
REMARK  Name = 
REMARK  3 active torsions:
REMARK  status: ('A' for Active; 'I' for Inactive)
REMARK    1  A    between atoms: C_2  and  O_3
REMARK    2  A    between atoms: O_3  and  C_4
REMARK    3  A    between atoms: C_9  and  C_10
REMARK                            x       y       z     vdW  Elec       q    Type
REMARK                         _______ _______ _______ _____ _____    ______ ____
ROOT
ATOM      1  C   UNL     1      25.689  23.433  25.097  0.00  0.00    +0.000 C 
ATOM      2  C   UNL     1      26.344  23.952  24.098  0.00  0.00    +0.000 C 
ATOM      3  C   UNL     1      26.237  23.630  22.666  0.00  0.00    +0.000 C 
ATOM      4  O   UNL     1      25.498  22.772  22.141  0.00  0.00    +0.000 OA
ATOM      5  N   UNL     1      27.127  24.465  21.943  0.00  0.00    +0.000 NA
ATOM      6  C   UNL     1      27.790  25.306  22.902  0.00  0.00    +0.000 A 
ATOM      7  C   UNL     1      28.736  26.275  22.635  0.00  0.00    +0.000 A 
ATOM      8  C   UNL     1      29.247  26.977  23.685  0.00  0.00    +0.000 A 
ATOM      9  C   UNL     1      28.812  26.709  24.979  0.00  0.00    +0.000 A 
ATOM     10 CL   UNL     1      29.534  27.670  26.252  0.00  0.00    +0.000 Cl
ATOM     11  C   UNL     1      27.872  25.740  25.215  0.00  0.00    +0.000 A 
ATOM     12  C   UNL     1      27.335  25.013  24.186  0.00  0.00    +0.000 A 
ENDROOT
BRANCH   1  18
ATOM     13  C   UNL     1      26.904  23.158  27.145  0.00  0.00    +0.000 A 
ATOM     14  C   UNL     1      27.173  23.453  28.449  0.00  0.00    +0.000 A 
ATOM     15  C   UNL     1      26.435  24.376  29.136  0.00  0.00    +0.000 A 
ATOM     16  C   UNL     1      25.389  25.022  28.479  0.00  0.00    +0.000 A 
ATOM     17  C   UNL     1      25.127  24.721  27.175  0.00  0.00    +0.000 A 
ATOM     18  C   UNL     1      25.855  23.804  26.484  0.00  0.00    +0.000 A 
BRANCH  13  19
ATOM     19  O   UNL     1      27.683  22.204  26.467  0.00  0.00    +0.000 OA
BRANCH  19  21
ATOM     20  C   UNL     1      29.791  22.544  25.302  0.00  0.00    +0.000 C 
ATOM     21  C   UNL     1      29.083  22.289  26.614  0.00  0.00    +0.000 C 
ENDBRANCH  19  21
ENDBRANCH  13  19
ENDBRANCH   1  18
TORSDOF 3
ENDMDL
MODEL 5
REMARK VINA RESULT:      -6.3     32.151     33.722
REMARK  Name = 
REMARK  3 active torsions:
REMARK  status: ('A' for Active; 'I' for Inactive)
REMARK    1  A    between atoms: C_2  and  O_3
REMARK    2  A    between atoms: O_3  and  C_4
REMARK    3  A    between atoms: C_9  and  C_10
REMARK                            x       y       z     vdW  Elec       q    Type
REMARK                         _______ _______ _______ _____ _____    ______ ____
ROOT
ATOM      1  C   UNL     1      27.759  22.044  28.379  0.00  0.00    +0.000 C 
ATOM      2  C   UNL     1      27.234  22.950  29.152  0.00  0.00    +0.000 C 
ATOM      3  C   UNL     1      26.313  22.767  30.284  0.00  0.00    +0.000 C 
ATOM      4  O   UNL     1      25.843  21.689  30.706  0.00  0.00    +0.000 OA
ATOM      5  N   UNL     1      26.024  24.036  30.848  0.00  0.00    +0.000 NA
ATOM      6  C   UNL     1      26.753  25.013  30.085  0.00  0.00    +0.000 A 
ATOM      7  C   UNL     1      26.767  26.377  30.291  0.00  0.00    +0.000 A 
ATOM      8  C   UNL     1      27.530  27.142  29.460  0.00  0.00    +0.000 A 
ATOM      9  C   UNL     1      28.265  26.543  28.442  0.00  0.00    +0.000 A 
ATOM     10 CL   UNL     1      29.210  27.618  27.435  0.00  0.00    +0.000 Cl
ATOM     11  C   UNL     1      28.231  25.185  28.261  0.00  0.00    +0.000 A 
ATOM     12  C   UNL     1      27.476  24.383  29.075  0.00  0.00    +0.000 A 
ENDROOT
BRANCH   1  18
ATOM     13  C   UNL     1      28.035  22.542  26.050  0.00  0.00    +0.000 A 
ATOM     14  C   UNL     1      28.785  22.832  24.949  0.00  0.00    +0.000 A 
ATOM     15  C   UNL     1      30.149  22.901  25.014  0.00  0.00    +0.000 A 
ATOM     16  C   UNL     1      30.774  22.667  26.239  0.00  0.00    +0.000 A 
ATOM     17  C   UNL     1      30.016  22.378  27.335  0.00  0.00    +0.000 A 
ATOM     18  C   UNL     1      28.660  22.307  27.279  0.00  0.00    +0.000 A 
BRANCH  13  19
ATOM     19  O   UNL     1      26.635  22.480  25.948  0.00  0.00    +0.000 OA
BRANCH  19  21
ATOM     20  C   UNL     1      25.469  24.615  25.905  0.00  0.00    +0.000 C 
ATOM     21  C   UNL     1      26.003  23.434  25.124  0.00  0.00    +0.000 C 
ENDBRANCH  19  21
ENDBRANCH  13  19
ENDBRANCH   1  18
TORSDOF 3
ENDMDL
MODEL 6
REMARK VINA RESULT:      -6.3     32.662     34.292
REMARK  Name = 
REMARK  3 active torsions:
REMARK  status: ('A' for Active; 'I' for Inactive)
REMARK    1  A    between atoms: C_2  and  O_3
REMARK    2  A    between atoms: O_3  and  C_4
REMARK    3  A    between atoms: C_9  and  C_10
REMARK                            x       y       z     vdW  Elec       q    Type
REMARK                         _______ _______ _______ _____ _____    ______ ____
ROOT
ATOM      1  C   UNL     1      28.389  23.300  23.190  0.00  0.00    +0.000 C 
ATOM      2  C   UNL     1      27.259  23.427  23.826  0.00  0.00    +0.000 C 
ATOM      3  C   UNL     1      25.894  23.213  23.321  0.00  0.00    +0.000 C 
ATOM      4  O   UNL     1      25.564  22.881  22.163  0.00  0.00    +0.000 OA
ATOM      5  N   UNL     1      24.976  23.445  24.376  0.00  0.00    +0.000 NA
ATOM      6  C   UNL     1      25.746  23.802  25.536  0.00  0.00    +0.000 A 
ATOM      7  C   UNL     1      25.256  24.107  26.790  0.00  0.00    +0.000 A 
ATOM      8  C   UNL     1      26.153  24.416  27.769  0.00  0.00    +0.000 A 
ATOM      9  C   UNL     1      27.515  24.418  27.490  0.00  0.00    +0.000 A 
ATOM     10 CL   UNL     1      28.577  24.829  28.821  0.00  0.00    +0.000 Cl
ATOM     11  C   UNL     1      27.973  24.111  26.235  0.00  0.00    +0.000 A 
ATOM     12  C   UNL     1      27.104  23.796  25.225  0.00  0.00    +0.000 A 
ENDROOT
BRANCH   1  18
ATOM     13  C   UNL     1      30.152  24.853  23.669  0.00  0.00    +0.000 A 
ATOM     14  C   UNL     1      31.359  25.196  24.202  0.00  0.00    +0.000 A 
ATOM     15  C   UNL     1      32.148  24.272  24.830  0.00  0.00    +0.000 A 
ATOM     16  C   UNL     1      31.695  22.956  24.923  0.00  0.00    +0.000 A 
ATOM     17  C   UNL     1      30.487  22.622  24.388  0.00  0.00    +0.000 A 
ATOM     18  C   UNL     1      29.696  23.534  23.761  0.00  0.00    +0.000 A 
BRANCH  13  19
ATOM     19  O   UNL     1      29.366  25.827  23.029  0.00  0.00    +0.000 OA
BRANCH  19  21
ATOM     20  C   UNL     1      27.539  27.195  23.873  0.00  0.00    +0.000 C 
ATOM     21  C   UNL     1      29.033  26.979  23.771  0.00  0.00    +0.000 C 
ENDBRANCH  19  21
ENDBRANCH  13  19
ENDBRANCH   1  18
TORSDOF 3
ENDMDL
MODEL 7
REMARK VINA RESULT:      -6.2     19.838     21.497
REMARK  Name = 
REMARK  3 active torsions:
REMARK  status: ('A' for Active; 'I' for Inactive)
REMARK    1  A    between atoms: C_2  and  O_3
REMARK    2  A    between atoms: O_3  and  C_4
REMARK    3  A    between atoms: C_9  and  C_10
REMARK                            x       y       z     vdW  Elec       q    Type
REMARK                         _______ _______ _______ _____ _____    ______ ____
ROOT
ATOM      1  C   UNL     1      17.646  10.025  39.361  0.00  0.00    +0.000 C 
ATOM      2  C   UNL     1      17.160   9.059  40.088  0.00  0.00    +0.000 C 
ATOM      3  C   UNL     1      15.828   8.956  40.702  0.00  0.00    +0.000 C 
ATOM      4  O   UNL     1      14.908   9.799  40.651  0.00  0.00    +0.000 OA
ATOM      5  N   UNL     1      15.734   7.716  41.383  0.00  0.00    +0.000 NA
ATOM      6  C   UNL     1      16.991   7.040  41.205  0.00  0.00    +0.000 A 
ATOM      7  C   UNL     1      17.337   5.798  41.697  0.00  0.00    +0.000 A 
ATOM      8  C   UNL     1      18.582   5.322  41.413  0.00  0.00    +0.000 A 
ATOM      9  C   UNL     1      19.460   6.082  40.648  0.00  0.00    +0.000 A 
ATOM     10 CL   UNL     1      21.033   5.374  40.344  0.00  0.00    +0.000 Cl
ATOM     11  C   UNL     1      19.090   7.313  40.173  0.00  0.00    +0.000 A 
ATOM     12  C   UNL     1      17.848   7.826  40.438  0.00  0.00    +0.000 A 
ENDROOT
BRANCH   1  18
ATOM     13  C   UNL     1      19.045   9.702  37.441  0.00  0.00    +0.000 A 
ATOM     14  C   UNL     1      20.244   9.723  36.792  0.00  0.00    +0.000 A 
ATOM     15  C   UNL     1      21.395  10.083  37.437  0.00  0.00    +0.000 A 
ATOM     16  C   UNL     1      21.327  10.434  38.785  0.00  0.00    +0.000 A 
ATOM     17  C   UNL     1      20.124  10.410  39.425  0.00  0.00    +0.000 A 
ATOM     18  C   UNL     1      18.975  10.053  38.793  0.00  0.00    +0.000 A 
BRANCH  13  19
ATOM     19  O   UNL     1      17.880   9.326  36.749  0.00  0.00    +0.000 OA
BRANCH  19  21
ATOM     20  C   UNL     1      17.318  10.231  34.562  0.00  0.00    +0.000 C 
ATOM     21  C   UNL     1      17.990   9.133  35.356  0.00  0.00    +0.000 C 
ENDBRANCH  19  21
ENDBRANCH  13  19
ENDBRANCH   1  18
TORSDOF 3
ENDMDL
MODEL 8
REMARK VINA RESULT:      -6.1     32.432     33.941
REMARK  Name = 
REMARK  3 active torsions:
REMARK  status: ('A' for Active; 'I' for Inactive)
REMARK    1  A    between atoms: C_2  and  O_3
REMARK    2  A    between atoms: O_3  and  C_4
REMARK    3  A    between atoms: C_9  and  C_10
REMARK                            x       y       z     vdW  Elec       q    Type
REMARK                         _______ _______ _______ _____ _____    ______ ____
ROOT
ATOM      1  C   UNL     1      27.073  22.728  27.367  0.00  0.00    +0.000 C 
ATOM      2  C   UNL     1      26.580  23.283  28.437  0.00  0.00    +0.000 C 
ATOM      3  C   UNL     1      26.708  22.848  29.836  0.00  0.00    +0.000 C 
ATOM      4  O   UNL     1      27.310  21.838  30.259  0.00  0.00    +0.000 OA
ATOM      5  N   UNL     1      26.025  23.773  30.666  0.00  0.00    +0.000 NA
ATOM      6  C   UNL     1      25.470  24.783  29.806  0.00  0.00    +0.000 A 
ATOM      7  C   UNL     1      24.730  25.881  30.193  0.00  0.00    +0.000 A 
ATOM      8  C   UNL     1      24.295  26.734  29.223  0.00  0.00    +0.000 A 
ATOM      9  C   UNL     1      24.600  26.485  27.889  0.00  0.00    +0.000 A 
ATOM     10 CL   UNL     1      23.992  27.644  26.727  0.00  0.00    +0.000 Cl
ATOM     11  C   UNL     1      25.337  25.385  27.533  0.00  0.00    +0.000 A 
ATOM     12  C   UNL     1      25.791  24.505  28.479  0.00  0.00    +0.000 A 
ENDROOT
BRANCH   1  18
ATOM     13  C   UNL     1      27.929  24.042  25.553  0.00  0.00    +0.000 A 
ATOM     14  C   UNL     1      27.885  24.537  24.283  0.00  0.00    +0.000 A 
ATOM     15  C   UNL     1      26.847  24.247  23.442  0.00  0.00    +0.000 A 
ATOM     16  C   UNL     1      25.819  23.427  23.903  0.00  0.00    +0.000 A 
ATOM     17  C   UNL     1      25.871  22.935  25.174  0.00  0.00    +0.000 A 
ATOM     18  C   UNL     1      26.898  23.219  26.018  0.00  0.00    +0.000 A 
BRANCH  13  19
ATOM     19  O   UNL     1      29.011  24.359  26.393  0.00  0.00    +0.000 OA
BRANCH  19  21
ATOM     20  C   UNL     1      30.615  22.557  26.083  0.00  0.00    +0.000 C 
ATOM     21  C   UNL     1      30.303  24.030  25.934  0.00  0.00    +0.000 C 
ENDBRANCH  19  21
ENDBRANCH  13  19
ENDBRANCH   1  18
TORSDOF 3
ENDMDL
MODEL 9
REMARK VINA RESULT:      -6.1     32.322     33.647
REMARK  Name = 
REMARK  3 active torsions:
REMARK  status: ('A' for Active; 'I' for Inactive)
REMARK    1  A    between atoms: C_2  and  O_3
REMARK    2  A    between atoms: O_3  and  C_4
REMARK    3  A    between atoms: C_9  and  C_10
REMARK                            x       y       z     vdW  Elec       q    Type
REMARK                         _______ _______ _______ _____ _____    ______ ____
ROOT
ATOM      1  C   UNL     1      25.941  23.724  27.582  0.00  0.00    +0.000 C 
ATOM      2  C   UNL     1      26.924  23.406  28.375  0.00  0.00    +0.000 C 
ATOM      3  C   UNL     1      26.900  23.217  29.834  0.00  0.00    +0.000 C 
ATOM      4  O   UNL     1      25.917  23.347  30.594  0.00  0.00    +0.000 OA
ATOM      5  N   UNL     1      28.200  22.854  30.268  0.00  0.00    +0.000 NA
ATOM      6  C   UNL     1      29.039  22.812  29.101  0.00  0.00    +0.000 A 
ATOM      7  C   UNL     1      30.382  22.496  29.061  0.00  0.00    +0.000 A 
ATOM      8  C   UNL     1      31.005  22.505  27.850  0.00  0.00    +0.000 A 
ATOM      9  C   UNL     1      30.290  22.825  26.701  0.00  0.00    +0.000 A 
ATOM     10 CL   UNL     1      31.189  22.805  25.198  0.00  0.00    +0.000 Cl
ATOM     11  C   UNL     1      28.957  23.135  26.770  0.00  0.00    +0.000 A 
ATOM     12  C   UNL     1      28.295  23.138  27.970  0.00  0.00    +0.000 A 
ENDROOT
BRANCH   1  18
ATOM     13  C   UNL     1      26.361  25.192  25.734  0.00  0.00    +0.000 A 
ATOM     14  C   UNL     1      26.517  25.462  24.407  0.00  0.00    +0.000 A 
ATOM     15  C   UNL     1      26.373  24.487  23.459  0.00  0.00    +0.000 A 
ATOM     16  C   UNL     1      26.060  23.192  23.873  0.00  0.00    +0.000 A 
ATOM     17  C   UNL     1      25.906  22.930  25.202  0.00  0.00    +0.000 A 
ATOM     18  C   UNL     1      26.047  23.894  26.151  0.00  0.00    +0.000 A 
BRANCH  13  19
ATOM     19  O   UNL     1      26.517  26.218  26.682  0.00  0.00    +0.000 OA
BRANCH  19  21
ATOM     20  C   UNL     1      28.352  26.865  28.143  0.00  0.00    +0.000 C 
ATOM     21  C   UNL     1      27.773  26.855  26.745  0.00  0.00    +0.000 C 
ENDBRANCH  19  21
ENDBRANCH  13  19
ENDBRANCH   1  18
TORSDOF 3
ENDMDL
MODEL 10
REMARK VINA RESULT:      -5.9     32.334     33.431
REMARK  Name = 
REMARK  3 active torsions:
REMARK  status: ('A' for Active; 'I' for Inactive)
REMARK    1  A    between atoms: C_2  and  O_3
REMARK    2  A    between atoms: O_3  and  C_4
REMARK    3  A    between atoms: C_9  and  C_10
REMARK                            x       y       z     vdW  Elec       q    Type
REMARK                         _______ _______ _______ _____ _____    ______ ____
ROOT
ATOM      1  C   UNL     1      25.947  23.571  26.109  0.00  0.00    +0.000 C 
ATOM      2  C   UNL     1      26.904  23.330  25.259  0.00  0.00    +0.000 C 
ATOM      3  C   UNL     1      26.806  23.105  23.809  0.00  0.00    +0.000 C 
ATOM      4  O   UNL     1      25.765  23.086  23.118  0.00  0.00    +0.000 OA
ATOM      5  N   UNL     1      28.110  22.907  23.288  0.00  0.00    +0.000 NA
ATOM      6  C   UNL     1      29.025  23.005  24.393  0.00  0.00    +0.000 A 
ATOM      7  C   UNL     1      30.398  22.881  24.340  0.00  0.00    +0.000 A 
ATOM      8  C   UNL     1      31.097  23.013  25.502  0.00  0.00    +0.000 A 
ATOM      9  C   UNL     1      30.426  23.265  26.694  0.00  0.00    +0.000 A 
ATOM     10 CL   UNL     1      31.422  23.417  28.126  0.00  0.00    +0.000 Cl
ATOM     11  C   UNL     1      29.061  23.383  26.717  0.00  0.00    +0.000 A 
ATOM     12  C   UNL     1      28.323  23.256  25.570  0.00  0.00    +0.000 A 
ENDROOT
BRANCH   1  18
ATOM     13  C   UNL     1      25.959  25.100  27.955  0.00  0.00    +0.000 A 
ATOM     14  C   UNL     1      26.074  25.409  29.279  0.00  0.00    +0.000 A 
ATOM     15  C   UNL     1      26.353  24.449  30.212  0.00  0.00    +0.000 A 
ATOM     16  C   UNL     1      26.520  23.131  29.788  0.00  0.00    +0.000 A 
ATOM     17  C   UNL     1      26.403  22.831  28.463  0.00  0.00    +0.000 A 
ATOM     18  C   UNL     1      26.126  23.779  27.528  0.00  0.00    +0.000 A 
BRANCH  13  19
ATOM     19  O   UNL     1      25.671  26.111  27.022  0.00  0.00    +0.000 OA
BRANCH  19  21
ATOM     20  C   UNL     1      23.240  26.059  27.096  0.00  0.00    +0.000 C 
ATOM     21  C   UNL     1      24.506  26.876  27.236  0.00  0.00    +0.000 C 
ENDBRANCH  19  21
ENDBRANCH  13  19
ENDBRANCH   1  18
TORSDOF 3
ENDMDL
