MODEL 1
REMARK VINA RESULT:      -8.4      0.000      0.000
REMARK  Name = 
REMARK  7 active torsions:
REMARK  status: ('A' for Active; 'I' for Inactive)
REMARK    1  A    between atoms: C_2  and  O_3
REMARK    2  A    between atoms: O_3  and  C_4
REMARK    3  A    between atoms: C_7  and  C_8
REMARK    4  A    between atoms: C_18  and  O_19
REMARK    5  A    between atoms: O_19  and  C_20
REMARK    6  A    between atoms: C_20  and  C_21
REMARK    7  A    between atoms: C_29  and  C_30
REMARK                            x       y       z     vdW  Elec       q    Type
REMARK                         _______ _______ _______ _____ _____    ______ ____
ROOT
ATOM      1  C   UNL     1      37.012  -0.673  16.224  0.00  0.00    +0.000 C 
ATOM      2  N   UNL     1      37.463  -1.330  17.619  0.00  0.00    +0.000 NA
ATOM      3  C   UNL     1      37.688  -2.708  17.343  0.00  0.00    +0.000 C 
ATOM      4  C   UNL     1      39.078  -2.855  16.815  0.00  0.00    +0.000 C 
ATOM      5  C   UNL     1      39.280  -1.819  15.806  0.00  0.00    +0.000 A 
ATOM      6  C   UNL     1      38.369  -0.880  15.549  0.00  0.00    +0.000 A 
ATOM      7  N   UNL     1      38.818  -0.065  14.627  0.00  0.00    +0.000 NA
ATOM      8  C   UNL     1      40.045  -0.439  14.239  0.00  0.00    +0.000 A 
ATOM      9  C   UNL     1      40.908   0.132  13.281  0.00  0.00    +0.000 A 
ATOM     10  C   UNL     1      42.120  -0.526  13.134  0.00  0.00    +0.000 A 
ATOM     11  C   UNL     1      42.479  -1.637  13.841  0.00  0.00    +0.000 A 
ATOM     12  C   UNL     1      41.591  -2.164  14.777  0.00  0.00    +0.000 A 
ATOM     13  C   UNL     1      40.351  -1.548  14.976  0.00  0.00    +0.000 A 
ENDROOT
BRANCH   1  17
ATOM     14  C   UNL     1      34.614  -4.119  15.052  0.00  0.00    +0.000 A 
ATOM     15  C   UNL     1      35.791  -3.809  14.412  0.00  0.00    +0.000 A 
ATOM     16  C   UNL     1      36.515  -2.688  14.759  0.00  0.00    +0.000 A 
ATOM     17  C   UNL     1      36.096  -1.806  15.778  0.00  0.00    +0.000 A 
ATOM     18  C   UNL     1      34.946  -2.138  16.374  0.00  0.00    +0.000 A 
ATOM     19  C   UNL     1      34.195  -3.283  16.030  0.00  0.00    +0.000 A 
BRANCH  18  20
ATOM     20  C   UNL     1      34.338  -1.230  17.375  0.00  0.00    +0.000 C 
ATOM     21  C   UNL     1      32.915  -1.810  17.577  0.00  0.00    +0.000 C 
ENDBRANCH  18  20
BRANCH  14  22
ATOM     22  O   UNL     1      33.898  -5.257  14.688  0.00  0.00    +0.000 OA
BRANCH  22  24
ATOM     23  C   UNL     1      33.920  -7.463  13.689  0.00  0.00    +0.000 C 
ATOM     24  C   UNL     1      34.317  -6.574  14.845  0.00  0.00    +0.000 C 
ENDBRANCH  22  24
ENDBRANCH  14  22
ENDBRANCH   1  17
BRANCH  11  25
ATOM     25  O   UNL     1      43.714  -2.276  13.667  0.00  0.00    +0.000 OA
BRANCH  25  26
ATOM     26  C   UNL     1      44.954  -1.736  13.948  0.00  0.00    +0.000 C 
BRANCH  26  27
ATOM     27  C   UNL     1      45.324  -1.595  15.348  0.00  0.00    +0.000 A 
ATOM     28  C   UNL     1      45.763  -2.589  16.196  0.00  0.00    +0.000 A 
ATOM     29  C   UNL     1      46.102  -2.353  17.503  0.00  0.00    +0.000 A 
ATOM     30  C   UNL     1      46.012  -1.078  18.028  0.00  0.00    +0.000 A 
ATOM     31  C   UNL     1      45.576  -0.048  17.215  0.00  0.00    +0.000 A 
ATOM     32  C   UNL     1      45.243  -0.314  15.906  0.00  0.00    +0.000 A 
ENDBRANCH  26  27
ENDBRANCH  25  26
ENDBRANCH  11  25
TORSDOF 7
ENDMDL
MODEL 2
REMARK VINA RESULT:      -7.5      5.132      8.664
REMARK  Name = 
REMARK  7 active torsions:
REMARK  status: ('A' for Active; 'I' for Inactive)
REMARK    1  A    between atoms: C_2  and  O_3
REMARK    2  A    between atoms: O_3  and  C_4
REMARK    3  A    between atoms: C_7  and  C_8
REMARK    4  A    between atoms: C_18  and  O_19
REMARK    5  A    between atoms: O_19  and  C_20
REMARK    6  A    between atoms: C_20  and  C_21
REMARK    7  A    between atoms: C_29  and  C_30
REMARK                            x       y       z     vdW  Elec       q    Type
REMARK                         _______ _______ _______ _____ _____    ______ ____
ROOT
ATOM      1  C   UNL     1      36.717   4.458  15.107  0.00  0.00    +0.000 C 
ATOM      2  N   UNL     1      37.764   4.091  13.945  0.00  0.00    +0.000 NA
ATOM      3  C   UNL     1      38.921   3.595  14.610  0.00  0.00    +0.000 C 
ATOM      4  C   UNL     1      38.710   2.143  14.891  0.00  0.00    +0.000 C 
ATOM      5  C   UNL     1      37.369   1.991  15.450  0.00  0.00    +0.000 A 
ATOM      6  C   UNL     1      36.513   3.009  15.549  0.00  0.00    +0.000 A 
ATOM      7  N   UNL     1      35.380   2.588  16.055  0.00  0.00    +0.000 NA
ATOM      8  C   UNL     1      35.449   1.274  16.309  0.00  0.00    +0.000 A 
ATOM      9  C   UNL     1      34.481   0.403  16.852  0.00  0.00    +0.000 A 
ATOM     10  C   UNL     1      34.899  -0.913  16.979  0.00  0.00    +0.000 A 
ATOM     11  C   UNL     1      36.138  -1.362  16.620  0.00  0.00    +0.000 A 
ATOM     12  C   UNL     1      37.060  -0.461  16.089  0.00  0.00    +0.000 A 
ATOM     13  C   UNL     1      36.701   0.882  15.933  0.00  0.00    +0.000 A 
ENDROOT
BRANCH   1  17
ATOM     14  C   UNL     1      39.776   6.032  17.783  0.00  0.00    +0.000 A 
ATOM     15  C   UNL     1      39.055   4.903  18.096  0.00  0.00    +0.000 A 
ATOM     16  C   UNL     1      38.056   4.444  17.265  0.00  0.00    +0.000 A 
ATOM     17  C   UNL     1      37.720   5.097  16.059  0.00  0.00    +0.000 A 
ATOM     18  C   UNL     1      38.439   6.191  15.791  0.00  0.00    +0.000 A 
ATOM     19  C   UNL     1      39.466   6.673  16.632  0.00  0.00    +0.000 A 
BRANCH  18  20
ATOM     20  C   UNL     1      38.102   7.032  14.617  0.00  0.00    +0.000 C 
ATOM     21  C   UNL     1      37.211   8.152  15.216  0.00  0.00    +0.000 C 
ENDBRANCH  18  20
BRANCH  14  22
ATOM     22  O   UNL     1      40.783   6.479  18.634  0.00  0.00    +0.000 OA
BRANCH  22  24
ATOM     23  C   UNL     1      39.482   7.533  20.385  0.00  0.00    +0.000 C 
ATOM     24  C   UNL     1      40.668   6.676  20.007  0.00  0.00    +0.000 C 
ENDBRANCH  22  24
ENDBRANCH  14  22
ENDBRANCH   1  17
BRANCH  11  25
ATOM     25  O   UNL     1      36.526  -2.701  16.763  0.00  0.00    +0.000 OA
BRANCH  25  26
ATOM     26  C   UNL     1      36.955  -3.533  15.748  0.00  0.00    +0.000 C 
BRANCH  26  27
ATOM     27  C   UNL     1      38.216  -3.208  15.099  0.00  0.00    +0.000 A 
ATOM     28  C   UNL     1      39.450  -3.076  15.699  0.00  0.00    +0.000 A 
ATOM     29  C   UNL     1      40.589  -2.778  14.996  0.00  0.00    +0.000 A 
ATOM     30  C   UNL     1      40.535  -2.595  13.627  0.00  0.00    +0.000 A 
ATOM     31  C   UNL     1      39.319  -2.718  12.981  0.00  0.00    +0.000 A 
ATOM     32  C   UNL     1      38.192  -3.018  13.713  0.00  0.00    +0.000 A 
ENDBRANCH  26  27
ENDBRANCH  25  26
ENDBRANCH  11  25
TORSDOF 7
ENDMDL
MODEL 3
REMARK VINA RESULT:      -7.5      4.834      9.505
REMARK  Name = 
REMARK  7 active torsions:
REMARK  status: ('A' for Active; 'I' for Inactive)
REMARK    1  A    between atoms: C_2  and  O_3
REMARK    2  A    between atoms: O_3  and  C_4
REMARK    3  A    between atoms: C_7  and  C_8
REMARK    4  A    between atoms: C_18  and  O_19
REMARK    5  A    between atoms: O_19  and  C_20
REMARK    6  A    between atoms: C_20  and  C_21
REMARK    7  A    between atoms: C_29  and  C_30
REMARK                            x       y       z     vdW  Elec       q    Type
REMARK                         _______ _______ _______ _____ _____    ______ ____
ROOT
ATOM      1  C   UNL     1      36.431   3.967  14.999  0.00  0.00    +0.000 C 
ATOM      2  N   UNL     1      37.468   3.568  13.840  0.00  0.00    +0.000 NA
ATOM      3  C   UNL     1      38.668   3.191  14.507  0.00  0.00    +0.000 C 
ATOM      4  C   UNL     1      38.548   1.756  14.905  0.00  0.00    +0.000 C 
ATOM      5  C   UNL     1      37.232   1.574  15.513  0.00  0.00    +0.000 A 
ATOM      6  C   UNL     1      36.321   2.547  15.558  0.00  0.00    +0.000 A 
ATOM      7  N   UNL     1      35.227   2.106  16.127  0.00  0.00    +0.000 NA
ATOM      8  C   UNL     1      35.377   0.821  16.479  0.00  0.00    +0.000 A 
ATOM      9  C   UNL     1      34.475  -0.057  17.115  0.00  0.00    +0.000 A 
ATOM     10  C   UNL     1      34.971  -1.334  17.331  0.00  0.00    +0.000 A 
ATOM     11  C   UNL     1      36.224  -1.740  16.973  0.00  0.00    +0.000 A 
ATOM     12  C   UNL     1      37.080  -0.834  16.347  0.00  0.00    +0.000 A 
ATOM     13  C   UNL     1      36.641   0.471  16.099  0.00  0.00    +0.000 A 
ENDROOT
BRANCH   1  17
ATOM     14  C   UNL     1      39.456   5.912  17.461  0.00  0.00    +0.000 A 
ATOM     15  C   UNL     1      38.797   4.782  17.887  0.00  0.00    +0.000 A 
ATOM     16  C   UNL     1      37.807   4.205  17.121  0.00  0.00    +0.000 A 
ATOM     17  C   UNL     1      37.418   4.733  15.871  0.00  0.00    +0.000 A 
ATOM     18  C   UNL     1      38.078   5.832  15.493  0.00  0.00    +0.000 A 
ATOM     19  C   UNL     1      39.095   6.433  16.266  0.00  0.00    +0.000 A 
BRANCH  18  20
ATOM     20  C   UNL     1      37.679   6.551  14.258  0.00  0.00    +0.000 C 
ATOM     21  C   UNL     1      39.033   6.945  13.614  0.00  0.00    +0.000 C 
ENDBRANCH  18  20
BRANCH  14  22
ATOM     22  O   UNL     1      40.455   6.478  18.248  0.00  0.00    +0.000 OA
BRANCH  22  24
ATOM     23  C   UNL     1      39.524   7.354  20.305  0.00  0.00    +0.000 C 
ATOM     24  C   UNL     1      40.525   6.440  19.637  0.00  0.00    +0.000 C 
ENDBRANCH  22  24
ENDBRANCH  14  22
ENDBRANCH   1  17
BRANCH  11  25
ATOM     25  O   UNL     1      36.692  -3.040  17.207  0.00  0.00    +0.000 OA
BRANCH  25  26
ATOM     26  C   UNL     1      36.933  -4.000  16.245  0.00  0.00    +0.000 C 
BRANCH  26  27
ATOM     27  C   UNL     1      35.781  -4.681  15.671  0.00  0.00    +0.000 A 
ATOM     28  C   UNL     1      34.900  -4.182  14.736  0.00  0.00    +0.000 A 
ATOM     29  C   UNL     1      33.847  -4.909  14.246  0.00  0.00    +0.000 A 
ATOM     30  C   UNL     1      33.628  -6.201  14.684  0.00  0.00    +0.000 A 
ATOM     31  C   UNL     1      34.485  -6.745  15.623  0.00  0.00    +0.000 A 
ATOM     32  C   UNL     1      35.535  -5.992  16.098  0.00  0.00    +0.000 A 
ENDBRANCH  26  27
ENDBRANCH  25  26
ENDBRANCH  11  25
TORSDOF 7
ENDMDL
MODEL 4
REMARK VINA RESULT:      -7.4      5.231      6.795
REMARK  Name = 
REMARK  7 active torsions:
REMARK  status: ('A' for Active; 'I' for Inactive)
REMARK    1  A    between atoms: C_2  and  O_3
REMARK    2  A    between atoms: O_3  and  C_4
REMARK    3  A    between atoms: C_7  and  C_8
REMARK    4  A    between atoms: C_18  and  O_19
REMARK    5  A    between atoms: O_19  and  C_20
REMARK    6  A    between atoms: C_20  and  C_21
REMARK    7  A    between atoms: C_29  and  C_30
REMARK                            x       y       z     vdW  Elec       q    Type
REMARK                         _______ _______ _______ _____ _____    ______ ____
ROOT
ATOM      1  C   UNL     1      37.002   1.635  14.095  0.00  0.00    +0.000 C 
ATOM      2  N   UNL     1      35.612   1.804  14.884  0.00  0.00    +0.000 NA
ATOM      3  C   UNL     1      35.867   1.367  16.215  0.00  0.00    +0.000 C 
ATOM      4  C   UNL     1      36.449   2.512  16.977  0.00  0.00    +0.000 C 
ATOM      5  C   UNL     1      37.489   3.114  16.146  0.00  0.00    +0.000 A 
ATOM      6  C   UNL     1      37.728   2.717  14.896  0.00  0.00    +0.000 A 
ATOM      7  N   UNL     1      38.686   3.443  14.375  0.00  0.00    +0.000 NA
ATOM      8  C   UNL     1      39.115   4.348  15.266  0.00  0.00    +0.000 A 
ATOM      9  C   UNL     1      40.121   5.329  15.150  0.00  0.00    +0.000 A 
ATOM     10  C   UNL     1      40.304   6.103  16.286  0.00  0.00    +0.000 A 
ATOM     11  C   UNL     1      39.587   5.952  17.439  0.00  0.00    +0.000 A 
ATOM     12  C   UNL     1      38.604   4.966  17.504  0.00  0.00    +0.000 A 
ATOM     13  C   UNL     1      38.368   4.152  16.392  0.00  0.00    +0.000 A 
ENDROOT
BRANCH   1  17
ATOM     14  C   UNL     1      37.969  -2.364  15.534  0.00  0.00    +0.000 A 
ATOM     15  C   UNL     1      36.668  -1.930  15.430  0.00  0.00    +0.000 A 
ATOM     16  C   UNL     1      36.377  -0.647  15.022  0.00  0.00    +0.000 A 
ATOM     17  C   UNL     1      37.384   0.285  14.689  0.00  0.00    +0.000 A 
ATOM     18  C   UNL     1      38.635  -0.171  14.806  0.00  0.00    +0.000 A 
ATOM     19  C   UNL     1      38.948  -1.484  15.222  0.00  0.00    +0.000 A 
BRANCH  18  20
ATOM     20  C   UNL     1      39.783   0.745  14.603  0.00  0.00    +0.000 C 
ATOM     21  C   UNL     1      40.796  -0.113  13.803  0.00  0.00    +0.000 C 
ENDBRANCH  18  20
BRANCH  14  22
ATOM     22  O   UNL     1      38.242  -3.665  15.947  0.00  0.00    +0.000 OA
BRANCH  22  24
ATOM     23  C   UNL     1      38.648  -3.444  18.325  0.00  0.00    +0.000 C 
ATOM     24  C   UNL     1      37.974  -4.200  17.203  0.00  0.00    +0.000 C 
ENDBRANCH  22  24
ENDBRANCH  14  22
ENDBRANCH   1  17
BRANCH  11  25
ATOM     25  O   UNL     1      39.799   6.753  18.569  0.00  0.00    +0.000 OA
BRANCH  25  26
ATOM     26  C   UNL     1      40.409   6.356  19.742  0.00  0.00    +0.000 C 
BRANCH  26  27
ATOM     27  C   UNL     1      41.860   6.448  19.811  0.00  0.00    +0.000 A 
ATOM     28  C   UNL     1      42.716   6.852  18.809  0.00  0.00    +0.000 A 
ATOM     29  C   UNL     1      44.075   6.918  18.976  0.00  0.00    +0.000 A 
ATOM     30  C   UNL     1      44.646   6.572  20.185  0.00  0.00    +0.000 A 
ATOM     31  C   UNL     1      43.828   6.160  21.220  0.00  0.00    +0.000 A 
ATOM     32  C   UNL     1      42.466   6.104  21.025  0.00  0.00    +0.000 A 
ENDBRANCH  26  27
ENDBRANCH  25  26
ENDBRANCH  11  25
TORSDOF 7
ENDMDL
MODEL 5
REMARK VINA RESULT:      -7.3     20.429     25.070
REMARK  Name = 
REMARK  7 active torsions:
REMARK  status: ('A' for Active; 'I' for Inactive)
REMARK    1  A    between atoms: C_2  and  O_3
REMARK    2  A    between atoms: O_3  and  C_4
REMARK    3  A    between atoms: C_7  and  C_8
REMARK    4  A    between atoms: C_18  and  O_19
REMARK    5  A    between atoms: O_19  and  C_20
REMARK    6  A    between atoms: C_20  and  C_21
REMARK    7  A    between atoms: C_29  and  C_30
REMARK                            x       y       z     vdW  Elec       q    Type
REMARK                         _______ _______ _______ _____ _____    ______ ____
ROOT
ATOM      1  C   UNL     1      14.310  -1.663   4.954  0.00  0.00    +0.000 C 
ATOM      2  N   UNL     1      14.410  -2.605   3.657  0.00  0.00    +0.000 NA
ATOM      3  C   UNL     1      15.797  -2.867   3.475  0.00  0.00    +0.000 C 
ATOM      4  C   UNL     1      16.173  -4.017   4.351  0.00  0.00    +0.000 C 
ATOM      5  C   UNL     1      15.596  -3.775   5.671  0.00  0.00    +0.000 A 
ATOM      6  C   UNL     1      14.794  -2.741   5.925  0.00  0.00    +0.000 A 
ATOM      7  N   UNL     1      14.398  -2.782   7.173  0.00  0.00    +0.000 NA
ATOM      8  C   UNL     1      14.926  -3.849   7.789  0.00  0.00    +0.000 A 
ATOM      9  C   UNL     1      14.781  -4.292   9.120  0.00  0.00    +0.000 A 
ATOM     10  C   UNL     1      15.482  -5.450   9.420  0.00  0.00    +0.000 A 
ATOM     11  C   UNL     1      16.258  -6.130   8.525  0.00  0.00    +0.000 A 
ATOM     12  C   UNL     1      16.370  -5.651   7.221  0.00  0.00    +0.000 A 
ATOM     13  C   UNL     1      15.687  -4.487   6.852  0.00  0.00    +0.000 A 
ENDROOT
BRANCH   1  17
ATOM     14  C   UNL     1      17.869   0.627   3.911  0.00  0.00    +0.000 A 
ATOM     15  C   UNL     1      17.862  -0.254   4.968  0.00  0.00    +0.000 A 
ATOM     16  C   UNL     1      16.717  -0.935   5.319  0.00  0.00    +0.000 A 
ATOM     17  C   UNL     1      15.499  -0.771   4.622  0.00  0.00    +0.000 A 
ATOM     18  C   UNL     1      15.544   0.096   3.605  0.00  0.00    +0.000 A 
ATOM     19  C   UNL     1      16.711   0.799   3.234  0.00  0.00    +0.000 A 
BRANCH  18  20
ATOM     20  C   UNL     1      14.304   0.446   2.872  0.00  0.00    +0.000 C 
ATOM     21  C   UNL     1      14.423   1.979   2.668  0.00  0.00    +0.000 C 
ENDBRANCH  18  20
BRANCH  14  22
ATOM     22  O   UNL     1      19.038   1.303   3.572  0.00  0.00    +0.000 OA
BRANCH  22  24
ATOM     23  C   UNL     1      20.089   0.064   1.775  0.00  0.00    +0.000 C 
ATOM     24  C   UNL     1      20.222   0.723   3.129  0.00  0.00    +0.000 C 
ENDBRANCH  22  24
ENDBRANCH  14  22
ENDBRANCH   1  17
BRANCH  11  25
ATOM     25  O   UNL     1      16.952  -7.299   8.864  0.00  0.00    +0.000 OA
BRANCH  25  26
ATOM     26  C   UNL     1      18.214  -7.649   8.425  0.00  0.00    +0.000 C 
BRANCH  26  27
ATOM     27  C   UNL     1      19.317  -7.497   9.362  0.00  0.00    +0.000 A 
ATOM     28  C   UNL     1      19.382  -6.640  10.439  0.00  0.00    +0.000 A 
ATOM     29  C   UNL     1      20.467  -6.579  11.275  0.00  0.00    +0.000 A 
ATOM     30  C   UNL     1      21.560  -7.397  11.060  0.00  0.00    +0.000 A 
ATOM     31  C   UNL     1      21.541  -8.274   9.991  0.00  0.00    +0.000 A 
ATOM     32  C   UNL     1      20.438  -8.314   9.168  0.00  0.00    +0.000 A 
ENDBRANCH  26  27
ENDBRANCH  25  26
ENDBRANCH  11  25
TORSDOF 7
ENDMDL
MODEL 6
REMARK VINA RESULT:      -7.3     12.055     15.061
REMARK  Name = 
REMARK  7 active torsions:
REMARK  status: ('A' for Active; 'I' for Inactive)
REMARK    1  A    between atoms: C_2  and  O_3
REMARK    2  A    between atoms: O_3  and  C_4
REMARK    3  A    between atoms: C_7  and  C_8
REMARK    4  A    between atoms: C_18  and  O_19
REMARK    5  A    between atoms: O_19  and  C_20
REMARK    6  A    between atoms: C_20  and  C_21
REMARK    7  A    between atoms: C_29  and  C_30
REMARK                            x       y       z     vdW  Elec       q    Type
REMARK                         _______ _______ _______ _____ _____    ______ ____
ROOT
ATOM      1  C   UNL     1      44.791   6.982  28.101  0.00  0.00    +0.000 C 
ATOM      2  N   UNL     1      45.486   5.533  28.071  0.00  0.00    +0.000 NA
ATOM      3  C   UNL     1      44.459   4.620  27.698  0.00  0.00    +0.000 C 
ATOM      4  C   UNL     1      44.361   4.613  26.208  0.00  0.00    +0.000 C 
ATOM      5  C   UNL     1      44.363   6.003  25.758  0.00  0.00    +0.000 A 
ATOM      6  C   UNL     1      44.541   7.027  26.593  0.00  0.00    +0.000 A 
ATOM      7  N   UNL     1      44.529   8.153  25.923  0.00  0.00    +0.000 NA
ATOM      8  C   UNL     1      44.341   7.911  24.618  0.00  0.00    +0.000 A 
ATOM      9  C   UNL     1      44.257   8.807  23.532  0.00  0.00    +0.000 A 
ATOM     10  C   UNL     1      44.053   8.201  22.301  0.00  0.00    +0.000 A 
ATOM     11  C   UNL     1      43.938   6.853  22.121  0.00  0.00    +0.000 A 
ATOM     12  C   UNL     1      44.028   6.009  23.227  0.00  0.00    +0.000 A 
ATOM     13  C   UNL     1      44.234   6.555  24.498  0.00  0.00    +0.000 A 
ENDROOT
BRANCH   1  17
ATOM     14  C   UNL     1      41.077   5.488  29.824  0.00  0.00    +0.000 A 
ATOM     15  C   UNL     1      41.132   5.974  28.538  0.00  0.00    +0.000 A 
ATOM     16  C   UNL     1      42.300   6.489  28.022  0.00  0.00    +0.000 A 
ATOM     17  C   UNL     1      43.495   6.547  28.772  0.00  0.00    +0.000 A 
ATOM     18  C   UNL     1      43.402   6.070  30.018  0.00  0.00    +0.000 A 
ATOM     19  C   UNL     1      42.212   5.537  30.560  0.00  0.00    +0.000 A 
BRANCH  18  20
ATOM     20  C   UNL     1      44.553   6.185  30.945  0.00  0.00    +0.000 C 
ATOM     21  C   UNL     1      44.611   4.794  31.627  0.00  0.00    +0.000 C 
ENDBRANCH  18  20
BRANCH  14  22
ATOM     22  O   UNL     1      39.887   4.969  30.327  0.00  0.00    +0.000 OA
BRANCH  22  24
ATOM     23  C   UNL     1      37.948   6.415  30.449  0.00  0.00    +0.000 C 
ATOM     24  C   UNL     1      39.005   5.622  31.182  0.00  0.00    +0.000 C 
ENDBRANCH  22  24
ENDBRANCH  14  22
ENDBRANCH   1  17
BRANCH  11  25
ATOM     25  O   UNL     1      43.733   6.275  20.861  0.00  0.00    +0.000 OA
BRANCH  25  26
ATOM     26  C   UNL     1      43.305   6.934  19.726  0.00  0.00    +0.000 C 
BRANCH  26  27
ATOM     27  C   UNL     1      41.992   6.590  19.203  0.00  0.00    +0.000 A 
ATOM     28  C   UNL     1      40.841   6.364  19.927  0.00  0.00    +0.000 A 
ATOM     29  C   UNL     1      39.642   6.056  19.339  0.00  0.00    +0.000 A 
ATOM     30  C   UNL     1      39.545   5.958  17.964  0.00  0.00    +0.000 A 
ATOM     31  C   UNL     1      40.673   6.176  17.195  0.00  0.00    +0.000 A 
ATOM     32  C   UNL     1      41.864   6.484  17.813  0.00  0.00    +0.000 A 
ENDBRANCH  26  27
ENDBRANCH  25  26
ENDBRANCH  11  25
TORSDOF 7
ENDMDL
MODEL 7
REMARK VINA RESULT:      -7.3      5.889      9.176
REMARK  Name = 
REMARK  7 active torsions:
REMARK  status: ('A' for Active; 'I' for Inactive)
REMARK    1  A    between atoms: C_2  and  O_3
REMARK    2  A    between atoms: O_3  and  C_4
REMARK    3  A    between atoms: C_7  and  C_8
REMARK    4  A    between atoms: C_18  and  O_19
REMARK    5  A    between atoms: O_19  and  C_20
REMARK    6  A    between atoms: C_20  and  C_21
REMARK    7  A    between atoms: C_29  and  C_30
REMARK                            x       y       z     vdW  Elec       q    Type
REMARK                         _______ _______ _______ _____ _____    ______ ____
ROOT
ATOM      1  C   UNL     1      37.470   5.983  15.547  0.00  0.00    +0.000 C 
ATOM      2  N   UNL     1      38.700   6.385  14.596  0.00  0.00    +0.000 NA
ATOM      3  C   UNL     1      39.857   5.814  15.198  0.00  0.00    +0.000 C 
ATOM      4  C   UNL     1      39.963   4.393  14.749  0.00  0.00    +0.000 C 
ATOM      5  C   UNL     1      38.641   3.788  14.882  0.00  0.00    +0.000 A 
ATOM      6  C   UNL     1      37.563   4.487  15.241  0.00  0.00    +0.000 A 
ATOM      7  N   UNL     1      36.511   3.708  15.252  0.00  0.00    +0.000 NA
ATOM      8  C   UNL     1      36.857   2.461  14.900  0.00  0.00    +0.000 A 
ATOM      9  C   UNL     1      36.066   1.300  14.777  0.00  0.00    +0.000 A 
ATOM     10  C   UNL     1      36.764   0.167  14.389  0.00  0.00    +0.000 A 
ATOM     11  C   UNL     1      38.107   0.142  14.140  0.00  0.00    +0.000 A 
ATOM     12  C   UNL     1      38.845   1.316  14.276  0.00  0.00    +0.000 A 
ATOM     13  C   UNL     1      38.201   2.495  14.664  0.00  0.00    +0.000 A 
ENDROOT
BRANCH   1  17
ATOM     14  C   UNL     1      39.753   6.546  19.216  0.00  0.00    +0.000 A 
ATOM     15  C   UNL     1      39.373   5.295  18.789  0.00  0.00    +0.000 A 
ATOM     16  C   UNL     1      38.608   5.134  17.654  0.00  0.00    +0.000 A 
ATOM     17  C   UNL     1      38.178   6.229  16.873  0.00  0.00    +0.000 A 
ATOM     18  C   UNL     1      38.564   7.428  17.322  0.00  0.00    +0.000 A 
ATOM     19  C   UNL     1      39.348   7.608  18.482  0.00  0.00    +0.000 A 
BRANCH  18  20
ATOM     20  C   UNL     1      38.076   8.661  16.660  0.00  0.00    +0.000 C 
ATOM     21  C   UNL     1      37.070   9.250  17.683  0.00  0.00    +0.000 C 
ENDBRANCH  18  20
BRANCH  14  22
ATOM     22  O   UNL     1      40.527   6.687  20.365  0.00  0.00    +0.000 OA
BRANCH  22  24
ATOM     23  C   UNL     1      42.783   6.080  21.006  0.00  0.00    +0.000 C 
ATOM     24  C   UNL     1      41.851   7.112  20.414  0.00  0.00    +0.000 C 
ENDBRANCH  22  24
ENDBRANCH  14  22
ENDBRANCH   1  17
BRANCH  11  25
ATOM     25  O   UNL     1      38.780  -1.023  13.748  0.00  0.00    +0.000 OA
BRANCH  25  26
ATOM     26  C   UNL     1      39.429  -1.906  14.588  0.00  0.00    +0.000 C 
BRANCH  26  27
ATOM     27  C   UNL     1      38.627  -2.936  15.232  0.00  0.00    +0.000 A 
ATOM     28  C   UNL     1      37.434  -3.462  14.784  0.00  0.00    +0.000 A 
ATOM     29  C   UNL     1      36.756  -4.444  15.459  0.00  0.00    +0.000 A 
ATOM     30  C   UNL     1      37.259  -4.951  16.641  0.00  0.00    +0.000 A 
ATOM     31  C   UNL     1      38.453  -4.454  17.131  0.00  0.00    +0.000 A 
ATOM     32  C   UNL     1      39.113  -3.468  16.432  0.00  0.00    +0.000 A 
ENDBRANCH  26  27
ENDBRANCH  25  26
ENDBRANCH  11  25
TORSDOF 7
ENDMDL
MODEL 8
REMARK VINA RESULT:      -7.2      3.469      8.301
REMARK  Name = 
REMARK  7 active torsions:
REMARK  status: ('A' for Active; 'I' for Inactive)
REMARK    1  A    between atoms: C_2  and  O_3
REMARK    2  A    between atoms: O_3  and  C_4
REMARK    3  A    between atoms: C_7  and  C_8
REMARK    4  A    between atoms: C_18  and  O_19
REMARK    5  A    between atoms: O_19  and  C_20
REMARK    6  A    between atoms: C_20  and  C_21
REMARK    7  A    between atoms: C_29  and  C_30
REMARK                            x       y       z     vdW  Elec       q    Type
REMARK                         _______ _______ _______ _____ _____    ______ ____
ROOT
ATOM      1  C   UNL     1      42.257  -2.496  13.967  0.00  0.00    +0.000 C 
ATOM      2  N   UNL     1      42.568  -0.923  14.064  0.00  0.00    +0.000 NA
ATOM      3  C   UNL     1      41.522  -0.277  13.347  0.00  0.00    +0.000 C 
ATOM      4  C   UNL     1      40.358  -0.112  14.268  0.00  0.00    +0.000 C 
ATOM      5  C   UNL     1      40.155  -1.384  14.956  0.00  0.00    +0.000 A 
ATOM      6  C   UNL     1      40.983  -2.420  14.810  0.00  0.00    +0.000 A 
ATOM      7  N   UNL     1      40.584  -3.417  15.560  0.00  0.00    +0.000 NA
ATOM      8  C   UNL     1      39.475  -3.074  16.231  0.00  0.00    +0.000 A 
ATOM      9  C   UNL     1      38.701  -3.819  17.145  0.00  0.00    +0.000 A 
ATOM     10  C   UNL     1      37.603  -3.141  17.654  0.00  0.00    +0.000 A 
ATOM     11  C   UNL     1      37.270  -1.860  17.318  0.00  0.00    +0.000 A 
ATOM     12  C   UNL     1      38.067  -1.166  16.410  0.00  0.00    +0.000 A 
ATOM     13  C   UNL     1      39.191  -1.791  15.859  0.00  0.00    +0.000 A 
ENDROOT
BRANCH   1  17
ATOM     14  C   UNL     1      40.894  -2.272   9.833  0.00  0.00    +0.000 A 
ATOM     15  C   UNL     1      40.034  -2.585  10.860  0.00  0.00    +0.000 A 
ATOM     16  C   UNL     1      40.487  -2.702  12.156  0.00  0.00    +0.000 A 
ATOM     17  C   UNL     1      41.842  -2.509  12.501  0.00  0.00    +0.000 A 
ATOM     18  C   UNL     1      42.648  -2.210  11.477  0.00  0.00    +0.000 A 
ATOM     19  C   UNL     1      42.198  -2.086  10.144  0.00  0.00    +0.000 A 
BRANCH  18  20
ATOM     20  C   UNL     1      44.111  -2.103  11.689  0.00  0.00    +0.000 C 
ATOM     21  C   UNL     1      44.484  -0.772  10.987  0.00  0.00    +0.000 C 
ENDBRANCH  18  20
BRANCH  14  22
ATOM     22  O   UNL     1      40.417  -2.157   8.530  0.00  0.00    +0.000 OA
BRANCH  22  24
ATOM     23  C   UNL     1      39.719   0.156   8.351  0.00  0.00    +0.000 C 
ATOM     24  C   UNL     1      40.458  -1.012   7.740  0.00  0.00    +0.000 C 
ENDBRANCH  22  24
ENDBRANCH  14  22
ENDBRANCH   1  17
BRANCH  11  25
ATOM     25  O   UNL     1      36.152  -1.206  17.854  0.00  0.00    +0.000 OA
BRANCH  25  26
ATOM     26  C   UNL     1      35.047  -0.779  17.146  0.00  0.00    +0.000 C 
BRANCH  26  27
ATOM     27  C   UNL     1      35.206   0.384  16.286  0.00  0.00    +0.000 A 
ATOM     28  C   UNL     1      35.719   0.408  15.007  0.00  0.00    +0.000 A 
ATOM     29  C   UNL     1      35.818   1.559  14.268  0.00  0.00    +0.000 A 
ATOM     30  C   UNL     1      35.396   2.764  14.796  0.00  0.00    +0.000 A 
ATOM     31  C   UNL     1      34.875   2.790  16.077  0.00  0.00    +0.000 A 
ATOM     32  C   UNL     1      34.787   1.619  16.795  0.00  0.00    +0.000 A 
ENDBRANCH  26  27
ENDBRANCH  25  26
ENDBRANCH  11  25
TORSDOF 7
ENDMDL
MODEL 9
REMARK VINA RESULT:      -7.1     11.037     14.266
REMARK  Name = 
REMARK  7 active torsions:
REMARK  status: ('A' for Active; 'I' for Inactive)
REMARK    1  A    between atoms: C_2  and  O_3
REMARK    2  A    between atoms: O_3  and  C_4
REMARK    3  A    between atoms: C_7  and  C_8
REMARK    4  A    between atoms: C_18  and  O_19
REMARK    5  A    between atoms: O_19  and  C_20
REMARK    6  A    between atoms: C_20  and  C_21
REMARK    7  A    between atoms: C_29  and  C_30
REMARK                            x       y       z     vdW  Elec       q    Type
REMARK                         _______ _______ _______ _____ _____    ______ ____
ROOT
ATOM      1  C   UNL     1      45.260   6.473  21.046  0.00  0.00    +0.000 C 
ATOM      2  N   UNL     1      45.469   8.065  21.077  0.00  0.00    +0.000 NA
ATOM      3  C   UNL     1      44.188   8.618  21.359  0.00  0.00    +0.000 C 
ATOM      4  C   UNL     1      43.992   8.607  22.840  0.00  0.00    +0.000 C 
ATOM      5  C   UNL     1      44.394   7.291  23.329  0.00  0.00    +0.000 A 
ATOM      6  C   UNL     1      44.935   6.365  22.537  0.00  0.00    +0.000 A 
ATOM      7  N   UNL     1      45.227   5.296  23.236  0.00  0.00    +0.000 NA
ATOM      8  C   UNL     1      44.886   5.479  24.520  0.00  0.00    +0.000 A 
ATOM      9  C   UNL     1      45.010   4.611  25.624  0.00  0.00    +0.000 A 
ATOM     10  C   UNL     1      44.547   5.134  26.822  0.00  0.00    +0.000 A 
ATOM     11  C   UNL     1      44.009   6.382  26.956  0.00  0.00    +0.000 A 
ATOM     12  C   UNL     1      43.907   7.202  25.834  0.00  0.00    +0.000 A 
ATOM     13  C   UNL     1      44.357   6.736  24.595  0.00  0.00    +0.000 A 
ENDROOT
BRANCH   1  17
ATOM     14  C   UNL     1      41.389   6.724  19.058  0.00  0.00    +0.000 A 
ATOM     15  C   UNL     1      41.506   6.281  20.355  0.00  0.00    +0.000 A 
ATOM     16  C   UNL     1      42.740   6.159  20.956  0.00  0.00    +0.000 A 
ATOM     17  C   UNL     1      43.941   6.478  20.284  0.00  0.00    +0.000 A 
ATOM     18  C   UNL     1      43.787   6.901  19.025  0.00  0.00    +0.000 A 
ATOM     19  C   UNL     1      42.529   7.032  18.397  0.00  0.00    +0.000 A 
BRANCH  18  20
ATOM     20  C   UNL     1      44.976   7.151  18.175  0.00  0.00    +0.000 C 
ATOM     21  C   UNL     1      44.471   6.840  16.743  0.00  0.00    +0.000 C 
ENDBRANCH  18  20
BRANCH  14  22
ATOM     22  O   UNL     1      40.133   6.843  18.469  0.00  0.00    +0.000 OA
BRANCH  22  24
ATOM     23  C   UNL     1      38.820   4.836  18.126  0.00  0.00    +0.000 C 
ATOM     24  C   UNL     1      38.984   6.156  18.845  0.00  0.00    +0.000 C 
ENDBRANCH  22  24
ENDBRANCH  14  22
ENDBRANCH   1  17
BRANCH  11  25
ATOM     25  O   UNL     1      43.552   6.878  28.184  0.00  0.00    +0.000 OA
BRANCH  25  26
ATOM     26  C   UNL     1      43.177   6.121  29.276  0.00  0.00    +0.000 C 
BRANCH  26  27
ATOM     27  C   UNL     1      41.771   6.130  29.651  0.00  0.00    +0.000 A 
ATOM     28  C   UNL     1      41.148   5.305  30.562  0.00  0.00    +0.000 A 
ATOM     29  C   UNL     1      39.812   5.400  30.857  0.00  0.00    +0.000 A 
ATOM     30  C   UNL     1      39.026   6.350  30.234  0.00  0.00    +0.000 A 
ATOM     31  C   UNL     1      39.607   7.200  29.311  0.00  0.00    +0.000 A 
ATOM     32  C   UNL     1      40.951   7.083  29.035  0.00  0.00    +0.000 A 
ENDBRANCH  26  27
ENDBRANCH  25  26
ENDBRANCH  11  25
TORSDOF 7
ENDMDL
MODEL 10
REMARK VINA RESULT:      -7.1      4.673      6.510
REMARK  Name = 
REMARK  7 active torsions:
REMARK  status: ('A' for Active; 'I' for Inactive)
REMARK    1  A    between atoms: C_2  and  O_3
REMARK    2  A    between atoms: O_3  and  C_4
REMARK    3  A    between atoms: C_7  and  C_8
REMARK    4  A    between atoms: C_18  and  O_19
REMARK    5  A    between atoms: O_19  and  C_20
REMARK    6  A    between atoms: C_20  and  C_21
REMARK    7  A    between atoms: C_29  and  C_30
REMARK                            x       y       z     vdW  Elec       q    Type
REMARK                         _______ _______ _______ _____ _____    ______ ____
ROOT
ATOM      1  C   UNL     1      38.322  -0.446  13.092  0.00  0.00    +0.000 C 
ATOM      2  N   UNL     1      36.826  -0.043  13.518  0.00  0.00    +0.000 NA
ATOM      3  C   UNL     1      36.866   0.151  14.928  0.00  0.00    +0.000 C 
ATOM      4  C   UNL     1      37.326   1.548  15.193  0.00  0.00    +0.000 C 
ATOM      5  C   UNL     1      38.487   1.799  14.343  0.00  0.00    +0.000 A 
ATOM      6  C   UNL     1      38.918   0.919  13.438  0.00  0.00    +0.000 A 
ATOM      7  N   UNL     1      39.951   1.410  12.798  0.00  0.00    +0.000 NA
ATOM      8  C   UNL     1      40.239   2.635  13.260  0.00  0.00    +0.000 A 
ATOM      9  C   UNL     1      41.256   3.533  12.875  0.00  0.00    +0.000 A 
ATOM     10  C   UNL     1      41.262   4.730  13.576  0.00  0.00    +0.000 A 
ATOM     11  C   UNL     1      40.371   5.044  14.563  0.00  0.00    +0.000 A 
ATOM     12  C   UNL     1      39.385   4.122  14.907  0.00  0.00    +0.000 A 
ATOM     13  C   UNL     1      39.323   2.895  14.238  0.00  0.00    +0.000 A 
ENDROOT
BRANCH   1  17
ATOM     14  C   UNL     1      39.028  -3.368  16.248  0.00  0.00    +0.000 A 
ATOM     15  C   UNL     1      37.762  -3.105  15.778  0.00  0.00    +0.000 A 
ATOM     16  C   UNL     1      37.546  -2.143  14.816  0.00  0.00    +0.000 A 
ATOM     17  C   UNL     1      38.598  -1.382  14.261  0.00  0.00    +0.000 A 
ATOM     18  C   UNL     1      39.812  -1.663  14.744  0.00  0.00    +0.000 A 
ATOM     19  C   UNL     1      40.049  -2.646  15.730  0.00  0.00    +0.000 A 
BRANCH  18  20
ATOM     20  C   UNL     1      40.983  -0.852  14.332  0.00  0.00    +0.000 C 
ATOM     21  C   UNL     1      41.834  -1.840  13.495  0.00  0.00    +0.000 C 
ENDBRANCH  18  20
BRANCH  14  22
ATOM     22  O   UNL     1      39.225  -4.345  17.220  0.00  0.00    +0.000 OA
BRANCH  22  24
ATOM     23  C   UNL     1      38.556  -3.139  19.210  0.00  0.00    +0.000 C 
ATOM     24  C   UNL     1      38.559  -4.437  18.437  0.00  0.00    +0.000 C 
ENDBRANCH  22  24
ENDBRANCH  14  22
ENDBRANCH   1  17
BRANCH  11  25
ATOM     25  O   UNL     1      40.406   6.265  15.250  0.00  0.00    +0.000 OA
BRANCH  25  26
ATOM     26  C   UNL     1      41.455   6.735  16.015  0.00  0.00    +0.000 C 
BRANCH  26  27
ATOM     27  C   UNL     1      41.357   6.582  17.459  0.00  0.00    +0.000 A 
ATOM     28  C   UNL     1      42.385   6.656  18.375  0.00  0.00    +0.000 A 
ATOM     29  C   UNL     1      42.188   6.509  19.723  0.00  0.00    +0.000 A 
ATOM     30  C   UNL     1      40.921   6.275  20.222  0.00  0.00    +0.000 A 
ATOM     31  C   UNL     1      39.859   6.192  19.342  0.00  0.00    +0.000 A 
ATOM     32  C   UNL     1      40.085   6.344  17.992  0.00  0.00    +0.000 A 
ENDBRANCH  26  27
ENDBRANCH  25  26
ENDBRANCH  11  25
TORSDOF 7
ENDMDL
