MODEL 1
REMARK VINA RESULT:      -7.1      0.000      0.000
REMARK  Name = 
REMARK  2 active torsions:
REMARK  status: ('A' for Active; 'I' for Inactive)
REMARK    1  A    between atoms: C_2  and  C_4
REMARK    2  A    between atoms: C_11  and  C_12
REMARK                            x       y       z     vdW  Elec       q    Type
REMARK                         _______ _______ _______ _____ _____    ______ ____
ROOT
ATOM      1  C   UNL     1      27.979  23.865  24.986  0.00  0.00    +0.000 C 
ATOM      2  C   UNL     1      28.145  24.045  23.703  0.00  0.00    +0.000 C 
ATOM      3  C   UNL     1      29.395  24.834  23.330  0.00  0.00    +0.000 C 
ATOM      4  N   UNL     1      27.229  23.679  22.679  0.00  0.00    +0.000 NA
ATOM      5  C   UNL     1      26.017  23.077  23.118  0.00  0.00    +0.000 C 
ATOM      6  O   UNL     1      25.147  22.713  22.222  0.00  0.00    +0.000 OA
ATOM      7  N   UNL     1      25.813  22.904  24.452  0.00  0.00    +0.000 NA
ATOM      8  C   UNL     1      26.821  22.952  25.516  0.00  0.00    +0.000 C 
ENDROOT
BRANCH   8   9
ATOM      9  C   UNL     1      26.184  23.908  26.640  0.00  0.00    +0.000 A 
ATOM     10  C   UNL     1      25.491  24.988  26.165  0.00  0.00    +0.000 A 
ATOM     11  O   UNL     1      25.317  25.289  24.827  0.00  0.00    +0.000 OA
ATOM     12  C   UNL     1      24.898  25.880  27.075  0.00  0.00    +0.000 A 
ATOM     13  C   UNL     1      25.046  25.618  28.420  0.00  0.00    +0.000 A 
ATOM     14  C   UNL     1      25.748  24.524  28.861  0.00  0.00    +0.000 A 
ATOM     15  C   UNL     1      25.939  24.196  30.196  0.00  0.00    +0.000 A 
ATOM     16  C   UNL     1      26.650  23.089  30.603  0.00  0.00    +0.000 A 
ATOM     17  C   UNL     1      27.200  22.265  29.650  0.00  0.00    +0.000 A 
ATOM     18  C   UNL     1      27.018  22.577  28.325  0.00  0.00    +0.000 A 
ATOM     19  C   UNL     1      26.308  23.684  27.934  0.00  0.00    +0.000 A 
ENDBRANCH   8   9
BRANCH   1  21
ATOM     20  C   UNL     1      29.968  23.493  26.468  0.00  0.00    +0.000 C 
ATOM     21  C   UNL     1      28.937  24.413  25.934  0.00  0.00    +0.000 C 
ATOM     22  O   UNL     1      28.950  25.596  26.326  0.00  0.00    +0.000 OA
ENDBRANCH   1  21
TORSDOF 2
ENDMDL
MODEL 2
REMARK VINA RESULT:      -7.0      3.164      5.929
REMARK  Name = 
REMARK  2 active torsions:
REMARK  status: ('A' for Active; 'I' for Inactive)
REMARK    1  A    between atoms: C_2  and  C_4
REMARK    2  A    between atoms: C_11  and  C_12
REMARK                            x       y       z     vdW  Elec       q    Type
REMARK                         _______ _______ _______ _____ _____    ______ ____
ROOT
ATOM      1  C   UNL     1      27.176  24.404  28.945  0.00  0.00    +0.000 C 
ATOM      2  C   UNL     1      26.535  24.557  30.073  0.00  0.00    +0.000 C 
ATOM      3  C   UNL     1      26.481  25.993  30.581  0.00  0.00    +0.000 C 
ATOM      4  N   UNL     1      26.010  23.516  30.887  0.00  0.00    +0.000 NA
ATOM      5  C   UNL     1      26.228  22.192  30.417  0.00  0.00    +0.000 C 
ATOM      6  O   UNL     1      25.760  21.202  31.119  0.00  0.00    +0.000 OA
ATOM      7  N   UNL     1      26.916  22.009  29.258  0.00  0.00    +0.000 NA
ATOM      8  C   UNL     1      27.192  23.012  28.224  0.00  0.00    +0.000 C 
ENDROOT
BRANCH   8   9
ATOM      9  C   UNL     1      28.762  22.859  27.916  0.00  0.00    +0.000 A 
ATOM     10  C   UNL     1      29.564  22.724  29.017  0.00  0.00    +0.000 A 
ATOM     11  O   UNL     1      29.115  22.714  30.324  0.00  0.00    +0.000 OA
ATOM     12  C   UNL     1      30.951  22.584  28.845  0.00  0.00    +0.000 A 
ATOM     13  C   UNL     1      31.443  22.590  27.557  0.00  0.00    +0.000 A 
ATOM     14  C   UNL     1      30.609  22.727  26.475  0.00  0.00    +0.000 A 
ATOM     15  C   UNL     1      31.029  22.741  25.153  0.00  0.00    +0.000 A 
ATOM     16  C   UNL     1      30.162  22.881  24.091  0.00  0.00    +0.000 A 
ATOM     17  C   UNL     1      28.818  23.013  24.343  0.00  0.00    +0.000 A 
ATOM     18  C   UNL     1      28.388  22.999  25.648  0.00  0.00    +0.000 A 
ATOM     19  C   UNL     1      29.262  22.860  26.695  0.00  0.00    +0.000 A 
ENDBRANCH   8   9
BRANCH   1  21
ATOM     20  C   UNL     1      27.074  26.107  27.106  0.00  0.00    +0.000 C 
ATOM     21  C   UNL     1      27.780  25.550  28.282  0.00  0.00    +0.000 C 
ATOM     22  O   UNL     1      28.846  26.091  28.635  0.00  0.00    +0.000 OA
ENDBRANCH   1  21
TORSDOF 2
ENDMDL
MODEL 3
REMARK VINA RESULT:      -6.8     32.342     33.905
REMARK  Name = 
REMARK  2 active torsions:
REMARK  status: ('A' for Active; 'I' for Inactive)
REMARK    1  A    between atoms: C_2  and  C_4
REMARK    2  A    between atoms: C_11  and  C_12
REMARK                            x       y       z     vdW  Elec       q    Type
REMARK                         _______ _______ _______ _____ _____    ______ ____
ROOT
ATOM      1  C   UNL     1      17.911  -9.960  26.550  0.00  0.00    +0.000 C 
ATOM      2  C   UNL     1      16.855 -10.410  27.173  0.00  0.00    +0.000 C 
ATOM      3  C   UNL     1      15.729 -10.876  26.258  0.00  0.00    +0.000 C 
ATOM      4  N   UNL     1      16.638 -10.390  28.579  0.00  0.00    +0.000 NA
ATOM      5  C   UNL     1      17.676  -9.805  29.357  0.00  0.00    +0.000 C 
ATOM      6  O   UNL     1      17.534  -9.769  30.649  0.00  0.00    +0.000 OA
ATOM      7  N   UNL     1      18.772  -9.306  28.725  0.00  0.00    +0.000 NA
ATOM      8  C   UNL     1      19.204  -9.581  27.351  0.00  0.00    +0.000 C 
ENDROOT
BRANCH   8   9
ATOM      9  C   UNL     1      19.522  -8.134  26.726  0.00  0.00    +0.000 A 
ATOM     10  C   UNL     1      18.580  -7.172  26.970  0.00  0.00    +0.000 A 
ATOM     11  O   UNL     1      17.419  -7.368  27.693  0.00  0.00    +0.000 OA
ATOM     12  C   UNL     1      18.774  -5.876  26.463  0.00  0.00    +0.000 A 
ATOM     13  C   UNL     1      19.919  -5.635  25.735  0.00  0.00    +0.000 A 
ATOM     14  C   UNL     1      20.843  -6.625  25.510  0.00  0.00    +0.000 A 
ATOM     15  C   UNL     1      22.017  -6.458  24.789  0.00  0.00    +0.000 A 
ATOM     16  C   UNL     1      22.923  -7.475  24.583  0.00  0.00    +0.000 A 
ATOM     17  C   UNL     1      22.660  -8.716  25.112  0.00  0.00    +0.000 A 
ATOM     18  C   UNL     1      21.502  -8.895  25.829  0.00  0.00    +0.000 A 
ATOM     19  C   UNL     1      20.609  -7.873  26.025  0.00  0.00    +0.000 A 
ENDBRANCH   8   9
BRANCH   1  21
ATOM     20  C   UNL     1      18.756 -10.944  24.402  0.00  0.00    +0.000 C 
ATOM     21  C   UNL     1      17.942  -9.919  25.096  0.00  0.00    +0.000 C 
ATOM     22  O   UNL     1      17.335  -9.084  24.397  0.00  0.00    +0.000 OA
ENDBRANCH   1  21
TORSDOF 2
ENDMDL
MODEL 4
REMARK VINA RESULT:      -6.5      1.538      2.564
REMARK  Name = 
REMARK  2 active torsions:
REMARK  status: ('A' for Active; 'I' for Inactive)
REMARK    1  A    between atoms: C_2  and  C_4
REMARK    2  A    between atoms: C_11  and  C_12
REMARK                            x       y       z     vdW  Elec       q    Type
REMARK                         _______ _______ _______ _____ _____    ______ ____
ROOT
ATOM      1  C   UNL     1      28.456  25.072  23.558  0.00  0.00    +0.000 C 
ATOM      2  C   UNL     1      27.981  25.661  22.493  0.00  0.00    +0.000 C 
ATOM      3  C   UNL     1      28.399  27.119  22.335  0.00  0.00    +0.000 C 
ATOM      4  N   UNL     1      27.049  25.106  21.573  0.00  0.00    +0.000 NA
ATOM      5  C   UNL     1      26.595  23.791  21.870  0.00  0.00    +0.000 C 
ATOM      6  O   UNL     1      25.749  23.232  21.055  0.00  0.00    +0.000 OA
ATOM      7  N   UNL     1      27.057  23.170  22.988  0.00  0.00    +0.000 NA
ATOM      8  C   UNL     1      28.234  23.537  23.782  0.00  0.00    +0.000 C 
ENDROOT
BRANCH   8   9
ATOM      9  C   UNL     1      27.717  23.534  25.304  0.00  0.00    +0.000 A 
ATOM     10  C   UNL     1      26.438  23.986  25.488  0.00  0.00    +0.000 A 
ATOM     11  O   UNL     1      25.603  24.426  24.479  0.00  0.00    +0.000 OA
ATOM     12  C   UNL     1      25.901  24.018  26.786  0.00  0.00    +0.000 A 
ATOM     13  C   UNL     1      26.699  23.588  27.824  0.00  0.00    +0.000 A 
ATOM     14  C   UNL     1      27.978  23.141  27.602  0.00  0.00    +0.000 A 
ATOM     15  C   UNL     1      28.839  22.692  28.594  0.00  0.00    +0.000 A 
ATOM     16  C   UNL     1      30.118  22.251  28.334  0.00  0.00    +0.000 A 
ATOM     17  C   UNL     1      30.570  22.249  27.036  0.00  0.00    +0.000 A 
ATOM     18  C   UNL     1      29.728  22.690  26.045  0.00  0.00    +0.000 A 
ATOM     19  C   UNL     1      28.457  23.128  26.318  0.00  0.00    +0.000 A 
ENDBRANCH   8   9
BRANCH   1  21
ATOM     20  C   UNL     1      30.764  25.630  24.367  0.00  0.00    +0.000 C 
ATOM     21  C   UNL     1      29.299  25.807  24.489  0.00  0.00    +0.000 C 
ATOM     22  O   UNL     1      28.875  26.573  25.377  0.00  0.00    +0.000 OA
ENDBRANCH   1  21
TORSDOF 2
ENDMDL
MODEL 5
REMARK VINA RESULT:      -6.3     32.327     33.907
REMARK  Name = 
REMARK  2 active torsions:
REMARK  status: ('A' for Active; 'I' for Inactive)
REMARK    1  A    between atoms: C_2  and  C_4
REMARK    2  A    between atoms: C_11  and  C_12
REMARK                            x       y       z     vdW  Elec       q    Type
REMARK                         _______ _______ _______ _____ _____    ______ ____
ROOT
ATOM      1  C   UNL     1      18.307 -10.116  26.301  0.00  0.00    +0.000 C 
ATOM      2  C   UNL     1      17.176 -10.243  26.944  0.00  0.00    +0.000 C 
ATOM      3  C   UNL     1      15.964 -10.484  26.051  0.00  0.00    +0.000 C 
ATOM      4  N   UNL     1      16.979 -10.063  28.340  0.00  0.00    +0.000 NA
ATOM      5  C   UNL     1      18.134  -9.695  29.086  0.00  0.00    +0.000 C 
ATOM      6  O   UNL     1      18.013  -9.527  30.370  0.00  0.00    +0.000 OA
ATOM      7  N   UNL     1      19.316  -9.533  28.433  0.00  0.00    +0.000 NA
ATOM      8  C   UNL     1      19.658 -10.009  27.088  0.00  0.00    +0.000 C 
ENDROOT
BRANCH   8   9
ATOM      9  C   UNL     1      20.321  -8.738  26.361  0.00  0.00    +0.000 A 
ATOM     10  C   UNL     1      21.479  -8.993  25.679  0.00  0.00    +0.000 A 
ATOM     11  O   UNL     1      22.085 -10.231  25.586  0.00  0.00    +0.000 OA
ATOM     12  C   UNL     1      22.130  -7.942  25.011  0.00  0.00    +0.000 A 
ATOM     13  C   UNL     1      21.561  -6.688  25.077  0.00  0.00    +0.000 A 
ATOM     14  C   UNL     1      20.397  -6.469  25.771  0.00  0.00    +0.000 A 
ATOM     15  C   UNL     1      19.765  -5.238  25.881  0.00  0.00    +0.000 A 
ATOM     16  C   UNL     1      18.597  -5.054  26.587  0.00  0.00    +0.000 A 
ATOM     17  C   UNL     1      18.022  -6.134  27.214  0.00  0.00    +0.000 A 
ATOM     18  C   UNL     1      18.636  -7.358  27.111  0.00  0.00    +0.000 A 
ATOM     19  C   UNL     1      19.800  -7.526  26.406  0.00  0.00    +0.000 A 
ENDBRANCH   8   9
BRANCH   1  21
ATOM     20  C   UNL     1      18.882 -11.432  24.245  0.00  0.00    +0.000 C 
ATOM     21  C   UNL     1      18.339 -10.194  24.849  0.00  0.00    +0.000 C 
ATOM     22  O   UNL     1      17.942  -9.295  24.082  0.00  0.00    +0.000 OA
ENDBRANCH   1  21
TORSDOF 2
ENDMDL
MODEL 6
REMARK VINA RESULT:      -6.3      1.135      2.773
REMARK  Name = 
REMARK  2 active torsions:
REMARK  status: ('A' for Active; 'I' for Inactive)
REMARK    1  A    between atoms: C_2  and  C_4
REMARK    2  A    between atoms: C_11  and  C_12
REMARK                            x       y       z     vdW  Elec       q    Type
REMARK                         _______ _______ _______ _____ _____    ______ ____
ROOT
ATOM      1  C   UNL     1      28.081  24.102  24.977  0.00  0.00    +0.000 C 
ATOM      2  C   UNL     1      28.102  24.444  23.716  0.00  0.00    +0.000 C 
ATOM      3  C   UNL     1      29.170  25.472  23.357  0.00  0.00    +0.000 C 
ATOM      4  N   UNL     1      27.171  24.039  22.721  0.00  0.00    +0.000 NA
ATOM      5  C   UNL     1      26.117  23.195  23.167  0.00  0.00    +0.000 C 
ATOM      6  O   UNL     1      25.242  22.785  22.296  0.00  0.00    +0.000 OA
ATOM      7  N   UNL     1      26.061  22.847  24.481  0.00  0.00    +0.000 NA
ATOM      8  C   UNL     1      27.137  22.952  25.471  0.00  0.00    +0.000 C 
ENDROOT
BRANCH   8   9
ATOM      9  C   UNL     1      26.455  23.658  26.743  0.00  0.00    +0.000 A 
ATOM     10  C   UNL     1      26.876  23.200  27.962  0.00  0.00    +0.000 A 
ATOM     11  O   UNL     1      27.816  22.204  28.150  0.00  0.00    +0.000 OA
ATOM     12  C   UNL     1      26.335  23.759  29.132  0.00  0.00    +0.000 A 
ATOM     13  C   UNL     1      25.393  24.756  28.992  0.00  0.00    +0.000 A 
ATOM     14  C   UNL     1      24.994  25.192  27.752  0.00  0.00    +0.000 A 
ATOM     15  C   UNL     1      24.055  26.189  27.533  0.00  0.00    +0.000 A 
ATOM     16  C   UNL     1      23.678  26.601  26.273  0.00  0.00    +0.000 A 
ATOM     17  C   UNL     1      24.255  26.003  25.178  0.00  0.00    +0.000 A 
ATOM     18  C   UNL     1      25.187  25.016  25.382  0.00  0.00    +0.000 A 
ATOM     19  C   UNL     1      25.552  24.615  26.641  0.00  0.00    +0.000 A 
ENDBRANCH   8   9
BRANCH   1  21
ATOM     20  C   UNL     1      30.207  23.904  26.293  0.00  0.00    +0.000 C 
ATOM     21  C   UNL     1      29.017  24.701  25.916  0.00  0.00    +0.000 C 
ATOM     22  O   UNL     1      28.888  25.832  26.422  0.00  0.00    +0.000 OA
ENDBRANCH   1  21
TORSDOF 2
ENDMDL
MODEL 7
REMARK VINA RESULT:      -6.2      1.831      3.396
REMARK  Name = 
REMARK  2 active torsions:
REMARK  status: ('A' for Active; 'I' for Inactive)
REMARK    1  A    between atoms: C_2  and  C_4
REMARK    2  A    between atoms: C_11  and  C_12
REMARK                            x       y       z     vdW  Elec       q    Type
REMARK                         _______ _______ _______ _____ _____    ______ ____
ROOT
ATOM      1  C   UNL     1      29.092  24.808  23.551  0.00  0.00    +0.000 C 
ATOM      2  C   UNL     1      28.537  25.548  22.627  0.00  0.00    +0.000 C 
ATOM      3  C   UNL     1      29.056  26.980  22.567  0.00  0.00    +0.000 C 
ATOM      4  N   UNL     1      27.452  25.171  21.789  0.00  0.00    +0.000 NA
ATOM      5  C   UNL     1      26.927  23.867  22.006  0.00  0.00    +0.000 C 
ATOM      6  O   UNL     1      25.939  23.466  21.260  0.00  0.00    +0.000 OA
ATOM      7  N   UNL     1      27.472  23.090  22.980  0.00  0.00    +0.000 NA
ATOM      8  C   UNL     1      28.768  23.277  23.641  0.00  0.00    +0.000 C 
ENDROOT
BRANCH   8   9
ATOM      9  C   UNL     1      28.450  23.137  25.210  0.00  0.00    +0.000 A 
ATOM     10  C   UNL     1      29.398  22.476  25.942  0.00  0.00    +0.000 A 
ATOM     11  O   UNL     1      30.565  21.944  25.427  0.00  0.00    +0.000 OA
ATOM     12  C   UNL     1      29.206  22.305  27.324  0.00  0.00    +0.000 A 
ATOM     13  C   UNL     1      28.055  22.820  27.881  0.00  0.00    +0.000 A 
ATOM     14  C   UNL     1      27.125  23.478  27.116  0.00  0.00    +0.000 A 
ATOM     15  C   UNL     1      25.945  24.022  27.605  0.00  0.00    +0.000 A 
ATOM     16  C   UNL     1      25.033  24.677  26.807  0.00  0.00    +0.000 A 
ATOM     17  C   UNL     1      25.295  24.802  25.463  0.00  0.00    +0.000 A 
ATOM     18  C   UNL     1      26.459  24.269  24.967  0.00  0.00    +0.000 A 
ATOM     19  C   UNL     1      27.358  23.619  25.773  0.00  0.00    +0.000 A 
ENDBRANCH   8   9
BRANCH   1  21
ATOM     20  C   UNL     1      29.650  26.293  25.494  0.00  0.00    +0.000 C 
ATOM     21  C   UNL     1      30.106  25.369  24.430  0.00  0.00    +0.000 C 
ATOM     22  O   UNL     1      31.326  25.128  24.349  0.00  0.00    +0.000 OA
ENDBRANCH   1  21
TORSDOF 2
ENDMDL
MODEL 8
REMARK VINA RESULT:      -6.0      2.581      4.209
REMARK  Name = 
REMARK  2 active torsions:
REMARK  status: ('A' for Active; 'I' for Inactive)
REMARK    1  A    between atoms: C_2  and  C_4
REMARK    2  A    between atoms: C_11  and  C_12
REMARK                            x       y       z     vdW  Elec       q    Type
REMARK                         _______ _______ _______ _____ _____    ______ ____
ROOT
ATOM      1  C   UNL     1      27.308  24.118  24.256  0.00  0.00    +0.000 C 
ATOM      2  C   UNL     1      26.908  23.702  23.084  0.00  0.00    +0.000 C 
ATOM      3  C   UNL     1      25.546  23.016  23.085  0.00  0.00    +0.000 C 
ATOM      4  N   UNL     1      27.665  23.732  21.880  0.00  0.00    +0.000 NA
ATOM      5  C   UNL     1      28.983  24.254  21.990  0.00  0.00    +0.000 C 
ATOM      6  O   UNL     1      29.716  24.314  20.917  0.00  0.00    +0.000 OA
ATOM      7  N   UNL     1      29.429  24.669  23.207  0.00  0.00    +0.000 NA
ATOM      8  C   UNL     1      28.618  24.968  24.392  0.00  0.00    +0.000 C 
ENDROOT
BRANCH   8   9
ATOM      9  C   UNL     1      29.349  24.190  25.594  0.00  0.00    +0.000 A 
ATOM     10  C   UNL     1      29.806  22.937  25.287  0.00  0.00    +0.000 A 
ATOM     11  O   UNL     1      29.679  22.330  24.052  0.00  0.00    +0.000 OA
ATOM     12  C   UNL     1      30.460  22.182  26.275  0.00  0.00    +0.000 A 
ATOM     13  C   UNL     1      30.609  22.749  27.523  0.00  0.00    +0.000 A 
ATOM     14  C   UNL     1      30.137  24.009  27.795  0.00  0.00    +0.000 A 
ATOM     15  C   UNL     1      30.251  24.644  29.024  0.00  0.00    +0.000 A 
ATOM     16  C   UNL     1      29.765  25.911  29.262  0.00  0.00    +0.000 A 
ATOM     17  C   UNL     1      29.137  26.585  28.241  0.00  0.00    +0.000 A 
ATOM     18  C   UNL     1      29.019  25.968  27.020  0.00  0.00    +0.000 A 
ATOM     19  C   UNL     1      29.507  24.706  26.798  0.00  0.00    +0.000 A 
ENDBRANCH   8   9
BRANCH   1  21
ATOM     20  C   UNL     1      25.644  25.033  25.895  0.00  0.00    +0.000 C 
ATOM     21  C   UNL     1      26.480  23.901  25.433  0.00  0.00    +0.000 C 
ATOM     22  O   UNL     1      26.427  22.835  26.075  0.00  0.00    +0.000 OA
ENDBRANCH   1  21
TORSDOF 2
ENDMDL
MODEL 9
REMARK VINA RESULT:      -5.9      3.033      5.206
REMARK  Name = 
REMARK  2 active torsions:
REMARK  status: ('A' for Active; 'I' for Inactive)
REMARK    1  A    between atoms: C_2  and  C_4
REMARK    2  A    between atoms: C_11  and  C_12
REMARK                            x       y       z     vdW  Elec       q    Type
REMARK                         _______ _______ _______ _____ _____    ______ ____
ROOT
ATOM      1  C   UNL     1      26.987  24.490  28.603  0.00  0.00    +0.000 C 
ATOM      2  C   UNL     1      26.537  24.708  29.810  0.00  0.00    +0.000 C 
ATOM      3  C   UNL     1      26.599  26.165  30.255  0.00  0.00    +0.000 C 
ATOM      4  N   UNL     1      26.123  23.718  30.743  0.00  0.00    +0.000 NA
ATOM      5  C   UNL     1      26.232  22.369  30.304  0.00  0.00    +0.000 C 
ATOM      6  O   UNL     1      25.857  21.423  31.114  0.00  0.00    +0.000 OA
ATOM      7  N   UNL     1      26.723  22.118  29.060  0.00  0.00    +0.000 NA
ATOM      8  C   UNL     1      26.856  23.070  27.952  0.00  0.00    +0.000 C 
ENDROOT
BRANCH   8   9
ATOM      9  C   UNL     1      28.353  22.856  27.408  0.00  0.00    +0.000 A 
ATOM     10  C   UNL     1      28.483  22.838  26.046  0.00  0.00    +0.000 A 
ATOM     11  O   UNL     1      27.440  22.986  25.151  0.00  0.00    +0.000 OA
ATOM     12  C   UNL     1      29.755  22.657  25.478  0.00  0.00    +0.000 A 
ATOM     13  C   UNL     1      30.825  22.505  26.335  0.00  0.00    +0.000 A 
ATOM     14  C   UNL     1      30.658  22.530  27.697  0.00  0.00    +0.000 A 
ATOM     15  C   UNL     1      31.684  22.385  28.619  0.00  0.00    +0.000 A 
ATOM     16  C   UNL     1      31.479  22.414  29.982  0.00  0.00    +0.000 A 
ATOM     17  C   UNL     1      30.203  22.595  30.458  0.00  0.00    +0.000 A 
ATOM     18  C   UNL     1      29.178  22.741  29.555  0.00  0.00    +0.000 A 
ATOM     19  C   UNL     1      29.396  22.709  28.202  0.00  0.00    +0.000 A 
ENDBRANCH   8   9
BRANCH   1  21
ATOM     20  C   UNL     1      28.826  26.143  28.183  0.00  0.00    +0.000 C 
ATOM     21  C   UNL     1      27.506  25.588  27.803  0.00  0.00    +0.000 C 
ATOM     22  O   UNL     1      26.920  26.093  26.826  0.00  0.00    +0.000 OA
ENDBRANCH   1  21
TORSDOF 2
ENDMDL
MODEL 10
REMARK VINA RESULT:      -5.9     17.252     19.468
REMARK  Name = 
REMARK  2 active torsions:
REMARK  status: ('A' for Active; 'I' for Inactive)
REMARK    1  A    between atoms: C_2  and  C_4
REMARK    2  A    between atoms: C_11  and  C_12
REMARK                            x       y       z     vdW  Elec       q    Type
REMARK                         _______ _______ _______ _____ _____    ______ ____
ROOT
ATOM      1  C   UNL     1      19.400  10.438  39.566  0.00  0.00    +0.000 C 
ATOM      2  C   UNL     1      18.234   9.849  39.614  0.00  0.00    +0.000 C 
ATOM      3  C   UNL     1      18.122   8.754  40.668  0.00  0.00    +0.000 C 
ATOM      4  N   UNL     1      17.150  10.061  38.719  0.00  0.00    +0.000 NA
ATOM      5  C   UNL     1      17.385  10.995  37.672  0.00  0.00    +0.000 C 
ATOM      6  O   UNL     1      16.422  11.234  36.830  0.00  0.00    +0.000 OA
ATOM      7  N   UNL     1      18.600  11.600  37.588  0.00  0.00    +0.000 NA
ATOM      8  C   UNL     1      19.624  11.679  38.635  0.00  0.00    +0.000 C 
ENDROOT
BRANCH   8   9
ATOM      9  C   UNL     1      20.990  11.255  37.903  0.00  0.00    +0.000 A 
ATOM     10  C   UNL     1      20.900  10.162  37.084  0.00  0.00    +0.000 A 
ATOM     11  O   UNL     1      19.746   9.434  36.863  0.00  0.00    +0.000 OA
ATOM     12  C   UNL     1      22.044   9.717  36.401  0.00  0.00    +0.000 A 
ATOM     13  C   UNL     1      23.218  10.414  36.594  0.00  0.00    +0.000 A 
ATOM     14  C   UNL     1      23.272  11.506  37.423  0.00  0.00    +0.000 A 
ATOM     15  C   UNL     1      24.415  12.256  37.664  0.00  0.00    +0.000 A 
ATOM     16  C   UNL     1      24.432  13.348  38.504  0.00  0.00    +0.000 A 
ATOM     17  C   UNL     1      23.269  13.720  39.136  0.00  0.00    +0.000 A 
ATOM     18  C   UNL     1      22.131  12.987  38.904  0.00  0.00    +0.000 A 
ATOM     19  C   UNL     1      22.129  11.901  38.066  0.00  0.00    +0.000 A 
ENDBRANCH   8   9
BRANCH   1  21
ATOM     20  C   UNL     1      20.757  10.898  41.625  0.00  0.00    +0.000 C 
ATOM     21  C   UNL     1      20.468  10.026  40.463  0.00  0.00    +0.000 C 
ATOM     22  O   UNL     1      21.154   8.995  40.322  0.00  0.00    +0.000 OA
ENDBRANCH   1  21
TORSDOF 2
ENDMDL
