MODEL 1
REMARK VINA RESULT:      -6.6      0.000      0.000
REMARK  Name = 
REMARK  5 active torsions:
REMARK  status: ('A' for Active; 'I' for Inactive)
REMARK    1  A    between atoms: C_5  and  O_6
REMARK    2  A    between atoms: O_6  and  C_7
REMARK    3  A    between atoms: C_7  and  C_8
REMARK    4  A    between atoms: C_8  and  S_9
REMARK    5  A    between atoms: S_9  and  C_10
REMARK                            x       y       z     vdW  Elec       q    Type
REMARK                         _______ _______ _______ _____ _____    ______ ____
ROOT
ATOM      1  C   UNL     1      18.724   9.449  35.571  0.00  0.00    +0.000 C 
ENDROOT
BRANCH   1   2
ATOM      2  C   UNL     1      17.278   9.698  35.244  0.00  0.00    +0.000 C 
BRANCH   2   3
ATOM      3  O   UNL     1      17.076   9.882  33.879  0.00  0.00    +0.000 OA
BRANCH   3   8
ATOM      4  C   UNL     1      13.736  13.620  31.178  0.00  0.00    +0.000 C 
ATOM      5  C   UNL     1      14.596  12.657  31.925  0.00  0.00    +0.000 A 
ATOM      6  C   UNL     1      15.375  11.755  31.240  0.00  0.00    +0.000 A 
ATOM      7  C   UNL     1      16.193  10.840  31.898  0.00  0.00    +0.000 A 
ATOM      8  C   UNL     1      16.245  10.813  33.288  0.00  0.00    +0.000 A 
ATOM      9  C   UNL     1      15.458  11.722  33.952  0.00  0.00    +0.000 A 
ATOM     10  C   UNL     1      14.641  12.636  33.303  0.00  0.00    +0.000 A 
ENDBRANCH   3   8
ENDBRANCH   2   3
ENDBRANCH   1   2
BRANCH   1  11
ATOM     11  S   UNL     1      19.114   9.872  37.284  0.00  0.00    +0.000 S 
BRANCH  11  12
ATOM     12  C   UNL     1      20.788  10.491  37.419  0.00  0.00    +0.000 A 
ATOM     13  C   UNL     1      21.742   9.904  36.597  0.00  0.00    +0.000 A 
ATOM     14  C   UNL     1      23.035  10.370  36.686  0.00  0.00    +0.000 A 
ATOM     15  C   UNL     1      24.145   9.819  35.855  0.00  0.00    +0.000 C 
ATOM     16  N   UNL     1      23.348  11.359  37.544  0.00  0.00    +0.000 NA
ATOM     17  C   UNL     1      22.399  11.911  38.332  0.00  0.00    +0.000 A 
ATOM     18  N   UNL     1      22.748  12.964  39.239  0.00  0.00    +0.000 NA
ATOM     19  N   UNL     1      21.125  11.470  38.260  0.00  0.00    +0.000 NA
ENDBRANCH  11  12
ENDBRANCH   1  11
TORSDOF 5
ENDMDL
MODEL 2
REMARK VINA RESULT:      -6.5      3.343      8.410
REMARK  Name = 
REMARK  5 active torsions:
REMARK  status: ('A' for Active; 'I' for Inactive)
REMARK    1  A    between atoms: C_5  and  O_6
REMARK    2  A    between atoms: O_6  and  C_7
REMARK    3  A    between atoms: C_7  and  C_8
REMARK    4  A    between atoms: C_8  and  S_9
REMARK    5  A    between atoms: S_9  and  C_10
REMARK                            x       y       z     vdW  Elec       q    Type
REMARK                         _______ _______ _______ _____ _____    ______ ____
ROOT
ATOM      1  C   UNL     1      18.661  10.215  37.045  0.00  0.00    +0.000 C 
ENDROOT
BRANCH   1   2
ATOM      2  C   UNL     1      20.008   9.724  37.500  0.00  0.00    +0.000 C 
BRANCH   2   3
ATOM      3  O   UNL     1      20.982   9.888  36.520  0.00  0.00    +0.000 OA
BRANCH   3   8
ATOM      4  C   UNL     1      26.577   9.721  37.562  0.00  0.00    +0.000 C 
ATOM      5  C   UNL     1      25.121   9.784  37.248  0.00  0.00    +0.000 A 
ATOM      6  C   UNL     1      24.202   9.292  38.146  0.00  0.00    +0.000 A 
ATOM      7  C   UNL     1      22.833   9.332  37.893  0.00  0.00    +0.000 A 
ATOM      8  C   UNL     1      22.350   9.879  36.709  0.00  0.00    +0.000 A 
ATOM      9  C   UNL     1      23.285  10.364  35.828  0.00  0.00    +0.000 A 
ATOM     10  C   UNL     1      24.649  10.327  36.071  0.00  0.00    +0.000 A 
ENDBRANCH   3   8
ENDBRANCH   2   3
ENDBRANCH   1   2
BRANCH   1  11
ATOM     11  S   UNL     1      18.181   9.502  35.457  0.00  0.00    +0.000 S 
BRANCH  11  12
ATOM     12  C   UNL     1      16.944  10.516  34.654  0.00  0.00    +0.000 A 
ATOM     13  C   UNL     1      16.890  10.462  33.268  0.00  0.00    +0.000 A 
ATOM     14  C   UNL     1      15.941  11.234  32.634  0.00  0.00    +0.000 A 
ATOM     15  C   UNL     1      15.788  11.260  31.151  0.00  0.00    +0.000 C 
ATOM     16  N   UNL     1      15.103  12.009  33.348  0.00  0.00    +0.000 NA
ATOM     17  C   UNL     1      15.179  12.042  34.697  0.00  0.00    +0.000 A 
ATOM     18  N   UNL     1      14.279  12.872  35.443  0.00  0.00    +0.000 NA
ATOM     19  N   UNL     1      16.101  11.293  35.338  0.00  0.00    +0.000 NA
ENDBRANCH  11  12
ENDBRANCH   1  11
TORSDOF 5
ENDMDL
MODEL 3
REMARK VINA RESULT:      -6.4      4.165      8.471
REMARK  Name = 
REMARK  5 active torsions:
REMARK  status: ('A' for Active; 'I' for Inactive)
REMARK    1  A    between atoms: C_5  and  O_6
REMARK    2  A    between atoms: O_6  and  C_7
REMARK    3  A    between atoms: C_7  and  C_8
REMARK    4  A    between atoms: C_8  and  S_9
REMARK    5  A    between atoms: S_9  and  C_10
REMARK                            x       y       z     vdW  Elec       q    Type
REMARK                         _______ _______ _______ _____ _____    ______ ____
ROOT
ATOM      1  C   UNL     1      17.115  11.355  36.074  0.00  0.00    +0.000 C 
ENDROOT
BRANCH   1   2
ATOM      2  C   UNL     1      17.302  10.327  37.155  0.00  0.00    +0.000 C 
BRANCH   2   3
ATOM      3  O   UNL     1      18.362  10.644  38.000  0.00  0.00    +0.000 OA
BRANCH   3   8
ATOM      4  C   UNL     1      23.927  10.898  36.824  0.00  0.00    +0.000 C 
ATOM      5  C   UNL     1      22.466  10.794  37.106  0.00  0.00    +0.000 A 
ATOM      6  C   UNL     1      21.861  11.700  37.945  0.00  0.00    +0.000 A 
ATOM      7  C   UNL     1      20.500  11.640  38.234  0.00  0.00    +0.000 A 
ATOM      8  C   UNL     1      19.703  10.647  37.673  0.00  0.00    +0.000 A 
ATOM      9  C   UNL     1      20.328   9.754  36.839  0.00  0.00    +0.000 A 
ATOM     10  C   UNL     1      21.683   9.807  36.546  0.00  0.00    +0.000 A 
ENDBRANCH   3   8
ENDBRANCH   2   3
ENDBRANCH   1   2
BRANCH   1  11
ATOM     11  S   UNL     1      16.316  10.662  34.609  0.00  0.00    +0.000 S 
BRANCH  11  12
ATOM     12  C   UNL     1      15.330  11.903  33.778  0.00  0.00    +0.000 A 
ATOM     13  C   UNL     1      14.619  12.783  34.584  0.00  0.00    +0.000 A 
ATOM     14  C   UNL     1      13.857  13.747  33.961  0.00  0.00    +0.000 A 
ATOM     15  C   UNL     1      13.050  14.746  34.720  0.00  0.00    +0.000 C 
ATOM     16  N   UNL     1      13.813  13.820  32.617  0.00  0.00    +0.000 NA
ATOM     17  C   UNL     1      14.515  12.950  31.859  0.00  0.00    +0.000 A 
ATOM     18  N   UNL     1      14.458  13.042  30.429  0.00  0.00    +0.000 NA
ATOM     19  N   UNL     1      15.269  11.998  32.449  0.00  0.00    +0.000 NA
ENDBRANCH  11  12
ENDBRANCH   1  11
TORSDOF 5
ENDMDL
MODEL 4
REMARK VINA RESULT:      -6.3      5.259      8.927
REMARK  Name = 
REMARK  5 active torsions:
REMARK  status: ('A' for Active; 'I' for Inactive)
REMARK    1  A    between atoms: C_5  and  O_6
REMARK    2  A    between atoms: O_6  and  C_7
REMARK    3  A    between atoms: C_7  and  C_8
REMARK    4  A    between atoms: C_8  and  S_9
REMARK    5  A    between atoms: S_9  and  C_10
REMARK                            x       y       z     vdW  Elec       q    Type
REMARK                         _______ _______ _______ _____ _____    ______ ____
ROOT
ATOM      1  C   UNL     1      16.407  11.999  36.710  0.00  0.00    +0.000 C 
ENDROOT
BRANCH   1   2
ATOM      2  C   UNL     1      16.120  11.035  37.827  0.00  0.00    +0.000 C 
BRANCH   2   3
ATOM      3  O   UNL     1      17.285  10.495  38.364  0.00  0.00    +0.000 OA
BRANCH   3   8
ATOM      4  C   UNL     1      17.384   6.495  42.415  0.00  0.00    +0.000 C 
ATOM      5  C   UNL     1      17.395   7.524  41.335  0.00  0.00    +0.000 A 
ATOM      6  C   UNL     1      16.417   8.490  41.295  0.00  0.00    +0.000 A 
ATOM      7  C   UNL     1      16.390   9.469  40.305  0.00  0.00    +0.000 A 
ATOM      8  C   UNL     1      17.368   9.498  39.316  0.00  0.00    +0.000 A 
ATOM      9  C   UNL     1      18.334   8.525  39.375  0.00  0.00    +0.000 A 
ATOM     10  C   UNL     1      18.367   7.546  40.357  0.00  0.00    +0.000 A 
ENDBRANCH   3   8
ENDBRANCH   2   3
ENDBRANCH   1   2
BRANCH   1  11
ATOM     11  S   UNL     1      16.000  11.303  35.093  0.00  0.00    +0.000 S 
BRANCH  11  12
ATOM     12  C   UNL     1      15.014  12.453  34.139  0.00  0.00    +0.000 A 
ATOM     13  C   UNL     1      15.045  12.310  32.758  0.00  0.00    +0.000 A 
ATOM     14  C   UNL     1      14.290  13.185  32.008  0.00  0.00    +0.000 A 
ATOM     15  C   UNL     1      14.243  13.132  30.518  0.00  0.00    +0.000 C 
ATOM     16  N   UNL     1      13.552  14.139  32.608  0.00  0.00    +0.000 NA
ATOM     17  C   UNL     1      13.541  14.253  33.954  0.00  0.00    +0.000 A 
ATOM     18  N   UNL     1      12.749  15.273  34.578  0.00  0.00    +0.000 NA
ATOM     19  N   UNL     1      14.274  13.406  34.708  0.00  0.00    +0.000 NA
ENDBRANCH  11  12
ENDBRANCH   1  11
TORSDOF 5
ENDMDL
MODEL 5
REMARK VINA RESULT:      -6.1     18.026     19.020
REMARK  Name = 
REMARK  5 active torsions:
REMARK  status: ('A' for Active; 'I' for Inactive)
REMARK    1  A    between atoms: C_5  and  O_6
REMARK    2  A    between atoms: O_6  and  C_7
REMARK    3  A    between atoms: C_7  and  C_8
REMARK    4  A    between atoms: C_8  and  S_9
REMARK    5  A    between atoms: S_9  and  C_10
REMARK                            x       y       z     vdW  Elec       q    Type
REMARK                         _______ _______ _______ _____ _____    ______ ____
ROOT
ATOM      1  C   UNL     1      29.888  23.604  27.058  0.00  0.00    +0.000 C 
ENDROOT
BRANCH   1   2
ATOM      2  C   UNL     1      29.248  22.619  27.998  0.00  0.00    +0.000 C 
BRANCH   2   3
ATOM      3  O   UNL     1      27.871  22.539  27.812  0.00  0.00    +0.000 OA
BRANCH   3   8
ATOM      4  C   UNL     1      24.070  26.321  29.728  0.00  0.00    +0.000 C 
ATOM      5  C   UNL     1      25.054  25.340  29.184  0.00  0.00    +0.000 A 
ATOM      6  C   UNL     1      25.855  24.622  30.040  0.00  0.00    +0.000 A 
ATOM      7  C   UNL     1      26.786  23.696  29.574  0.00  0.00    +0.000 A 
ATOM      8  C   UNL     1      26.931  23.469  28.208  0.00  0.00    +0.000 A 
ATOM      9  C   UNL     1      26.122  24.198  27.373  0.00  0.00    +0.000 A 
ATOM     10  C   UNL     1      25.194  25.122  27.829  0.00  0.00    +0.000 A 
ENDBRANCH   3   8
ENDBRANCH   2   3
ENDBRANCH   1   2
BRANCH   1  11
ATOM     11  S   UNL     1      30.444  22.818  25.529  0.00  0.00    +0.000 S 
BRANCH  11  12
ATOM     12  C   UNL     1      29.392  23.286  24.158  0.00  0.00    +0.000 A 
ATOM     13  C   UNL     1      28.025  23.112  24.327  0.00  0.00    +0.000 A 
ATOM     14  C   UNL     1      27.201  23.469  23.282  0.00  0.00    +0.000 A 
ATOM     15  C   UNL     1      25.718  23.328  23.346  0.00  0.00    +0.000 C 
ATOM     16  N   UNL     1      27.718  23.969  22.144  0.00  0.00    +0.000 NA
ATOM     17  C   UNL     1      29.054  24.127  22.008  0.00  0.00    +0.000 A 
ATOM     18  N   UNL     1      29.589  24.661  20.789  0.00  0.00    +0.000 NA
ATOM     19  N   UNL     1      29.879  23.783  23.019  0.00  0.00    +0.000 NA
ENDBRANCH  11  12
ENDBRANCH   1  11
TORSDOF 5
ENDMDL
MODEL 6
REMARK VINA RESULT:      -6.1      5.163      8.381
REMARK  Name = 
REMARK  5 active torsions:
REMARK  status: ('A' for Active; 'I' for Inactive)
REMARK    1  A    between atoms: C_5  and  O_6
REMARK    2  A    between atoms: O_6  and  C_7
REMARK    3  A    between atoms: C_7  and  C_8
REMARK    4  A    between atoms: C_8  and  S_9
REMARK    5  A    between atoms: S_9  and  C_10
REMARK                            x       y       z     vdW  Elec       q    Type
REMARK                         _______ _______ _______ _____ _____    ______ ____
ROOT
ATOM      1  C   UNL     1      18.459  10.594  37.395  0.00  0.00    +0.000 C 
ENDROOT
BRANCH   1   2
ATOM      2  C   UNL     1      19.212   9.786  38.416  0.00  0.00    +0.000 C 
BRANCH   2   3
ATOM      3  O   UNL     1      18.554   8.601  38.732  0.00  0.00    +0.000 OA
BRANCH   3   8
ATOM      4  C   UNL     1      15.598   7.309  43.425  0.00  0.00    +0.000 C 
ATOM      5  C   UNL     1      16.352   7.688  42.194  0.00  0.00    +0.000 A 
ATOM      6  C   UNL     1      17.272   6.819  41.656  0.00  0.00    +0.000 A 
ATOM      7  C   UNL     1      17.996   7.132  40.508  0.00  0.00    +0.000 A 
ATOM      8  C   UNL     1      17.805   8.352  39.865  0.00  0.00    +0.000 A 
ATOM      9  C   UNL     1      16.882   9.203  40.420  0.00  0.00    +0.000 A 
ATOM     10  C   UNL     1      16.158   8.898  41.563  0.00  0.00    +0.000 A 
ENDBRANCH   3   8
ENDBRANCH   2   3
ENDBRANCH   1   2
BRANCH   1  11
ATOM     11  S   UNL     1      18.180   9.667  35.870  0.00  0.00    +0.000 S 
BRANCH  11  12
ATOM     12  C   UNL     1      16.999  10.512  34.823  0.00  0.00    +0.000 A 
ATOM     13  C   UNL     1      16.137  11.406  35.444  0.00  0.00    +0.000 A 
ATOM     14  C   UNL     1      15.223  12.067  34.652  0.00  0.00    +0.000 A 
ATOM     15  C   UNL     1      14.246  13.050  35.203  0.00  0.00    +0.000 C 
ATOM     16  N   UNL     1      15.180  11.843  33.325  0.00  0.00    +0.000 NA
ATOM     17  C   UNL     1      16.032  10.966  32.749  0.00  0.00    +0.000 A 
ATOM     18  N   UNL     1      15.974  10.739  31.334  0.00  0.00    +0.000 NA
ATOM     19  N   UNL     1      16.935  10.308  33.506  0.00  0.00    +0.000 NA
ENDBRANCH  11  12
ENDBRANCH   1  11
TORSDOF 5
ENDMDL
MODEL 7
REMARK VINA RESULT:      -6.0     18.561     19.478
REMARK  Name = 
REMARK  5 active torsions:
REMARK  status: ('A' for Active; 'I' for Inactive)
REMARK    1  A    between atoms: C_5  and  O_6
REMARK    2  A    between atoms: O_6  and  C_7
REMARK    3  A    between atoms: C_7  and  C_8
REMARK    4  A    between atoms: C_8  and  S_9
REMARK    5  A    between atoms: S_9  and  C_10
REMARK                            x       y       z     vdW  Elec       q    Type
REMARK                         _______ _______ _______ _____ _____    ______ ____
ROOT
ATOM      1  C   UNL     1      29.827  23.371  26.166  0.00  0.00    +0.000 C 
ENDROOT
BRANCH   1   2
ATOM      2  C   UNL     1      29.337  22.267  27.063  0.00  0.00    +0.000 C 
BRANCH   2   3
ATOM      3  O   UNL     1      27.963  22.073  26.949  0.00  0.00    +0.000 OA
BRANCH   3   8
ATOM      4  C   UNL     1      23.958  26.032  27.789  0.00  0.00    +0.000 C 
ATOM      5  C   UNL     1      25.000  24.998  27.524  0.00  0.00    +0.000 A 
ATOM      6  C   UNL     1      25.700  24.443  28.569  0.00  0.00    +0.000 A 
ATOM      7  C   UNL     1      26.680  23.474  28.367  0.00  0.00    +0.000 A 
ATOM      8  C   UNL     1      26.982  23.035  27.081  0.00  0.00    +0.000 A 
ATOM      9  C   UNL     1      26.271  23.603  26.053  0.00  0.00    +0.000 A 
ATOM     10  C   UNL     1      25.294  24.568  26.247  0.00  0.00    +0.000 A 
ENDBRANCH   3   8
ENDBRANCH   2   3
ENDBRANCH   1   2
BRANCH   1  11
ATOM     11  S   UNL     1      30.188  22.778  24.499  0.00  0.00    +0.000 S 
BRANCH  11  12
ATOM     12  C   UNL     1      29.106  23.554  23.302  0.00  0.00    +0.000 A 
ATOM     13  C   UNL     1      29.586  24.692  22.667  0.00  0.00    +0.000 A 
ATOM     14  C   UNL     1      28.767  25.300  21.741  0.00  0.00    +0.000 A 
ATOM     15  C   UNL     1      29.171  26.527  20.995  0.00  0.00    +0.000 C 
ATOM     16  N   UNL     1      27.547  24.797  21.472  0.00  0.00    +0.000 NA
ATOM     17  C   UNL     1      27.106  23.688  22.107  0.00  0.00    +0.000 A 
ATOM     18  N   UNL     1      25.805  23.165  21.809  0.00  0.00    +0.000 NA
ATOM     19  N   UNL     1      27.893  23.076  23.018  0.00  0.00    +0.000 NA
ENDBRANCH  11  12
ENDBRANCH   1  11
TORSDOF 5
ENDMDL
MODEL 8
REMARK VINA RESULT:      -5.9      4.719      8.128
REMARK  Name = 
REMARK  5 active torsions:
REMARK  status: ('A' for Active; 'I' for Inactive)
REMARK    1  A    between atoms: C_5  and  O_6
REMARK    2  A    between atoms: O_6  and  C_7
REMARK    3  A    between atoms: C_7  and  C_8
REMARK    4  A    between atoms: C_8  and  S_9
REMARK    5  A    between atoms: S_9  and  C_10
REMARK                            x       y       z     vdW  Elec       q    Type
REMARK                         _______ _______ _______ _____ _____    ______ ____
ROOT
ATOM      1  C   UNL     1      18.548  10.535  37.217  0.00  0.00    +0.000 C 
ENDROOT
BRANCH   1   2
ATOM      2  C   UNL     1      19.591   9.743  37.957  0.00  0.00    +0.000 C 
BRANCH   2   3
ATOM      3  O   UNL     1      19.023   8.833  38.844  0.00  0.00    +0.000 OA
BRANCH   3   8
ATOM      4  C   UNL     1      16.296  10.031  43.697  0.00  0.00    +0.000 C 
ATOM      5  C   UNL     1      17.050   9.717  42.449  0.00  0.00    +0.000 A 
ATOM      6  C   UNL     1      16.374   9.529  41.266  0.00  0.00    +0.000 A 
ATOM      7  C   UNL     1      17.038   9.236  40.077  0.00  0.00    +0.000 A 
ATOM      8  C   UNL     1      18.425   9.125  40.054  0.00  0.00    +0.000 A 
ATOM      9  C   UNL     1      19.079   9.316  41.246  0.00  0.00    +0.000 A 
ATOM     10  C   UNL     1      18.424   9.607  42.433  0.00  0.00    +0.000 A 
ENDBRANCH   3   8
ENDBRANCH   2   3
ENDBRANCH   1   2
BRANCH   1  11
ATOM     11  S   UNL     1      17.919   9.645  35.776  0.00  0.00    +0.000 S 
BRANCH  11  12
ATOM     12  C   UNL     1      16.767  10.662  34.857  0.00  0.00    +0.000 A 
ATOM     13  C   UNL     1      16.841  10.598  33.472  0.00  0.00    +0.000 A 
ATOM     14  C   UNL     1      15.959  11.372  32.749  0.00  0.00    +0.000 A 
ATOM     15  C   UNL     1      15.943  11.388  31.258  0.00  0.00    +0.000 C 
ATOM     16  N   UNL     1      15.064  12.157  33.378  0.00  0.00    +0.000 NA
ATOM     17  C   UNL     1      15.015  12.198  34.728  0.00  0.00    +0.000 A 
ATOM     18  N   UNL     1      14.055  13.038  35.382  0.00  0.00    +0.000 NA
ATOM     19  N   UNL     1      15.869  11.448  35.456  0.00  0.00    +0.000 NA
ENDBRANCH  11  12
ENDBRANCH   1  11
TORSDOF 5
ENDMDL
MODEL 9
REMARK VINA RESULT:      -5.7      1.398      2.030
REMARK  Name = 
REMARK  5 active torsions:
REMARK  status: ('A' for Active; 'I' for Inactive)
REMARK    1  A    between atoms: C_5  and  O_6
REMARK    2  A    between atoms: O_6  and  C_7
REMARK    3  A    between atoms: C_7  and  C_8
REMARK    4  A    between atoms: C_8  and  S_9
REMARK    5  A    between atoms: S_9  and  C_10
REMARK                            x       y       z     vdW  Elec       q    Type
REMARK                         _______ _______ _______ _____ _____    ______ ____
ROOT
ATOM      1  C   UNL     1      18.421  10.948  38.115  0.00  0.00    +0.000 C 
ENDROOT
BRANCH   1   2
ATOM      2  C   UNL     1      17.361  10.123  37.437  0.00  0.00    +0.000 C 
BRANCH   2   3
ATOM      3  O   UNL     1      16.467  10.911  36.718  0.00  0.00    +0.000 OA
BRANCH   3   8
ATOM      4  C   UNL     1      15.769  11.385  31.087  0.00  0.00    +0.000 C 
ATOM      5  C   UNL     1      15.988  11.235  32.554  0.00  0.00    +0.000 A 
ATOM      6  C   UNL     1      15.151  11.867  33.444  0.00  0.00    +0.000 A 
ATOM      7  C   UNL     1      15.319  11.752  34.822  0.00  0.00    +0.000 A 
ATOM      8  C   UNL     1      16.355  10.983  35.344  0.00  0.00    +0.000 A 
ATOM      9  C   UNL     1      17.179  10.363  34.438  0.00  0.00    +0.000 A 
ATOM     10  C   UNL     1      17.018  10.472  33.065  0.00  0.00    +0.000 A 
ENDBRANCH   3   8
ENDBRANCH   2   3
ENDBRANCH   1   2
BRANCH   1  11
ATOM     11  S   UNL     1      19.784   9.931  38.725  0.00  0.00    +0.000 S 
BRANCH  11  12
ATOM     12  C   UNL     1      21.360  10.617  38.222  0.00  0.00    +0.000 A 
ATOM     13  C   UNL     1      22.063   9.922  37.246  0.00  0.00    +0.000 A 
ATOM     14  C   UNL     1      23.277  10.437  36.845  0.00  0.00    +0.000 A 
ATOM     15  C   UNL     1      24.123   9.781  35.807  0.00  0.00    +0.000 C 
ATOM     16  N   UNL     1      23.750  11.574  37.389  0.00  0.00    +0.000 NA
ATOM     17  C   UNL     1      23.042  12.229  38.337  0.00  0.00    +0.000 A 
ATOM     18  N   UNL     1      23.560  13.439  38.906  0.00  0.00    +0.000 NA
ATOM     19  N   UNL     1      21.851  11.742  38.744  0.00  0.00    +0.000 NA
ENDBRANCH  11  12
ENDBRANCH   1  11
TORSDOF 5
ENDMDL
MODEL 10
REMARK VINA RESULT:      -5.7     18.391     19.801
REMARK  Name = 
REMARK  5 active torsions:
REMARK  status: ('A' for Active; 'I' for Inactive)
REMARK    1  A    between atoms: C_5  and  O_6
REMARK    2  A    between atoms: O_6  and  C_7
REMARK    3  A    between atoms: C_7  and  C_8
REMARK    4  A    between atoms: C_8  and  S_9
REMARK    5  A    between atoms: S_9  and  C_10
REMARK                            x       y       z     vdW  Elec       q    Type
REMARK                         _______ _______ _______ _____ _____    ______ ____
ROOT
ATOM      1  C   UNL     1      26.063  23.683  28.295  0.00  0.00    +0.000 C 
ENDROOT
BRANCH   1   2
ATOM      2  C   UNL     1      27.541  23.821  28.534  0.00  0.00    +0.000 C 
BRANCH   2   3
ATOM      3  O   UNL     1      28.279  22.916  27.776  0.00  0.00    +0.000 OA
BRANCH   3   8
ATOM      4  C   UNL     1      32.858  23.850  24.524  0.00  0.00    +0.000 C 
ATOM      5  C   UNL     1      31.673  23.638  25.404  0.00  0.00    +0.000 A 
ATOM      6  C   UNL     1      30.733  22.690  25.075  0.00  0.00    +0.000 A 
ATOM      7  C   UNL     1      29.612  22.459  25.869  0.00  0.00    +0.000 A 
ATOM      8  C   UNL     1      29.410  23.193  27.034  0.00  0.00    +0.000 A 
ATOM      9  C   UNL     1      30.360  24.135  27.341  0.00  0.00    +0.000 A 
ATOM     10  C   UNL     1      31.478  24.371  26.556  0.00  0.00    +0.000 A 
ENDBRANCH   3   8
ENDBRANCH   2   3
ENDBRANCH   1   2
BRANCH   1  11
ATOM     11  S   UNL     1      25.448  24.914  27.126  0.00  0.00    +0.000 S 
BRANCH  11  12
ATOM     12  C   UNL     1      26.153  24.653  25.501  0.00  0.00    +0.000 A 
ATOM     13  C   UNL     1      27.334  25.324  25.214  0.00  0.00    +0.000 A 
ATOM     14  C   UNL     1      27.891  25.132  23.968  0.00  0.00    +0.000 A 
ATOM     15  C   UNL     1      29.156  25.799  23.544  0.00  0.00    +0.000 C 
ATOM     16  N   UNL     1      27.301  24.318  23.073  0.00  0.00    +0.000 NA
ATOM     17  C   UNL     1      26.151  23.677  23.381  0.00  0.00    +0.000 A 
ATOM     18  N   UNL     1      25.535  22.813  22.417  0.00  0.00    +0.000 NA
ATOM     19  N   UNL     1      25.588  23.851  24.595  0.00  0.00    +0.000 NA
ENDBRANCH  11  12
ENDBRANCH   1  11
TORSDOF 5
ENDMDL
