MODEL 1
REMARK VINA RESULT:      -7.3      0.000      0.000
REMARK  Name = 
REMARK  2 active torsions:
REMARK  status: ('A' for Active; 'I' for Inactive)
REMARK    1  A    between atoms: C_7  and  N_8
REMARK    2  A    between atoms: C_9  and  C_11
REMARK                            x       y       z     vdW  Elec       q    Type
REMARK                         _______ _______ _______ _____ _____    ______ ____
ROOT
ATOM      1  N   UNL     1      15.245  11.452  35.782  0.00  0.00    +0.000 NA
ATOM      2  C   UNL     1      16.418  11.777  36.505  0.00  0.00    +0.000 C 
ATOM      3  O   UNL     1      17.081  12.773  36.132  0.00  0.00    +0.000 OA
ENDROOT
BRANCH   1  10
ATOM      4  C   UNL     1      15.164  12.198  30.942  0.00  0.00    +0.000 C 
ATOM      5  C   UNL     1      14.767  12.623  32.287  0.00  0.00    +0.000 A 
ATOM      6  C   UNL     1      14.002  13.752  32.444  0.00  0.00    +0.000 A 
ATOM      7  O   UNL     1      13.628  14.459  31.311  0.00  0.00    +0.000 OA
ATOM      8  C   UNL     1      13.647  14.120  33.721  0.00  0.00    +0.000 A 
ATOM      9  C   UNL     1      14.050  13.373  34.814  0.00  0.00    +0.000 A 
ATOM     10  C   UNL     1      14.818  12.239  34.648  0.00  0.00    +0.000 A 
ATOM     11  C   UNL     1      15.169  11.877  33.376  0.00  0.00    +0.000 A 
ATOM     12  C   UNL     1      16.003  10.650  33.170  0.00  0.00    +0.000 C 
ENDBRANCH   1  10
BRANCH   2  13
ATOM     13  C   UNL     1      16.833  10.970  37.647  0.00  0.00    +0.000 A 
ATOM     14  C   UNL     1      18.121  10.497  37.791  0.00  0.00    +0.000 A 
ATOM     15  C   UNL     1      18.522   9.734  38.869  0.00  0.00    +0.000 A 
ATOM     16  C   UNL     1      17.628   9.406  39.867  0.00  0.00    +0.000 A 
ATOM     17 BR   UNL     1      18.169   8.347  41.367  0.00  0.00    +0.000 Br
ATOM     18  C   UNL     1      16.336   9.871  39.737  0.00  0.00    +0.000 A 
ATOM     19  C   UNL     1      15.951  10.633  38.653  0.00  0.00    +0.000 A 
ENDBRANCH   2  13
TORSDOF 2
ENDMDL
MODEL 2
REMARK VINA RESULT:      -7.1      1.190      2.337
REMARK  Name = 
REMARK  2 active torsions:
REMARK  status: ('A' for Active; 'I' for Inactive)
REMARK    1  A    between atoms: C_7  and  N_8
REMARK    2  A    between atoms: C_9  and  C_11
REMARK                            x       y       z     vdW  Elec       q    Type
REMARK                         _______ _______ _______ _____ _____    ______ ____
ROOT
ATOM      1  N   UNL     1      15.791  11.050  35.201  0.00  0.00    +0.000 NA
ATOM      2  C   UNL     1      17.065  10.536  35.547  0.00  0.00    +0.000 C 
ATOM      3  O   UNL     1      17.928  10.448  34.643  0.00  0.00    +0.000 OA
ENDROOT
BRANCH   1  10
ATOM      4  C   UNL     1      13.677  14.213  32.117  0.00  0.00    +0.000 C 
ATOM      5  C   UNL     1      14.463  12.995  32.326  0.00  0.00    +0.000 A 
ATOM      6  C   UNL     1      14.895  12.272  31.242  0.00  0.00    +0.000 A 
ATOM      7  O   UNL     1      14.569  12.727  29.972  0.00  0.00    +0.000 OA
ATOM      8  C   UNL     1      15.631  11.133  31.475  0.00  0.00    +0.000 A 
ATOM      9  C   UNL     1      15.926  10.730  32.765  0.00  0.00    +0.000 A 
ATOM     10  C   UNL     1      15.489  11.462  33.849  0.00  0.00    +0.000 A 
ATOM     11  C   UNL     1      14.757  12.593  33.612  0.00  0.00    +0.000 A 
ATOM     12  C   UNL     1      14.270  13.404  34.774  0.00  0.00    +0.000 C 
ENDBRANCH   1  10
BRANCH   2  13
ATOM     13  C   UNL     1      17.351  10.124  36.916  0.00  0.00    +0.000 A 
ATOM     14  C   UNL     1      16.547  10.480  37.981  0.00  0.00    +0.000 A 
ATOM     15  C   UNL     1      16.810  10.093  39.279  0.00  0.00    +0.000 A 
ATOM     16  C   UNL     1      17.913   9.318  39.570  0.00  0.00    +0.000 A 
ATOM     17 BR   UNL     1      18.291   8.776  41.367  0.00  0.00    +0.000 Br
ATOM     18  C   UNL     1      18.727   8.955  38.517  0.00  0.00    +0.000 A 
ATOM     19  C   UNL     1      18.450   9.349  37.225  0.00  0.00    +0.000 A 
ENDBRANCH   2  13
TORSDOF 2
ENDMDL
MODEL 3
REMARK VINA RESULT:      -6.9      3.643      7.583
REMARK  Name = 
REMARK  2 active torsions:
REMARK  status: ('A' for Active; 'I' for Inactive)
REMARK    1  A    between atoms: C_7  and  N_8
REMARK    2  A    between atoms: C_9  and  C_11
REMARK                            x       y       z     vdW  Elec       q    Type
REMARK                         _______ _______ _______ _____ _____    ______ ____
ROOT
ATOM      1  N   UNL     1      16.992  11.022  36.738  0.00  0.00    +0.000 NA
ATOM      2  C   UNL     1      16.832  10.288  35.538  0.00  0.00    +0.000 C 
ATOM      3  O   UNL     1      17.166   9.081  35.539  0.00  0.00    +0.000 OA
ENDROOT
BRANCH   1  10
ATOM      4  C   UNL     1      16.296   9.265  41.256  0.00  0.00    +0.000 C 
ATOM      5  C   UNL     1      17.204   9.541  40.140  0.00  0.00    +0.000 A 
ATOM      6  C   UNL     1      18.532   9.211  40.248  0.00  0.00    +0.000 A 
ATOM      7  O   UNL     1      18.972   8.619  41.423  0.00  0.00    +0.000 OA
ATOM      8  C   UNL     1      19.355   9.484  39.181  0.00  0.00    +0.000 A 
ATOM      9  C   UNL     1      18.857  10.075  38.033  0.00  0.00    +0.000 A 
ATOM     10  C   UNL     1      17.522  10.404  37.932  0.00  0.00    +0.000 A 
ATOM     11  C   UNL     1      16.707  10.130  38.996  0.00  0.00    +0.000 A 
ATOM     12  C   UNL     1      15.253  10.479  38.911  0.00  0.00    +0.000 C 
ENDBRANCH   1  10
BRANCH   2  13
ATOM     13  C   UNL     1      16.296  10.929  34.343  0.00  0.00    +0.000 A 
ATOM     14  C   UNL     1      16.707  10.588  33.070  0.00  0.00    +0.000 A 
ATOM     15  C   UNL     1      16.204  11.189  31.935  0.00  0.00    +0.000 A 
ATOM     16  C   UNL     1      15.249  12.179  32.030  0.00  0.00    +0.000 A 
ATOM     17 BR   UNL     1      14.542  13.022  30.463  0.00  0.00    +0.000 Br
ATOM     18  C   UNL     1      14.828  12.532  33.295  0.00  0.00    +0.000 A 
ATOM     19  C   UNL     1      15.340  11.921  34.421  0.00  0.00    +0.000 A 
ENDBRANCH   2  13
TORSDOF 2
ENDMDL
MODEL 4
REMARK VINA RESULT:      -6.5      3.721      7.669
REMARK  Name = 
REMARK  2 active torsions:
REMARK  status: ('A' for Active; 'I' for Inactive)
REMARK    1  A    between atoms: C_7  and  N_8
REMARK    2  A    between atoms: C_9  and  C_11
REMARK                            x       y       z     vdW  Elec       q    Type
REMARK                         _______ _______ _______ _____ _____    ______ ____
ROOT
ATOM      1  N   UNL     1      17.320  10.959  37.368  0.00  0.00    +0.000 NA
ATOM      2  C   UNL     1      17.361  10.185  36.182  0.00  0.00    +0.000 C 
ATOM      3  O   UNL     1      17.947   9.078  36.224  0.00  0.00    +0.000 OA
ENDROOT
BRANCH   1  10
ATOM      4  C   UNL     1      21.110  10.964  40.470  0.00  0.00    +0.000 C 
ATOM      5  C   UNL     1      19.772  10.481  40.120  0.00  0.00    +0.000 A 
ATOM      6  C   UNL     1      19.128   9.601  40.953  0.00  0.00    +0.000 A 
ATOM      7  O   UNL     1      19.775   9.196  42.112  0.00  0.00    +0.000 OA
ATOM      8  C   UNL     1      17.873   9.168  40.593  0.00  0.00    +0.000 A 
ATOM      9  C   UNL     1      17.279   9.609  39.424  0.00  0.00    +0.000 A 
ATOM     10  C   UNL     1      17.932  10.493  38.591  0.00  0.00    +0.000 A 
ATOM     11  C   UNL     1      19.180  10.920  38.954  0.00  0.00    +0.000 A 
ATOM     12  C   UNL     1      19.909  11.881  38.065  0.00  0.00    +0.000 C 
ENDBRANCH   1  10
BRANCH   2  13
ATOM     13  C   UNL     1      16.739  10.673  34.957  0.00  0.00    +0.000 A 
ATOM     14  C   UNL     1      17.143  10.258  33.704  0.00  0.00    +0.000 A 
ATOM     15  C   UNL     1      16.558  10.714  32.541  0.00  0.00    +0.000 A 
ATOM     16  C   UNL     1      15.522  11.624  32.585  0.00  0.00    +0.000 A 
ATOM     17 BR   UNL     1      14.703  12.265  30.978  0.00  0.00    +0.000 Br
ATOM     18  C   UNL     1      15.107  12.048  33.830  0.00  0.00    +0.000 A 
ATOM     19  C   UNL     1      15.701  11.582  34.985  0.00  0.00    +0.000 A 
ENDBRANCH   2  13
TORSDOF 2
ENDMDL
MODEL 5
REMARK VINA RESULT:      -6.4     21.873     23.578
REMARK  Name = 
REMARK  2 active torsions:
REMARK  status: ('A' for Active; 'I' for Inactive)
REMARK    1  A    between atoms: C_7  and  N_8
REMARK    2  A    between atoms: C_9  and  C_11
REMARK                            x       y       z     vdW  Elec       q    Type
REMARK                         _______ _______ _______ _____ _____    ______ ____
ROOT
ATOM      1  N   UNL     1      22.132  -7.138  25.263  0.00  0.00    +0.000 NA
ATOM      2  C   UNL     1      22.352  -7.687  23.976  0.00  0.00    +0.000 C 
ATOM      3  O   UNL     1      21.351  -8.006  23.295  0.00  0.00    +0.000 OA
ENDROOT
BRANCH   1  10
ATOM      4  C   UNL     1      18.197  -8.924  27.566  0.00  0.00    +0.000 C 
ATOM      5  C   UNL     1      18.864  -7.801  26.904  0.00  0.00    +0.000 A 
ATOM      6  C   UNL     1      18.213  -6.598  26.787  0.00  0.00    +0.000 A 
ATOM      7  O   UNL     1      16.932  -6.487  27.308  0.00  0.00    +0.000 OA
ATOM      8  C   UNL     1      18.870  -5.565  26.159  0.00  0.00    +0.000 A 
ATOM      9  C   UNL     1      20.149  -5.736  25.660  0.00  0.00    +0.000 A 
ATOM     10  C   UNL     1      20.797  -6.948  25.781  0.00  0.00    +0.000 A 
ATOM     11  C   UNL     1      20.139  -7.972  26.406  0.00  0.00    +0.000 A 
ATOM     12  C   UNL     1      20.822  -9.298  26.549  0.00  0.00    +0.000 C 
ENDBRANCH   1  10
BRANCH   2  13
ATOM     13  C   UNL     1      23.708  -7.871  23.472  0.00  0.00    +0.000 A 
ATOM     14  C   UNL     1      24.716  -6.956  23.702  0.00  0.00    +0.000 A 
ATOM     15  C   UNL     1      26.001  -7.124  23.229  0.00  0.00    +0.000 A 
ATOM     16  C   UNL     1      26.337  -8.238  22.489  0.00  0.00    +0.000 A 
ATOM     17 BR   UNL     1      28.115  -8.483  21.826  0.00  0.00    +0.000 Br
ATOM     18  C   UNL     1      25.340  -9.162  22.250  0.00  0.00    +0.000 A 
ATOM     19  C   UNL     1      24.060  -8.980  22.730  0.00  0.00    +0.000 A 
ENDBRANCH   2  13
TORSDOF 2
ENDMDL
MODEL 6
REMARK VINA RESULT:      -6.3     20.225     21.693
REMARK  Name = 
REMARK  2 active torsions:
REMARK  status: ('A' for Active; 'I' for Inactive)
REMARK    1  A    between atoms: C_7  and  N_8
REMARK    2  A    between atoms: C_9  and  C_11
REMARK                            x       y       z     vdW  Elec       q    Type
REMARK                         _______ _______ _______ _____ _____    ______ ____
ROOT
ATOM      1  N   UNL     1      32.935   0.131  34.635  0.00  0.00    +0.000 NA
ATOM      2  C   UNL     1      33.660  -0.877  33.953  0.00  0.00    +0.000 C 
ATOM      3  O   UNL     1      34.679  -0.534  33.310  0.00  0.00    +0.000 OA
ENDROOT
BRANCH   1  10
ATOM      4  C   UNL     1      34.825   4.044  36.894  0.00  0.00    +0.000 C 
ATOM      5  C   UNL     1      34.273   3.437  35.680  0.00  0.00    +0.000 A 
ATOM      6  C   UNL     1      34.163   4.187  34.536  0.00  0.00    +0.000 A 
ATOM      7  O   UNL     1      34.584   5.509  34.570  0.00  0.00    +0.000 OA
ATOM      8  C   UNL     1      33.641   3.585  33.415  0.00  0.00    +0.000 A 
ATOM      9  C   UNL     1      33.239   2.262  33.442  0.00  0.00    +0.000 A 
ATOM     10  C   UNL     1      33.352   1.514  34.596  0.00  0.00    +0.000 A 
ATOM     11  C   UNL     1      33.872   2.117  35.708  0.00  0.00    +0.000 A 
ATOM     12  C   UNL     1      34.005   1.326  36.973  0.00  0.00    +0.000 C 
ENDBRANCH   1  10
BRANCH   2  13
ATOM     13  C   UNL     1      33.222  -2.267  34.004  0.00  0.00    +0.000 A 
ATOM     14  C   UNL     1      33.641  -3.210  33.087  0.00  0.00    +0.000 A 
ATOM     15  C   UNL     1      33.233  -4.527  33.129  0.00  0.00    +0.000 A 
ATOM     16  C   UNL     1      32.369  -4.963  34.112  0.00  0.00    +0.000 A 
ATOM     17 BR   UNL     1      31.793  -6.788  34.182  0.00  0.00    +0.000 Br
ATOM     18  C   UNL     1      31.941  -4.032  35.036  0.00  0.00    +0.000 A 
ATOM     19  C   UNL     1      32.359  -2.719  34.980  0.00  0.00    +0.000 A 
ENDBRANCH   2  13
TORSDOF 2
ENDMDL
MODEL 7
REMARK VINA RESULT:      -6.3     19.123     19.987
REMARK  Name = 
REMARK  2 active torsions:
REMARK  status: ('A' for Active; 'I' for Inactive)
REMARK    1  A    between atoms: C_7  and  N_8
REMARK    2  A    between atoms: C_9  and  C_11
REMARK                            x       y       z     vdW  Elec       q    Type
REMARK                         _______ _______ _______ _____ _____    ______ ____
ROOT
ATOM      1  N   UNL     1      30.036  21.988  27.129  0.00  0.00    +0.000 NA
ATOM      2  C   UNL     1      30.442  22.823  28.199  0.00  0.00    +0.000 C 
ATOM      3  O   UNL     1      29.935  23.966  28.277  0.00  0.00    +0.000 OA
ENDROOT
BRANCH   1  10
ATOM      4  C   UNL     1      29.027  23.755  22.675  0.00  0.00    +0.000 C 
ATOM      5  C   UNL     1      28.553  23.297  23.983  0.00  0.00    +0.000 A 
ATOM      6  C   UNL     1      27.208  23.299  24.257  0.00  0.00    +0.000 A 
ATOM      7  O   UNL     1      26.334  23.739  23.273  0.00  0.00    +0.000 OA
ATOM      8  C   UNL     1      26.799  22.862  25.495  0.00  0.00    +0.000 A 
ATOM      9  C   UNL     1      27.718  22.433  26.436  0.00  0.00    +0.000 A 
ATOM     10  C   UNL     1      29.068  22.434  26.154  0.00  0.00    +0.000 A 
ATOM     11  C   UNL     1      29.470  22.869  24.921  0.00  0.00    +0.000 A 
ATOM     12  C   UNL     1      30.931  22.880  24.591  0.00  0.00    +0.000 C 
ENDBRANCH   1  10
BRANCH   2  13
ATOM     13  C   UNL     1      31.421  22.356  29.174  0.00  0.00    +0.000 A 
ATOM     14  C   UNL     1      32.750  22.166  28.856  0.00  0.00    +0.000 A 
ATOM     15  C   UNL     1      33.683  21.726  29.772  0.00  0.00    +0.000 A 
ATOM     16  C   UNL     1      33.314  21.451  31.073  0.00  0.00    +0.000 A 
ATOM     17 BR   UNL     1      34.597  20.839  32.354  0.00  0.00    +0.000 Br
ATOM     18  C   UNL     1      31.988  21.636  31.406  0.00  0.00    +0.000 A 
ATOM     19  C   UNL     1      31.068  22.077  30.478  0.00  0.00    +0.000 A 
ENDBRANCH   2  13
TORSDOF 2
ENDMDL
MODEL 8
REMARK VINA RESULT:      -6.3     19.341     20.221
REMARK  Name = 
REMARK  2 active torsions:
REMARK  status: ('A' for Active; 'I' for Inactive)
REMARK    1  A    between atoms: C_7  and  N_8
REMARK    2  A    between atoms: C_9  and  C_11
REMARK                            x       y       z     vdW  Elec       q    Type
REMARK                         _______ _______ _______ _____ _____    ______ ____
ROOT
ATOM      1  N   UNL     1      30.779  21.889  27.282  0.00  0.00    +0.000 NA
ATOM      2  C   UNL     1      31.437  22.807  28.137  0.00  0.00    +0.000 C 
ATOM      3  O   UNL     1      31.286  24.030  27.914  0.00  0.00    +0.000 OA
ENDROOT
BRANCH   1  10
ATOM      4  C   UNL     1      26.367  23.057  25.506  0.00  0.00    +0.000 C 
ATOM      5  C   UNL     1      27.811  22.917  25.297  0.00  0.00    +0.000 A 
ATOM      6  C   UNL     1      28.351  23.216  24.071  0.00  0.00    +0.000 A 
ATOM      7  O   UNL     1      27.501  23.647  23.062  0.00  0.00    +0.000 OA
ATOM      8  C   UNL     1      29.710  23.074  23.911  0.00  0.00    +0.000 A 
ATOM      9  C   UNL     1      30.506  22.641  24.956  0.00  0.00    +0.000 A 
ATOM     10  C   UNL     1      29.956  22.342  26.185  0.00  0.00    +0.000 A 
ATOM     11  C   UNL     1      28.604  22.486  26.339  0.00  0.00    +0.000 A 
ATOM     12  C   UNL     1      27.984  22.167  27.665  0.00  0.00    +0.000 C 
ENDBRANCH   1  10
BRANCH   2  13
ATOM     13  C   UNL     1      32.265  22.330  29.240  0.00  0.00    +0.000 A 
ATOM     14  C   UNL     1      31.754  21.580  30.279  0.00  0.00    +0.000 A 
ATOM     15  C   UNL     1      32.530  21.125  31.325  0.00  0.00    +0.000 A 
ATOM     16  C   UNL     1      33.879  21.409  31.374  0.00  0.00    +0.000 A 
ATOM     17 BR   UNL     1      34.968  20.783  32.819  0.00  0.00    +0.000 Br
ATOM     18  C   UNL     1      34.405  22.158  30.341  0.00  0.00    +0.000 A 
ATOM     19  C   UNL     1      33.615  22.605  29.302  0.00  0.00    +0.000 A 
ENDBRANCH   2  13
TORSDOF 2
ENDMDL
MODEL 9
REMARK VINA RESULT:      -5.9     21.230     22.629
REMARK  Name = 
REMARK  2 active torsions:
REMARK  status: ('A' for Active; 'I' for Inactive)
REMARK    1  A    between atoms: C_7  and  N_8
REMARK    2  A    between atoms: C_9  and  C_11
REMARK                            x       y       z     vdW  Elec       q    Type
REMARK                         _______ _______ _______ _____ _____    ______ ____
ROOT
ATOM      1  N   UNL     1      30.428  24.714  24.433  0.00  0.00    +0.000 NA
ATOM      2  C   UNL     1      31.524  23.833  24.604  0.00  0.00    +0.000 C 
ATOM      3  O   UNL     1      31.392  22.650  24.211  0.00  0.00    +0.000 OA
ENDROOT
BRANCH   1  10
ATOM      4  C   UNL     1      25.888  22.937  24.892  0.00  0.00    +0.000 C 
ATOM      5  C   UNL     1      26.975  23.403  24.027  0.00  0.00    +0.000 A 
ATOM      6  C   UNL     1      26.802  23.411  22.666  0.00  0.00    +0.000 A 
ATOM      7  O   UNL     1      25.591  22.972  22.151  0.00  0.00    +0.000 OA
ATOM      8  C   UNL     1      27.843  23.856  21.884  0.00  0.00    +0.000 A 
ATOM      9  C   UNL     1      29.029  24.282  22.456  0.00  0.00    +0.000 A 
ATOM     10  C   UNL     1      29.195  24.271  23.826  0.00  0.00    +0.000 A 
ATOM     11  C   UNL     1      28.156  23.828  24.598  0.00  0.00    +0.000 A 
ATOM     12  C   UNL     1      28.313  23.807  26.088  0.00  0.00    +0.000 C 
ENDBRANCH   1  10
BRANCH   2  13
ATOM     13  C   UNL     1      32.761  24.298  25.220  0.00  0.00    +0.000 A 
ATOM     14  C   UNL     1      33.948  24.389  24.522  0.00  0.00    +0.000 A 
ATOM     15  C   UNL     1      35.122  24.830  25.098  0.00  0.00    +0.000 A 
ATOM     16  C   UNL     1      35.156  25.205  26.425  0.00  0.00    +0.000 A 
ATOM     17 BR   UNL     1      36.778  25.817  27.236  0.00  0.00    +0.000 Br
ATOM     18  C   UNL     1      33.977  25.119  27.136  0.00  0.00    +0.000 A 
ATOM     19  C   UNL     1      32.811  24.677  26.546  0.00  0.00    +0.000 A 
ENDBRANCH   2  13
TORSDOF 2
ENDMDL
MODEL 10
REMARK VINA RESULT:      -5.9     19.789     21.966
REMARK  Name = 
REMARK  2 active torsions:
REMARK  status: ('A' for Active; 'I' for Inactive)
REMARK    1  A    between atoms: C_7  and  N_8
REMARK    2  A    between atoms: C_9  and  C_11
REMARK                            x       y       z     vdW  Elec       q    Type
REMARK                         _______ _______ _______ _____ _____    ______ ____
ROOT
ATOM      1  N   UNL     1      33.526   0.382  35.777  0.00  0.00    +0.000 NA
ATOM      2  C   UNL     1      33.651   1.330  34.732  0.00  0.00    +0.000 C 
ATOM      3  O   UNL     1      33.611   0.912  33.552  0.00  0.00    +0.000 OA
ENDROOT
BRANCH   1  10
ATOM      4  C   UNL     1      35.430  -4.117  35.429  0.00  0.00    +0.000 C 
ATOM      5  C   UNL     1      34.268  -3.231  35.322  0.00  0.00    +0.000 A 
ATOM      6  C   UNL     1      33.050  -3.750  34.962  0.00  0.00    +0.000 A 
ATOM      7  O   UNL     1      32.961  -5.112  34.709  0.00  0.00    +0.000 OA
ATOM      8  C   UNL     1      31.980  -2.890  34.872  0.00  0.00    +0.000 A 
ATOM      9  C   UNL     1      32.131  -1.540  35.137  0.00  0.00    +0.000 A 
ATOM     10  C   UNL     1      33.358  -1.025  35.499  0.00  0.00    +0.000 A 
ATOM     11  C   UNL     1      34.419  -1.885  35.587  0.00  0.00    +0.000 A 
ATOM     12  C   UNL     1      35.762  -1.350  35.977  0.00  0.00    +0.000 C 
ENDBRANCH   1  10
BRANCH   2  13
ATOM     13  C   UNL     1      33.820   2.747  35.034  0.00  0.00    +0.000 A 
ATOM     14  C   UNL     1      34.162   3.202  36.291  0.00  0.00    +0.000 A 
ATOM     15  C   UNL     1      34.326   4.540  36.584  0.00  0.00    +0.000 A 
ATOM     16  C   UNL     1      34.149   5.499  35.608  0.00  0.00    +0.000 A 
ATOM     17 BR   UNL     1      34.372   7.359  36.000  0.00  0.00    +0.000 Br
ATOM     18  C   UNL     1      33.807   5.060  34.346  0.00  0.00    +0.000 A 
ATOM     19  C   UNL     1      33.648   3.718  34.069  0.00  0.00    +0.000 A 
ENDBRANCH   2  13
TORSDOF 2
ENDMDL
