MODEL 1
REMARK VINA RESULT:      -6.8      0.000      0.000
REMARK  Name = 
REMARK  4 active torsions:
REMARK  status: ('A' for Active; 'I' for Inactive)
REMARK    1  A    between atoms: C_2  and  C_4
REMARK    2  A    between atoms: C_4  and  O_5
REMARK    3  A    between atoms: O_5  and  C_6
REMARK    4  A    between atoms: C_9  and  C_10
REMARK                            x       y       z     vdW  Elec       q    Type
REMARK                         _______ _______ _______ _____ _____    ______ ____
ROOT
ATOM      1  C   UNL     1      15.554  11.376  33.431  0.00  0.00    +0.000 A 
ATOM      2  C   UNL     1      15.174  11.806  34.684  0.00  0.00    +0.000 A 
ATOM      3  C   UNL     1      15.871  11.434  35.840  0.00  0.00    +0.000 A 
ATOM      4  C   UNL     1      16.967  10.617  35.751  0.00  0.00    +0.000 A 
ATOM      5  C   UNL     1      17.343  10.191  34.499  0.00  0.00    +0.000 A 
ATOM      6  C   UNL     1      16.659  10.556  33.355  0.00  0.00    +0.000 A 
ENDROOT
BRANCH   4   7
ATOM      7  C   UNL     1      17.746  10.189  36.951  0.00  0.00    +0.000 A 
ATOM      8  C   UNL     1      19.086   9.861  36.903  0.00  0.00    +0.000 A 
ATOM      9  S   UNL     1      19.418   9.464  38.525  0.00  0.00    +0.000 S 
ATOM     10  C   UNL     1      17.867   9.729  39.169  0.00  0.00    +0.000 A 
ATOM     11  N   UNL     1      17.431   9.573  40.541  0.00  0.00    +0.000 NA
ATOM     12  N   UNL     1      17.170  10.107  38.123  0.00  0.00    +0.000 NA
ENDBRANCH   4   7
BRANCH   1  13
ATOM     13  O   UNL     1      14.846  11.760  32.291  0.00  0.00    +0.000 OA
BRANCH  13  14
ATOM     14  C   UNL     1      15.539  11.975  31.097  0.00  0.00    +0.000 C 
BRANCH  14  16
ATOM     15  C   UNL     1      14.225  14.079  31.281  0.00  0.00    +0.000 C 
ATOM     16  C   UNL     1      15.146  13.244  30.395  0.00  0.00    +0.000 C 
ATOM     17  C   UNL     1      16.420  14.049  30.179  0.00  0.00    +0.000 C 
ENDBRANCH  14  16
ENDBRANCH  13  14
ENDBRANCH   1  13
TORSDOF 4
ENDMDL
MODEL 2
REMARK VINA RESULT:      -6.2      3.951      6.954
REMARK  Name = 
REMARK  4 active torsions:
REMARK  status: ('A' for Active; 'I' for Inactive)
REMARK    1  A    between atoms: C_2  and  C_4
REMARK    2  A    between atoms: C_4  and  O_5
REMARK    3  A    between atoms: O_5  and  C_6
REMARK    4  A    between atoms: C_9  and  C_10
REMARK                            x       y       z     vdW  Elec       q    Type
REMARK                         _______ _______ _______ _____ _____    ______ ____
ROOT
ATOM      1  C   UNL     1      17.743   9.910  36.584  0.00  0.00    +0.000 A 
ATOM      2  C   UNL     1      18.090   9.410  35.348  0.00  0.00    +0.000 A 
ATOM      3  C   UNL     1      17.458   9.833  34.172  0.00  0.00    +0.000 A 
ATOM      4  C   UNL     1      16.461  10.771  34.225  0.00  0.00    +0.000 A 
ATOM      5  C   UNL     1      16.119  11.267  35.460  0.00  0.00    +0.000 A 
ATOM      6  C   UNL     1      16.740  10.853  36.624  0.00  0.00    +0.000 A 
ENDROOT
BRANCH   4   7
ATOM      7  C   UNL     1      15.753  11.257  33.003  0.00  0.00    +0.000 A 
ATOM      8  C   UNL     1      15.793  10.593  31.794  0.00  0.00    +0.000 A 
ATOM      9  S   UNL     1      14.830  11.590  30.804  0.00  0.00    +0.000 S 
ATOM     10  C   UNL     1      14.434  12.777  31.955  0.00  0.00    +0.000 A 
ATOM     11  N   UNL     1      13.615  13.956  31.776  0.00  0.00    +0.000 NA
ATOM     12  N   UNL     1      15.051  12.361  33.037  0.00  0.00    +0.000 NA
ENDBRANCH   4   7
BRANCH   1  13
ATOM     13  O   UNL     1      18.387   9.475  37.745  0.00  0.00    +0.000 OA
BRANCH  13  14
ATOM     14  C   UNL     1      18.556  10.367  38.806  0.00  0.00    +0.000 C 
BRANCH  14  16
ATOM     15  C   UNL     1      20.886  10.219  37.950  0.00  0.00    +0.000 C 
ATOM     16  C   UNL     1      19.929  10.972  38.870  0.00  0.00    +0.000 C 
ATOM     17  C   UNL     1      19.816  12.395  38.340  0.00  0.00    +0.000 C 
ENDBRANCH  14  16
ENDBRANCH  13  14
ENDBRANCH   1  13
TORSDOF 4
ENDMDL
MODEL 3
REMARK VINA RESULT:      -6.0      3.927      7.381
REMARK  Name = 
REMARK  4 active torsions:
REMARK  status: ('A' for Active; 'I' for Inactive)
REMARK    1  A    between atoms: C_2  and  C_4
REMARK    2  A    between atoms: C_4  and  O_5
REMARK    3  A    between atoms: O_5  and  C_6
REMARK    4  A    between atoms: C_9  and  C_10
REMARK                            x       y       z     vdW  Elec       q    Type
REMARK                         _______ _______ _______ _____ _____    ______ ____
ROOT
ATOM      1  C   UNL     1      17.458   9.985  36.766  0.00  0.00    +0.000 A 
ATOM      2  C   UNL     1      16.466  10.943  36.771  0.00  0.00    +0.000 A 
ATOM      3  C   UNL     1      15.862  11.390  35.589  0.00  0.00    +0.000 A 
ATOM      4  C   UNL     1      16.251  10.878  34.379  0.00  0.00    +0.000 A 
ATOM      5  C   UNL     1      17.239   9.923  34.381  0.00  0.00    +0.000 A 
ATOM      6  C   UNL     1      17.838   9.476  35.544  0.00  0.00    +0.000 A 
ENDROOT
BRANCH   4   7
ATOM      7  C   UNL     1      15.641  11.319  33.090  0.00  0.00    +0.000 A 
ATOM      8  C   UNL     1      15.764  10.607  31.914  0.00  0.00    +0.000 A 
ATOM      9  S   UNL     1      14.887  11.570  30.817  0.00  0.00    +0.000 S 
ATOM     10  C   UNL     1      14.418  12.805  31.887  0.00  0.00    +0.000 A 
ATOM     11  N   UNL     1      13.626  13.981  31.600  0.00  0.00    +0.000 NA
ATOM     12  N   UNL     1      14.949  12.428  33.027  0.00  0.00    +0.000 NA
ENDBRANCH   4   7
BRANCH   1  13
ATOM     13  O   UNL     1      18.046   9.552  37.957  0.00  0.00    +0.000 OA
BRANCH  13  14
ATOM     14  C   UNL     1      17.424   9.846  39.172  0.00  0.00    +0.000 C 
BRANCH  14  16
ATOM     15  C   UNL     1      18.636   7.772  39.818  0.00  0.00    +0.000 C 
ATOM     16  C   UNL     1      17.498   8.726  40.171  0.00  0.00    +0.000 C 
ATOM     17  C   UNL     1      17.832   9.350  41.519  0.00  0.00    +0.000 C 
ENDBRANCH  14  16
ENDBRANCH  13  14
ENDBRANCH   1  13
TORSDOF 4
ENDMDL
MODEL 4
REMARK VINA RESULT:      -5.7      1.463      2.228
REMARK  Name = 
REMARK  4 active torsions:
REMARK  status: ('A' for Active; 'I' for Inactive)
REMARK    1  A    between atoms: C_2  and  C_4
REMARK    2  A    between atoms: C_4  and  O_5
REMARK    3  A    between atoms: O_5  and  C_6
REMARK    4  A    between atoms: C_9  and  C_10
REMARK                            x       y       z     vdW  Elec       q    Type
REMARK                         _______ _______ _______ _____ _____    ______ ____
ROOT
ATOM      1  C   UNL     1      16.591  11.389  34.730  0.00  0.00    +0.000 A 
ATOM      2  C   UNL     1      17.366  10.271  34.510  0.00  0.00    +0.000 A 
ATOM      3  C   UNL     1      18.170   9.717  35.513  0.00  0.00    +0.000 A 
ATOM      4  C   UNL     1      18.207  10.285  36.760  0.00  0.00    +0.000 A 
ATOM      5  C   UNL     1      17.432  11.400  36.974  0.00  0.00    +0.000 A 
ATOM      6  C   UNL     1      16.635  11.950  35.987  0.00  0.00    +0.000 A 
ENDROOT
BRANCH   4   7
ATOM      7  C   UNL     1      19.047   9.736  37.866  0.00  0.00    +0.000 A 
ATOM      8  C   UNL     1      20.330  10.173  38.127  0.00  0.00    +0.000 A 
ATOM      9  S   UNL     1      20.772   9.212  39.461  0.00  0.00    +0.000 S 
ATOM     10  C   UNL     1      19.332   8.322  39.617  0.00  0.00    +0.000 A 
ATOM     11  N   UNL     1      19.018   7.294  40.585  0.00  0.00    +0.000 NA
ATOM     12  N   UNL     1      18.583   8.796  38.648  0.00  0.00    +0.000 NA
ENDBRANCH   4   7
BRANCH   1  13
ATOM     13  O   UNL     1      15.795  11.926  33.715  0.00  0.00    +0.000 OA
BRANCH  13  14
ATOM     14  C   UNL     1      16.105  11.643  32.383  0.00  0.00    +0.000 C 
BRANCH  14  16
ATOM     15  C   UNL     1      16.487  13.200  30.482  0.00  0.00    +0.000 C 
ATOM     16  C   UNL     1      15.445  12.569  31.402  0.00  0.00    +0.000 C 
ATOM     17  C   UNL     1      14.526  11.722  30.534  0.00  0.00    +0.000 C 
ENDBRANCH  14  16
ENDBRANCH  13  14
ENDBRANCH   1  13
TORSDOF 4
ENDMDL
MODEL 5
REMARK VINA RESULT:      -5.6     18.342     19.590
REMARK  Name = 
REMARK  4 active torsions:
REMARK  status: ('A' for Active; 'I' for Inactive)
REMARK    1  A    between atoms: C_2  and  C_4
REMARK    2  A    between atoms: C_4  and  O_5
REMARK    3  A    between atoms: O_5  and  C_6
REMARK    4  A    between atoms: C_9  and  C_10
REMARK                            x       y       z     vdW  Elec       q    Type
REMARK                         _______ _______ _______ _____ _____    ______ ____
ROOT
ATOM      1  C   UNL     1      33.530   2.459  34.027  0.00  0.00    +0.000 A 
ATOM      2  C   UNL     1      33.299   3.687  33.445  0.00  0.00    +0.000 A 
ATOM      3  C   UNL     1      33.432   4.883  34.161  0.00  0.00    +0.000 A 
ATOM      4  C   UNL     1      33.800   4.861  35.481  0.00  0.00    +0.000 A 
ATOM      5  C   UNL     1      34.029   3.633  36.055  0.00  0.00    +0.000 A 
ATOM      6  C   UNL     1      33.900   2.449  35.353  0.00  0.00    +0.000 A 
ENDROOT
BRANCH   4   7
ATOM      7  C   UNL     1      33.955   6.105  36.290  0.00  0.00    +0.000 A 
ATOM      8  C   UNL     1      33.836   6.131  37.665  0.00  0.00    +0.000 A 
ATOM      9  S   UNL     1      34.107   7.774  38.020  0.00  0.00    +0.000 S 
ATOM     10  C   UNL     1      34.353   8.334  36.433  0.00  0.00    +0.000 A 
ATOM     11  N   UNL     1      34.640   9.684  35.998  0.00  0.00    +0.000 NA
ATOM     12  N   UNL     1      34.218   7.247  35.709  0.00  0.00    +0.000 NA
ENDBRANCH   4   7
BRANCH   1  13
ATOM     13  O   UNL     1      33.393   1.278  33.294  0.00  0.00    +0.000 OA
BRANCH  13  14
ATOM     14  C   UNL     1      33.091   0.090  33.966  0.00  0.00    +0.000 C 
BRANCH  14  16
ATOM     15  C   UNL     1      34.856  -1.104  35.248  0.00  0.00    +0.000 C 
ATOM     16  C   UNL     1      34.183  -0.938  33.888  0.00  0.00    +0.000 C 
ATOM     17  C   UNL     1      33.524  -2.266  33.542  0.00  0.00    +0.000 C 
ENDBRANCH  14  16
ENDBRANCH  13  14
ENDBRANCH   1  13
TORSDOF 4
ENDMDL
MODEL 6
REMARK VINA RESULT:      -5.5     16.774     19.083
REMARK  Name = 
REMARK  4 active torsions:
REMARK  status: ('A' for Active; 'I' for Inactive)
REMARK    1  A    between atoms: C_2  and  C_4
REMARK    2  A    between atoms: C_4  and  O_5
REMARK    3  A    between atoms: O_5  and  C_6
REMARK    4  A    between atoms: C_9  and  C_10
REMARK                            x       y       z     vdW  Elec       q    Type
REMARK                         _______ _______ _______ _____ _____    ______ ____
ROOT
ATOM      1  C   UNL     1      27.999  23.180  23.795  0.00  0.00    +0.000 A 
ATOM      2  C   UNL     1      26.824  23.248  24.512  0.00  0.00    +0.000 A 
ATOM      3  C   UNL     1      26.792  23.084  25.902  0.00  0.00    +0.000 A 
ATOM      4  C   UNL     1      27.950  22.846  26.595  0.00  0.00    +0.000 A 
ATOM      5  C   UNL     1      29.119  22.780  25.875  0.00  0.00    +0.000 A 
ATOM      6  C   UNL     1      29.157  22.942  24.503  0.00  0.00    +0.000 A 
ENDROOT
BRANCH   4   7
ATOM      7  C   UNL     1      27.973  22.663  28.077  0.00  0.00    +0.000 A 
ATOM      8  C   UNL     1      29.072  22.963  28.857  0.00  0.00    +0.000 A 
ATOM      9  S   UNL     1      28.525  22.562  30.419  0.00  0.00    +0.000 S 
ATOM     10  C   UNL     1      26.958  22.044  30.009  0.00  0.00    +0.000 A 
ATOM     11  N   UNL     1      25.921  21.552  30.890  0.00  0.00    +0.000 NA
ATOM     12  N   UNL     1      26.924  22.200  28.706  0.00  0.00    +0.000 NA
ENDBRANCH   4   7
BRANCH   1  13
ATOM     13  O   UNL     1      28.009  23.348  22.409  0.00  0.00    +0.000 OA
BRANCH  13  14
ATOM     14  C   UNL     1      29.093  23.991  21.807  0.00  0.00    +0.000 C 
BRANCH  14  16
ATOM     15  C   UNL     1      27.331  25.715  21.480  0.00  0.00    +0.000 C 
ATOM     16  C   UNL     1      28.831  25.434  21.484  0.00  0.00    +0.000 C 
ATOM     17  C   UNL     1      29.445  26.262  22.604  0.00  0.00    +0.000 C 
ENDBRANCH  14  16
ENDBRANCH  13  14
ENDBRANCH   1  13
TORSDOF 4
ENDMDL
MODEL 7
REMARK VINA RESULT:      -5.4     19.311     21.226
REMARK  Name = 
REMARK  4 active torsions:
REMARK  status: ('A' for Active; 'I' for Inactive)
REMARK    1  A    between atoms: C_2  and  C_4
REMARK    2  A    between atoms: C_4  and  O_5
REMARK    3  A    between atoms: O_5  and  C_6
REMARK    4  A    between atoms: C_9  and  C_10
REMARK                            x       y       z     vdW  Elec       q    Type
REMARK                         _______ _______ _______ _____ _____    ______ ____
ROOT
ATOM      1  C   UNL     1      30.765  22.279  27.487  0.00  0.00    +0.000 A 
ATOM      2  C   UNL     1      31.512  22.897  26.506  0.00  0.00    +0.000 A 
ATOM      3  C   UNL     1      30.945  23.316  25.296  0.00  0.00    +0.000 A 
ATOM      4  C   UNL     1      29.611  23.116  25.053  0.00  0.00    +0.000 A 
ATOM      5  C   UNL     1      28.872  22.500  26.035  0.00  0.00    +0.000 A 
ATOM      6  C   UNL     1      29.425  22.086  27.232  0.00  0.00    +0.000 A 
ENDROOT
BRANCH   4   7
ATOM      7  C   UNL     1      28.956  23.542  23.781  0.00  0.00    +0.000 A 
ATOM      8  C   UNL     1      27.591  23.499  23.584  0.00  0.00    +0.000 A 
ATOM      9  S   UNL     1      27.438  24.089  21.994  0.00  0.00    +0.000 S 
ATOM     10  C   UNL     1      29.086  24.355  21.667  0.00  0.00    +0.000 A 
ATOM     11  N   UNL     1      29.683  24.867  20.452  0.00  0.00    +0.000 NA
ATOM     12  N   UNL     1      29.674  23.984  22.780  0.00  0.00    +0.000 NA
ENDBRANCH   4   7
BRANCH   1  13
ATOM     13  O   UNL     1      31.350  21.870  28.687  0.00  0.00    +0.000 OA
BRANCH  13  14
ATOM     14  C   UNL     1      31.794  22.836  29.593  0.00  0.00    +0.000 C 
BRANCH  14  16
ATOM     15  C   UNL     1      29.896  22.403  31.142  0.00  0.00    +0.000 C 
ATOM     16  C   UNL     1      31.411  22.546  31.017  0.00  0.00    +0.000 C 
ATOM     17  C   UNL     1      32.025  21.201  31.381  0.00  0.00    +0.000 C 
ENDBRANCH  14  16
ENDBRANCH  13  14
ENDBRANCH   1  13
TORSDOF 4
ENDMDL
MODEL 8
REMARK VINA RESULT:      -5.4     21.747     22.885
REMARK  Name = 
REMARK  4 active torsions:
REMARK  status: ('A' for Active; 'I' for Inactive)
REMARK    1  A    between atoms: C_2  and  C_4
REMARK    2  A    between atoms: C_4  and  O_5
REMARK    3  A    between atoms: O_5  and  C_6
REMARK    4  A    between atoms: C_9  and  C_10
REMARK                            x       y       z     vdW  Elec       q    Type
REMARK                         _______ _______ _______ _____ _____    ______ ____
ROOT
ATOM      1  C   UNL     1      24.434  -8.196  24.024  0.00  0.00    +0.000 A 
ATOM      2  C   UNL     1      23.966  -6.901  23.957  0.00  0.00    +0.000 A 
ATOM      3  C   UNL     1      22.696  -6.546  24.427  0.00  0.00    +0.000 A 
ATOM      4  C   UNL     1      21.872  -7.495  24.974  0.00  0.00    +0.000 A 
ATOM      5  C   UNL     1      22.344  -8.785  25.038  0.00  0.00    +0.000 A 
ATOM      6  C   UNL     1      23.598  -9.141  24.577  0.00  0.00    +0.000 A 
ENDROOT
BRANCH   4   7
ATOM      7  C   UNL     1      20.509  -7.172  25.490  0.00  0.00    +0.000 A 
ATOM      8  C   UNL     1      19.549  -8.132  25.738  0.00  0.00    +0.000 A 
ATOM      9  S   UNL     1      18.240  -7.196  26.294  0.00  0.00    +0.000 S 
ATOM     10  C   UNL     1      18.965  -5.662  26.185  0.00  0.00    +0.000 A 
ATOM     11  N   UNL     1      18.389  -4.376  26.515  0.00  0.00    +0.000 NA
ATOM     12  N   UNL     1      20.167  -5.932  25.732  0.00  0.00    +0.000 NA
ENDBRANCH   4   7
BRANCH   1  13
ATOM     13  O   UNL     1      25.705  -8.529  23.550  0.00  0.00    +0.000 OA
BRANCH  13  14
ATOM     14  C   UNL     1      26.463  -7.558  22.891  0.00  0.00    +0.000 C 
BRANCH  14  16
ATOM     15  C   UNL     1      27.407  -8.965  21.070  0.00  0.00    +0.000 C 
ATOM     16  C   UNL     1      27.727  -8.094  22.282  0.00  0.00    +0.000 C 
ATOM     17  C   UNL     1      28.527  -6.899  21.784  0.00  0.00    +0.000 C 
ENDBRANCH  14  16
ENDBRANCH  13  14
ENDBRANCH   1  13
TORSDOF 4
ENDMDL
MODEL 9
REMARK VINA RESULT:      -5.4      3.852      7.821
REMARK  Name = 
REMARK  4 active torsions:
REMARK  status: ('A' for Active; 'I' for Inactive)
REMARK    1  A    between atoms: C_2  and  C_4
REMARK    2  A    between atoms: C_4  and  O_5
REMARK    3  A    between atoms: O_5  and  C_6
REMARK    4  A    between atoms: C_9  and  C_10
REMARK                            x       y       z     vdW  Elec       q    Type
REMARK                         _______ _______ _______ _____ _____    ______ ____
ROOT
ATOM      1  C   UNL     1      18.019   9.492  38.804  0.00  0.00    +0.000 A 
ATOM      2  C   UNL     1      18.557   9.153  37.581  0.00  0.00    +0.000 A 
ATOM      3  C   UNL     1      18.017   9.622  36.377  0.00  0.00    +0.000 A 
ATOM      4  C   UNL     1      16.920  10.443  36.387  0.00  0.00    +0.000 A 
ATOM      5  C   UNL     1      16.387  10.778  37.609  0.00  0.00    +0.000 A 
ATOM      6  C   UNL     1      16.917  10.319  38.801  0.00  0.00    +0.000 A 
ENDROOT
BRANCH   4   7
ATOM      7  C   UNL     1      16.303  10.970  35.134  0.00  0.00    +0.000 A 
ATOM      8  C   UNL     1      15.383  11.999  35.120  0.00  0.00    +0.000 A 
ATOM      9  S   UNL     1      15.047  12.160  33.459  0.00  0.00    +0.000 S 
ATOM     10  C   UNL     1      16.074  10.936  32.877  0.00  0.00    +0.000 A 
ATOM     11  N   UNL     1      16.283  10.523  31.505  0.00  0.00    +0.000 NA
ATOM     12  N   UNL     1      16.623  10.462  33.971  0.00  0.00    +0.000 NA
ENDBRANCH   4   7
BRANCH   1  13
ATOM     13  O   UNL     1      18.574   9.015  39.993  0.00  0.00    +0.000 OA
BRANCH  13  14
ATOM     14  C   UNL     1      17.755   8.861  41.114  0.00  0.00    +0.000 C 
BRANCH  14  16
ATOM     15  C   UNL     1      17.734   6.377  40.981  0.00  0.00    +0.000 C 
ATOM     16  C   UNL     1      16.881   7.641  41.057  0.00  0.00    +0.000 C 
ATOM     17  C   UNL     1      16.103   7.585  42.365  0.00  0.00    +0.000 C 
ENDBRANCH  14  16
ENDBRANCH  13  14
ENDBRANCH   1  13
TORSDOF 4
ENDMDL
MODEL 10
REMARK VINA RESULT:      -5.3     18.984     20.025
REMARK  Name = 
REMARK  4 active torsions:
REMARK  status: ('A' for Active; 'I' for Inactive)
REMARK    1  A    between atoms: C_2  and  C_4
REMARK    2  A    between atoms: C_4  and  O_5
REMARK    3  A    between atoms: O_5  and  C_6
REMARK    4  A    between atoms: C_9  and  C_10
REMARK                            x       y       z     vdW  Elec       q    Type
REMARK                         _______ _______ _______ _____ _____    ______ ____
ROOT
ATOM      1  C   UNL     1      28.820  22.941  23.979  0.00  0.00    +0.000 A 
ATOM      2  C   UNL     1      30.160  22.713  24.205  0.00  0.00    +0.000 A 
ATOM      3  C   UNL     1      30.684  22.589  25.497  0.00  0.00    +0.000 A 
ATOM      4  C   UNL     1      29.862  22.694  26.589  0.00  0.00    +0.000 A 
ATOM      5  C   UNL     1      28.526  22.921  26.358  0.00  0.00    +0.000 A 
ATOM      6  C   UNL     1      28.002  23.043  25.084  0.00  0.00    +0.000 A 
ENDROOT
BRANCH   4   7
ATOM      7  C   UNL     1      30.368  22.571  27.988  0.00  0.00    +0.000 A 
ATOM      8  C   UNL     1      29.658  23.007  29.088  0.00  0.00    +0.000 A 
ATOM      9  S   UNL     1      30.705  22.613  30.371  0.00  0.00    +0.000 S 
ATOM     10  C   UNL     1      31.967  21.926  29.462  0.00  0.00    +0.000 A 
ATOM     11  N   UNL     1      33.212  21.367  29.943  0.00  0.00    +0.000 NA
ATOM     12  N   UNL     1      31.534  22.028  28.227  0.00  0.00    +0.000 NA
ENDBRANCH   4   7
BRANCH   1  13
ATOM     13  O   UNL     1      28.317  23.060  22.682  0.00  0.00    +0.000 OA
BRANCH  13  14
ATOM     14  C   UNL     1      27.326  24.009  22.419  0.00  0.00    +0.000 C 
BRANCH  14  16
ATOM     15  C   UNL     1      28.028  26.367  22.784  0.00  0.00    +0.000 C 
ATOM     16  C   UNL     1      27.847  25.253  21.756  0.00  0.00    +0.000 C 
ATOM     17  C   UNL     1      29.224  24.921  21.199  0.00  0.00    +0.000 C 
ENDBRANCH  14  16
ENDBRANCH  13  14
ENDBRANCH   1  13
TORSDOF 4
ENDMDL
