MODEL 1
REMARK VINA RESULT:      -7.8      0.000      0.000
REMARK  Name = 
REMARK  4 active torsions:
REMARK  status: ('A' for Active; 'I' for Inactive)
REMARK    1  A    between atoms: C_6  and  C_7
REMARK    2  A    between atoms: C_7  and  C_9
REMARK    3  A    between atoms: C_9  and  O_10
REMARK    4  A    between atoms: O_10  and  C_11
REMARK                            x       y       z     vdW  Elec       q    Type
REMARK                         _______ _______ _______ _____ _____    ______ ____
ROOT
ATOM      1  C   UNL     1      16.620  12.194  35.685  0.00  0.00    +0.000 C 
ATOM      2  O   UNL     1      17.380  13.144  35.957  0.00  0.00    +0.000 OA
ENDROOT
BRANCH   1   8
ATOM      3  C   UNL     1      12.522  10.413  39.334  0.00  0.00    +0.000 C 
ATOM      4  C   UNL     1      13.584  10.875  38.388  0.00  0.00    +0.000 A 
ATOM      5  C   UNL     1      14.914  10.570  38.589  0.00  0.00    +0.000 A 
ATOM      6  C   UNL     1      15.910  10.985  37.732  0.00  0.00    +0.000 A 
ATOM      7  C   UNL     1      17.314  10.618  38.013  0.00  0.00    +0.000 C 
ATOM      8  C   UNL     1      15.604  11.736  36.617  0.00  0.00    +0.000 A 
ATOM      9  C   UNL     1      14.253  12.036  36.428  0.00  0.00    +0.000 A 
ATOM     10  C   UNL     1      13.258  11.626  37.278  0.00  0.00    +0.000 A 
ATOM     11  C   UNL     1      11.827  11.958  37.056  0.00  0.00    +0.000 C 
ENDBRANCH   1   8
BRANCH   1  12
ATOM     12  C   UNL     1      16.735  11.500  34.388  0.00  0.00    +0.000 C 
BRANCH  12  13
ATOM     13  O   UNL     1      15.532  11.218  33.756  0.00  0.00    +0.000 OA
BRANCH  13  14
ATOM     14  C   UNL     1      15.027  12.053  32.774  0.00  0.00    +0.000 A 
ATOM     15  C   UNL     1      14.294  13.145  33.121  0.00  0.00    +0.000 A 
ATOM     16  C   UNL     1      13.753  14.031  32.196  0.00  0.00    +0.000 A 
ATOM     17  C   UNL     1      13.991  13.758  30.859  0.00  0.00    +0.000 A 
ATOM     18  C   UNL     1      14.732  12.657  30.498  0.00  0.00    +0.000 A 
ATOM     19  C   UNL     1      15.247  11.809  31.441  0.00  0.00    +0.000 A 
ATOM     20  O   UNL     1      15.988  10.708  31.038  0.00  0.00    +0.000 OA
ENDBRANCH  13  14
ENDBRANCH  12  13
ENDBRANCH   1  12
TORSDOF 4
ENDMDL
MODEL 2
REMARK VINA RESULT:      -7.6      1.801      5.857
REMARK  Name = 
REMARK  4 active torsions:
REMARK  status: ('A' for Active; 'I' for Inactive)
REMARK    1  A    between atoms: C_6  and  C_7
REMARK    2  A    between atoms: C_7  and  C_9
REMARK    3  A    between atoms: C_9  and  O_10
REMARK    4  A    between atoms: O_10  and  C_11
REMARK                            x       y       z     vdW  Elec       q    Type
REMARK                         _______ _______ _______ _____ _____    ______ ____
ROOT
ATOM      1  C   UNL     1      16.120  11.379  35.646  0.00  0.00    +0.000 C 
ATOM      2  O   UNL     1      16.585  10.256  35.921  0.00  0.00    +0.000 OA
ENDROOT
BRANCH   1   8
ATOM      3  C   UNL     1      14.787  12.959  30.260  0.00  0.00    +0.000 C 
ATOM      4  C   UNL     1      15.132  12.549  31.655  0.00  0.00    +0.000 A 
ATOM      5  C   UNL     1      16.083  11.583  31.912  0.00  0.00    +0.000 A 
ATOM      6  C   UNL     1      16.417  11.189  33.190  0.00  0.00    +0.000 A 
ATOM      7  C   UNL     1      17.446  10.146  33.386  0.00  0.00    +0.000 C 
ATOM      8  C   UNL     1      15.799  11.762  34.281  0.00  0.00    +0.000 A 
ATOM      9  C   UNL     1      14.840  12.738  34.004  0.00  0.00    +0.000 A 
ATOM     10  C   UNL     1      14.504  13.134  32.735  0.00  0.00    +0.000 A 
ATOM     11  C   UNL     1      13.479  14.175  32.466  0.00  0.00    +0.000 C 
ENDBRANCH   1   8
BRANCH   1  12
ATOM     12  C   UNL     1      15.881  12.366  36.716  0.00  0.00    +0.000 C 
BRANCH  12  13
ATOM     13  O   UNL     1      15.242  11.874  37.846  0.00  0.00    +0.000 OA
BRANCH  13  14
ATOM     14  C   UNL     1      13.886  11.593  37.836  0.00  0.00    +0.000 A 
ATOM     15  C   UNL     1      13.072  12.203  36.933  0.00  0.00    +0.000 A 
ATOM     16  C   UNL     1      11.703  11.975  36.860  0.00  0.00    +0.000 A 
ATOM     17  C   UNL     1      11.171  11.074  37.767  0.00  0.00    +0.000 A 
ATOM     18  C   UNL     1      11.986  10.451  38.683  0.00  0.00    +0.000 A 
ATOM     19  C   UNL     1      13.331  10.704  38.723  0.00  0.00    +0.000 A 
ATOM     20  O   UNL     1      14.120  10.057  39.662  0.00  0.00    +0.000 OA
ENDBRANCH  13  14
ENDBRANCH  12  13
ENDBRANCH   1  12
TORSDOF 4
ENDMDL
MODEL 3
REMARK VINA RESULT:      -7.5      2.392      6.583
REMARK  Name = 
REMARK  4 active torsions:
REMARK  status: ('A' for Active; 'I' for Inactive)
REMARK    1  A    between atoms: C_6  and  C_7
REMARK    2  A    between atoms: C_7  and  C_9
REMARK    3  A    between atoms: C_9  and  O_10
REMARK    4  A    between atoms: O_10  and  C_11
REMARK                            x       y       z     vdW  Elec       q    Type
REMARK                         _______ _______ _______ _____ _____    ______ ____
ROOT
ATOM      1  C   UNL     1      14.316  12.653  35.944  0.00  0.00    +0.000 C 
ATOM      2  O   UNL     1      13.240  12.799  36.556  0.00  0.00    +0.000 OA
ENDROOT
BRANCH   1   8
ATOM      3  C   UNL     1      14.698  13.105  30.206  0.00  0.00    +0.000 C 
ATOM      4  C   UNL     1      14.599  12.988  31.693  0.00  0.00    +0.000 A 
ATOM      5  C   UNL     1      13.901  13.908  32.447  0.00  0.00    +0.000 A 
ATOM      6  C   UNL     1      13.796  13.821  33.818  0.00  0.00    +0.000 A 
ATOM      7  C   UNL     1      13.030  14.846  34.558  0.00  0.00    +0.000 C 
ATOM      8  C   UNL     1      14.400  12.786  34.499  0.00  0.00    +0.000 A 
ATOM      9  C   UNL     1      15.103  11.863  33.722  0.00  0.00    +0.000 A 
ATOM     10  C   UNL     1      15.210  11.945  32.357  0.00  0.00    +0.000 A 
ATOM     11  C   UNL     1      15.964  10.950  31.552  0.00  0.00    +0.000 C 
ENDBRANCH   1   8
BRANCH   1  12
ATOM     12  C   UNL     1      15.553  12.335  36.684  0.00  0.00    +0.000 C 
BRANCH  12  13
ATOM     13  O   UNL     1      15.682  11.012  37.086  0.00  0.00    +0.000 OA
BRANCH  13  14
ATOM     14  C   UNL     1      16.908  10.499  37.474  0.00  0.00    +0.000 A 
ATOM     15  C   UNL     1      17.943  10.467  36.592  0.00  0.00    +0.000 A 
ATOM     16  C   UNL     1      19.202   9.969  36.905  0.00  0.00    +0.000 A 
ATOM     17  C   UNL     1      19.379   9.486  38.191  0.00  0.00    +0.000 A 
ATOM     18  C   UNL     1      18.339   9.515  39.091  0.00  0.00    +0.000 A 
ATOM     19  C   UNL     1      17.113  10.015  38.742  0.00  0.00    +0.000 A 
ATOM     20  O   UNL     1      16.089  10.026  39.677  0.00  0.00    +0.000 OA
ENDBRANCH  13  14
ENDBRANCH  12  13
ENDBRANCH   1  12
TORSDOF 4
ENDMDL
MODEL 4
REMARK VINA RESULT:      -7.5      2.220      4.155
REMARK  Name = 
REMARK  4 active torsions:
REMARK  status: ('A' for Active; 'I' for Inactive)
REMARK    1  A    between atoms: C_6  and  C_7
REMARK    2  A    between atoms: C_7  and  C_9
REMARK    3  A    between atoms: C_9  and  O_10
REMARK    4  A    between atoms: O_10  and  C_11
REMARK                            x       y       z     vdW  Elec       q    Type
REMARK                         _______ _______ _______ _____ _____    ______ ____
ROOT
ATOM      1  C   UNL     1      16.376  11.313  36.442  0.00  0.00    +0.000 C 
ATOM      2  O   UNL     1      15.406  10.954  37.137  0.00  0.00    +0.000 OA
ENDROOT
BRANCH   1   8
ATOM      3  C   UNL     1      21.803  10.034  37.922  0.00  0.00    +0.000 C 
ATOM      4  C   UNL     1      20.397  10.365  37.539  0.00  0.00    +0.000 A 
ATOM      5  C   UNL     1      19.687   9.588  36.647  0.00  0.00    +0.000 A 
ATOM      6  C   UNL     1      18.390   9.874  36.278  0.00  0.00    +0.000 A 
ATOM      7  C   UNL     1      17.694   8.993  35.316  0.00  0.00    +0.000 C 
ATOM      8  C   UNL     1      17.743  10.972  36.801  0.00  0.00    +0.000 A 
ATOM      9  C   UNL     1      18.474  11.749  37.702  0.00  0.00    +0.000 A 
ATOM     10  C   UNL     1      19.765  11.469  38.072  0.00  0.00    +0.000 A 
ATOM     11  C   UNL     1      20.523  12.311  39.033  0.00  0.00    +0.000 C 
ENDBRANCH   1   8
BRANCH   1  12
ATOM     12  C   UNL     1      16.157  12.107  35.218  0.00  0.00    +0.000 C 
BRANCH  12  13
ATOM     13  O   UNL     1      15.250  11.570  34.315  0.00  0.00    +0.000 OA
BRANCH  13  14
ATOM     14  C   UNL     1      14.951  12.220  33.130  0.00  0.00    +0.000 A 
ATOM     15  C   UNL     1      14.120  13.297  33.136  0.00  0.00    +0.000 A 
ATOM     16  C   UNL     1      13.771  14.002  31.990  0.00  0.00    +0.000 A 
ATOM     17  C   UNL     1      14.315  13.560  30.795  0.00  0.00    +0.000 A 
ATOM     18  C   UNL     1      15.156  12.472  30.779  0.00  0.00    +0.000 A 
ATOM     19  C   UNL     1      15.475  11.804  31.931  0.00  0.00    +0.000 A 
ATOM     20  O   UNL     1      16.327  10.711  31.874  0.00  0.00    +0.000 OA
ENDBRANCH  13  14
ENDBRANCH  12  13
ENDBRANCH   1  12
TORSDOF 4
ENDMDL
MODEL 5
REMARK VINA RESULT:      -7.4      1.343      2.274
REMARK  Name = 
REMARK  4 active torsions:
REMARK  status: ('A' for Active; 'I' for Inactive)
REMARK    1  A    between atoms: C_6  and  C_7
REMARK    2  A    between atoms: C_7  and  C_9
REMARK    3  A    between atoms: C_9  and  O_10
REMARK    4  A    between atoms: O_10  and  C_11
REMARK                            x       y       z     vdW  Elec       q    Type
REMARK                         _______ _______ _______ _____ _____    ______ ____
ROOT
ATOM      1  C   UNL     1      16.768  11.902  35.989  0.00  0.00    +0.000 C 
ATOM      2  O   UNL     1      17.352  13.003  35.961  0.00  0.00    +0.000 OA
ENDROOT
BRANCH   1   8
ATOM      3  C   UNL     1      15.449   9.262  40.946  0.00  0.00    +0.000 C 
ATOM      4  C   UNL     1      15.791   9.946  39.661  0.00  0.00    +0.000 A 
ATOM      5  C   UNL     1      17.079   9.959  39.169  0.00  0.00    +0.000 A 
ATOM      6  C   UNL     1      17.418  10.583  37.988  0.00  0.00    +0.000 A 
ATOM      7  C   UNL     1      18.821  10.554  37.523  0.00  0.00    +0.000 C 
ATOM      8  C   UNL     1      16.458  11.231  37.241  0.00  0.00    +0.000 A 
ATOM      9  C   UNL     1      15.159  11.210  37.753  0.00  0.00    +0.000 A 
ATOM     10  C   UNL     1      14.817  10.590  38.927  0.00  0.00    +0.000 A 
ATOM     11  C   UNL     1      13.427  10.580  39.452  0.00  0.00    +0.000 C 
ENDBRANCH   1   8
BRANCH   1  12
ATOM     12  C   UNL     1      16.371  11.241  34.731  0.00  0.00    +0.000 C 
BRANCH  12  13
ATOM     13  O   UNL     1      15.061  11.466  34.329  0.00  0.00    +0.000 OA
BRANCH  13  14
ATOM     14  C   UNL     1      14.777  12.238  33.216  0.00  0.00    +0.000 A 
ATOM     15  C   UNL     1      15.164  11.820  31.981  0.00  0.00    +0.000 A 
ATOM     16  C   UNL     1      14.917  12.538  30.816  0.00  0.00    +0.000 A 
ATOM     17  C   UNL     1      14.239  13.738  30.956  0.00  0.00    +0.000 A 
ATOM     18  C   UNL     1      13.843  14.169  32.200  0.00  0.00    +0.000 A 
ATOM     19  C   UNL     1      14.106  13.431  33.324  0.00  0.00    +0.000 A 
ATOM     20  O   UNL     1      13.691  13.899  34.561  0.00  0.00    +0.000 OA
ENDBRANCH  13  14
ENDBRANCH  12  13
ENDBRANCH   1  12
TORSDOF 4
ENDMDL
MODEL 6
REMARK VINA RESULT:      -7.3      1.469      3.399
REMARK  Name = 
REMARK  4 active torsions:
REMARK  status: ('A' for Active; 'I' for Inactive)
REMARK    1  A    between atoms: C_6  and  C_7
REMARK    2  A    between atoms: C_7  and  C_9
REMARK    3  A    between atoms: C_9  and  O_10
REMARK    4  A    between atoms: O_10  and  C_11
REMARK                            x       y       z     vdW  Elec       q    Type
REMARK                         _______ _______ _______ _____ _____    ______ ____
ROOT
ATOM      1  C   UNL     1      16.462  12.155  36.169  0.00  0.00    +0.000 C 
ATOM      2  O   UNL     1      16.357  13.391  36.294  0.00  0.00    +0.000 OA
ENDROOT
BRANCH   1   8
ATOM      3  C   UNL     1      17.570   8.717  40.667  0.00  0.00    +0.000 C 
ATOM      4  C   UNL     1      17.283   9.608  39.501  0.00  0.00    +0.000 A 
ATOM      5  C   UNL     1      16.008  10.063  39.234  0.00  0.00    +0.000 A 
ATOM      6  C   UNL     1      15.719  10.885  38.166  0.00  0.00    +0.000 A 
ATOM      7  C   UNL     1      14.328  11.332  37.945  0.00  0.00    +0.000 C 
ATOM      8  C   UNL     1      16.719  11.289  37.307  0.00  0.00    +0.000 A 
ATOM      9  C   UNL     1      18.003  10.820  37.590  0.00  0.00    +0.000 A 
ATOM     10  C   UNL     1      18.296  10.002  38.652  0.00  0.00    +0.000 A 
ATOM     11  C   UNL     1      19.671   9.516  38.933  0.00  0.00    +0.000 C 
ENDBRANCH   1   8
BRANCH   1  12
ATOM     12  C   UNL     1      16.328  11.531  34.839  0.00  0.00    +0.000 C 
BRANCH  12  13
ATOM     13  O   UNL     1      15.053  11.568  34.290  0.00  0.00    +0.000 OA
BRANCH  13  14
ATOM     14  C   UNL     1      14.787  12.308  33.151  0.00  0.00    +0.000 A 
ATOM     15  C   UNL     1      15.238  11.882  31.941  0.00  0.00    +0.000 A 
ATOM     16  C   UNL     1      15.012  12.568  30.753  0.00  0.00    +0.000 A 
ATOM     17  C   UNL     1      14.286  13.744  30.841  0.00  0.00    +0.000 A 
ATOM     18  C   UNL     1      13.824  14.183  32.060  0.00  0.00    +0.000 A 
ATOM     19  C   UNL     1      14.069  13.477  33.207  0.00  0.00    +0.000 A 
ATOM     20  O   UNL     1      13.588  13.953  34.417  0.00  0.00    +0.000 OA
ENDBRANCH  13  14
ENDBRANCH  12  13
ENDBRANCH   1  12
TORSDOF 4
ENDMDL
MODEL 7
REMARK VINA RESULT:      -7.3      1.472      2.400
REMARK  Name = 
REMARK  4 active torsions:
REMARK  status: ('A' for Active; 'I' for Inactive)
REMARK    1  A    between atoms: C_6  and  C_7
REMARK    2  A    between atoms: C_7  and  C_9
REMARK    3  A    between atoms: C_9  and  O_10
REMARK    4  A    between atoms: O_10  and  C_11
REMARK                            x       y       z     vdW  Elec       q    Type
REMARK                         _______ _______ _______ _____ _____    ______ ____
ROOT
ATOM      1  C   UNL     1      16.208  12.305  36.147  0.00  0.00    +0.000 C 
ATOM      2  O   UNL     1      16.893  13.228  36.627  0.00  0.00    +0.000 OA
ENDROOT
BRANCH   1   8
ATOM      3  C   UNL     1      10.757  11.388  37.802  0.00  0.00    +0.000 C 
ATOM      4  C   UNL     1      12.170  11.625  37.373  0.00  0.00    +0.000 A 
ATOM      5  C   UNL     1      12.479  12.503  36.354  0.00  0.00    +0.000 A 
ATOM      6  C   UNL     1      13.773  12.737  35.942  0.00  0.00    +0.000 A 
ATOM      7  C   UNL     1      14.026  13.693  34.842  0.00  0.00    +0.000 C 
ATOM      8  C   UNL     1      14.827  12.088  36.548  0.00  0.00    +0.000 A 
ATOM      9  C   UNL     1      14.498  11.204  37.577  0.00  0.00    +0.000 A 
ATOM     10  C   UNL     1      13.212  10.967  37.992  0.00  0.00    +0.000 A 
ATOM     11  C   UNL     1      12.886  10.020  39.089  0.00  0.00    +0.000 C 
ENDBRANCH   1   8
BRANCH   1  12
ATOM     12  C   UNL     1      16.790  11.392  35.145  0.00  0.00    +0.000 C 
BRANCH  12  13
ATOM     13  O   UNL     1      15.873  10.728  34.342  0.00  0.00    +0.000 OA
BRANCH  13  14
ATOM     14  C   UNL     1      15.634  11.138  33.041  0.00  0.00    +0.000 A 
ATOM     15  C   UNL     1      16.323  12.190  32.521  0.00  0.00    +0.000 A 
ATOM     16  C   UNL     1      16.140  12.662  31.226  0.00  0.00    +0.000 A 
ATOM     17  C   UNL     1      15.200  12.003  30.450  0.00  0.00    +0.000 A 
ATOM     18  C   UNL     1      14.500  10.938  30.966  0.00  0.00    +0.000 A 
ATOM     19  C   UNL     1      14.710  10.505  32.248  0.00  0.00    +0.000 A 
ATOM     20  O   UNL     1      13.984   9.427  32.732  0.00  0.00    +0.000 OA
ENDBRANCH  13  14
ENDBRANCH  12  13
ENDBRANCH   1  12
TORSDOF 4
ENDMDL
MODEL 8
REMARK VINA RESULT:      -6.9     27.824     31.130
REMARK  Name = 
REMARK  4 active torsions:
REMARK  status: ('A' for Active; 'I' for Inactive)
REMARK    1  A    between atoms: C_6  and  C_7
REMARK    2  A    between atoms: C_7  and  C_9
REMARK    3  A    between atoms: C_9  and  O_10
REMARK    4  A    between atoms: O_10  and  C_11
REMARK                            x       y       z     vdW  Elec       q    Type
REMARK                         _______ _______ _______ _____ _____    ______ ____
ROOT
ATOM      1  C   UNL     1      32.205  21.183  11.792  0.00  0.00    +0.000 C 
ATOM      2  O   UNL     1      33.147  20.532  12.286  0.00  0.00    +0.000 OA
ENDROOT
BRANCH   1   8
ATOM      3  C   UNL     1      31.609  21.854   6.094  0.00  0.00    +0.000 C 
ATOM      4  C   UNL     1      31.764  21.680   7.570  0.00  0.00    +0.000 A 
ATOM      5  C   UNL     1      32.656  22.439   8.299  0.00  0.00    +0.000 A 
ATOM      6  C   UNL     1      32.816  22.297   9.661  0.00  0.00    +0.000 A 
ATOM      7  C   UNL     1      33.792  23.147  10.374  0.00  0.00    +0.000 C 
ATOM      8  C   UNL     1      32.072  21.368  10.357  0.00  0.00    +0.000 A 
ATOM      9  C   UNL     1      31.174  20.607   9.605  0.00  0.00    +0.000 A 
ATOM     10  C   UNL     1      31.010  20.746   8.250  0.00  0.00    +0.000 A 
ATOM     11  C   UNL     1      30.048  19.924   7.472  0.00  0.00    +0.000 C 
ENDBRANCH   1   8
BRANCH   1  12
ATOM     12  C   UNL     1      31.186  21.793  12.668  0.00  0.00    +0.000 C 
BRANCH  12  13
ATOM     13  O   UNL     1      30.453  22.825  12.098  0.00  0.00    +0.000 OA
BRANCH  13  14
ATOM     14  C   UNL     1      29.072  22.856  12.190  0.00  0.00    +0.000 A 
ATOM     15  C   UNL     1      28.314  22.221  11.256  0.00  0.00    +0.000 A 
ATOM     16  C   UNL     1      26.924  22.207  11.277  0.00  0.00    +0.000 A 
ATOM     17  C   UNL     1      26.309  22.883  12.318  0.00  0.00    +0.000 A 
ATOM     18  C   UNL     1      27.067  23.528  13.268  0.00  0.00    +0.000 A 
ATOM     19  C   UNL     1      28.436  23.518  13.210  0.00  0.00    +0.000 A 
ATOM     20  O   UNL     1      29.165  24.180  14.186  0.00  0.00    +0.000 OA
ENDBRANCH  13  14
ENDBRANCH  12  13
ENDBRANCH   1  12
TORSDOF 4
ENDMDL
MODEL 9
REMARK VINA RESULT:      -6.9     28.029     30.894
REMARK  Name = 
REMARK  4 active torsions:
REMARK  status: ('A' for Active; 'I' for Inactive)
REMARK    1  A    between atoms: C_6  and  C_7
REMARK    2  A    between atoms: C_7  and  C_9
REMARK    3  A    between atoms: C_9  and  O_10
REMARK    4  A    between atoms: O_10  and  C_11
REMARK                            x       y       z     vdW  Elec       q    Type
REMARK                         _______ _______ _______ _____ _____    ______ ____
ROOT
ATOM      1  C   UNL     1      30.033  21.100  10.296  0.00  0.00    +0.000 C 
ATOM      2  O   UNL     1      29.915  19.860  10.351  0.00  0.00    +0.000 OA
ENDROOT
BRANCH   1   8
ATOM      3  C   UNL     1      27.861  24.541  14.386  0.00  0.00    +0.000 C 
ATOM      4  C   UNL     1      28.424  23.650  13.326  0.00  0.00    +0.000 A 
ATOM      5  C   UNL     1      29.696  23.124  13.423  0.00  0.00    +0.000 A 
ATOM      6  C   UNL     1      30.236  22.300  12.459  0.00  0.00    +0.000 A 
ATOM      7  C   UNL     1      31.606  21.775  12.632  0.00  0.00    +0.000 C 
ATOM      8  C   UNL     1      29.506  21.966  11.338  0.00  0.00    +0.000 A 
ATOM      9  C   UNL     1      28.221  22.506  11.255  0.00  0.00    +0.000 A 
ATOM     10  C   UNL     1      27.678  23.326  12.212  0.00  0.00    +0.000 A 
ATOM     11  C   UNL     1      26.308  23.888  12.100  0.00  0.00    +0.000 C 
ENDBRANCH   1   8
BRANCH   1  12
ATOM     12  C   UNL     1      30.722  21.730   9.154  0.00  0.00    +0.000 C 
BRANCH  12  13
ATOM     13  O   UNL     1      31.946  21.171   8.816  0.00  0.00    +0.000 OA
BRANCH  13  14
ATOM     14  C   UNL     1      33.117  21.591   9.423  0.00  0.00    +0.000 A 
ATOM     15  C   UNL     1      33.411  22.918   9.490  0.00  0.00    +0.000 A 
ATOM     16  C   UNL     1      34.564  23.419  10.082  0.00  0.00    +0.000 A 
ATOM     17  C   UNL     1      35.440  22.492  10.624  0.00  0.00    +0.000 A 
ATOM     18  C   UNL     1      35.151  21.149  10.563  0.00  0.00    +0.000 A 
ATOM     19  C   UNL     1      34.003  20.696   9.970  0.00  0.00    +0.000 A 
ATOM     20  O   UNL     1      33.747  19.334   9.927  0.00  0.00    +0.000 OA
ENDBRANCH  13  14
ENDBRANCH  12  13
ENDBRANCH   1  12
TORSDOF 4
ENDMDL
MODEL 10
REMARK VINA RESULT:      -6.8      3.954      6.550
REMARK  Name = 
REMARK  4 active torsions:
REMARK  status: ('A' for Active; 'I' for Inactive)
REMARK    1  A    between atoms: C_6  and  C_7
REMARK    2  A    between atoms: C_7  and  C_9
REMARK    3  A    between atoms: C_9  and  O_10
REMARK    4  A    between atoms: O_10  and  C_11
REMARK                            x       y       z     vdW  Elec       q    Type
REMARK                         _______ _______ _______ _____ _____    ______ ____
ROOT
ATOM      1  C   UNL     1      19.344   9.596  37.471  0.00  0.00    +0.000 C 
ATOM      2  O   UNL     1      18.943   8.965  38.468  0.00  0.00    +0.000 OA
ENDROOT
BRANCH   1   8
ATOM      3  C   UNL     1      24.569  12.034  37.289  0.00  0.00    +0.000 C 
ATOM      4  C   UNL     1      23.215  11.402  37.336  0.00  0.00    +0.000 A 
ATOM      5  C   UNL     1      22.183  11.955  38.066  0.00  0.00    +0.000 A 
ATOM      6  C   UNL     1      20.927  11.391  38.125  0.00  0.00    +0.000 A 
ATOM      7  C   UNL     1      19.871  12.042  38.929  0.00  0.00    +0.000 C 
ATOM      8  C   UNL     1      20.653  10.227  37.439  0.00  0.00    +0.000 A 
ATOM      9  C   UNL     1      21.708   9.680  36.706  0.00  0.00    +0.000 A 
ATOM     10  C   UNL     1      22.959  10.237  36.644  0.00  0.00    +0.000 A 
ATOM     11  C   UNL     1      24.065   9.636  35.856  0.00  0.00    +0.000 C 
ENDBRANCH   1   8
BRANCH   1  12
ATOM     12  C   UNL     1      18.485   9.721  36.278  0.00  0.00    +0.000 C 
BRANCH  12  13
ATOM     13  O   UNL     1      17.762  10.902  36.187  0.00  0.00    +0.000 OA
BRANCH  13  14
ATOM     14  C   UNL     1      16.926  11.148  35.110  0.00  0.00    +0.000 A 
ATOM     15  C   UNL     1      17.198  10.596  33.897  0.00  0.00    +0.000 A 
ATOM     16  C   UNL     1      16.409  10.795  32.770  0.00  0.00    +0.000 A 
ATOM     17  C   UNL     1      15.295  11.603  32.924  0.00  0.00    +0.000 A 
ATOM     18  C   UNL     1      15.011  12.165  34.146  0.00  0.00    +0.000 A 
ATOM     19  C   UNL     1      15.814  11.944  35.233  0.00  0.00    +0.000 A 
ATOM     20  O   UNL     1      15.495  12.530  36.449  0.00  0.00    +0.000 OA
ENDBRANCH  13  14
ENDBRANCH  12  13
ENDBRANCH   1  12
TORSDOF 4
ENDMDL
