MODEL 1
REMARK VINA RESULT:      -8.3      0.000      0.000
REMARK  Name = 
REMARK  2 active torsions:
REMARK  status: ('A' for Active; 'I' for Inactive)
REMARK    1  A    between atoms: C_8  and  C_9
REMARK    2  A    between atoms: C_12  and  C_13
REMARK                            x       y       z     vdW  Elec       q    Type
REMARK                         _______ _______ _______ _____ _____    ______ ____
ROOT
ATOM      1  C   UNL     1      15.915  11.241  34.843  0.00  0.00    +0.000 C 
ATOM      2  N   UNL     1      16.689  10.314  34.436  0.00  0.00    +0.000 NA
ATOM      3  N   UNL     1      17.248   9.604  35.541  0.00  0.00    +0.000 NA
ATOM      4  C   UNL     1      17.468  10.948  36.432  0.00  0.00    +0.000 C 
ATOM      5  C   UNL     1      15.842  11.214  36.311  0.00  0.00    +0.000 C 
ENDROOT
BRANCH   1  13
ATOM      6  C   UNL     1      12.833  15.110  34.672  0.00  0.00    +0.000 C 
ATOM      7  C   UNL     1      13.633  14.101  33.902  0.00  0.00    +0.000 A 
ATOM      8  C   UNL     1      13.663  14.055  32.543  0.00  0.00    +0.000 A 
ATOM      9  C   UNL     1      14.430  13.089  31.909  0.00  0.00    +0.000 A 
ATOM     10  C   UNL     1      14.450  13.056  30.432  0.00  0.00    +0.000 C 
ATOM     11  C   UNL     1      15.170  12.164  32.657  0.00  0.00    +0.000 A 
ATOM     12  O   UNL     1      15.910  11.231  31.983  0.00  0.00    +0.000 OA
ATOM     13  C   UNL     1      15.141  12.208  34.040  0.00  0.00    +0.000 A 
ATOM     14  C   UNL     1      14.362  13.189  34.612  0.00  0.00    +0.000 A 
ENDBRANCH   1  13
BRANCH   4  15
ATOM     15  C   UNL     1      17.473  10.261  37.802  0.00  0.00    +0.000 A 
ATOM     16  C   UNL     1      16.614  10.309  38.804  0.00  0.00    +0.000 A 
ATOM     17  C   UNL     1      16.890   9.586  39.898  0.00  0.00    +0.000 A 
ATOM     18  C   UNL     1      18.037   8.845  39.915  0.00  0.00    +0.000 A 
ATOM     19  S   UNL     1      18.670   9.231  38.333  0.00  0.00    +0.000 S 
ENDBRANCH   4  15
TORSDOF 2
ENDMDL
MODEL 2
REMARK VINA RESULT:      -7.3      2.857      6.679
REMARK  Name = 
REMARK  2 active torsions:
REMARK  status: ('A' for Active; 'I' for Inactive)
REMARK    1  A    between atoms: C_8  and  C_9
REMARK    2  A    between atoms: C_12  and  C_13
REMARK                            x       y       z     vdW  Elec       q    Type
REMARK                         _______ _______ _______ _____ _____    ______ ____
ROOT
ATOM      1  C   UNL     1      16.481  10.858  35.326  0.00  0.00    +0.000 C 
ATOM      2  N   UNL     1      17.190  10.202  34.494  0.00  0.00    +0.000 NA
ATOM      3  N   UNL     1      17.053  10.741  33.180  0.00  0.00    +0.000 NA
ATOM      4  C   UNL     1      15.454  11.004  33.339  0.00  0.00    +0.000 C 
ATOM      5  C   UNL     1      15.809  11.967  34.634  0.00  0.00    +0.000 C 
ENDROOT
BRANCH   1  13
ATOM      6  C   UNL     1      13.567  10.775  39.325  0.00  0.00    +0.000 C 
ATOM      7  C   UNL     1      14.946  10.582  38.767  0.00  0.00    +0.000 A 
ATOM      8  C   UNL     1      16.014  10.224  39.528  0.00  0.00    +0.000 A 
ATOM      9  C   UNL     1      17.256  10.066  38.931  0.00  0.00    +0.000 A 
ATOM     10  C   UNL     1      18.404   9.675  39.776  0.00  0.00    +0.000 C 
ATOM     11  C   UNL     1      17.416  10.272  37.555  0.00  0.00    +0.000 A 
ATOM     12  O   UNL     1      18.662  10.103  37.016  0.00  0.00    +0.000 OA
ATOM     13  C   UNL     1      16.331  10.637  36.777  0.00  0.00    +0.000 A 
ATOM     14  C   UNL     1      15.125  10.778  37.426  0.00  0.00    +0.000 A 
ENDBRANCH   1  13
BRANCH   4  15
ATOM     15  C   UNL     1      15.343  12.103  32.277  0.00  0.00    +0.000 A 
ATOM     16  C   UNL     1      16.072  12.356  31.204  0.00  0.00    +0.000 A 
ATOM     17  C   UNL     1      15.727  13.407  30.449  0.00  0.00    +0.000 A 
ATOM     18  C   UNL     1      14.648  14.154  30.828  0.00  0.00    +0.000 A 
ATOM     19  S   UNL     1      14.176  13.293  32.273  0.00  0.00    +0.000 S 
ENDBRANCH   4  15
TORSDOF 2
ENDMDL
MODEL 3
REMARK VINA RESULT:      -7.2     21.634     23.881
REMARK  Name = 
REMARK  2 active torsions:
REMARK  status: ('A' for Active; 'I' for Inactive)
REMARK    1  A    between atoms: C_8  and  C_9
REMARK    2  A    between atoms: C_12  and  C_13
REMARK                            x       y       z     vdW  Elec       q    Type
REMARK                         _______ _______ _______ _____ _____    ______ ____
ROOT
ATOM      1  C   UNL     1      29.297  24.804  22.185  0.00  0.00    +0.000 C 
ATOM      2  N   UNL     1      29.489  24.359  21.006  0.00  0.00    +0.000 NA
ATOM      3  N   UNL     1      29.805  25.425  20.110  0.00  0.00    +0.000 NA
ATOM      4  C   UNL     1      28.718  26.442  20.769  0.00  0.00    +0.000 C 
ATOM      5  C   UNL     1      29.514  26.258  22.205  0.00  0.00    +0.000 C 
ENDROOT
BRANCH   1  13
ATOM      6  C   UNL     1      25.818  22.981  25.196  0.00  0.00    +0.000 C 
ATOM      7  C   UNL     1      27.282  23.135  24.910  0.00  0.00    +0.000 A 
ATOM      8  C   UNL     1      28.255  22.622  25.710  0.00  0.00    +0.000 A 
ATOM      9  C   UNL     1      29.587  22.811  25.374  0.00  0.00    +0.000 A 
ATOM     10  C   UNL     1      30.629  22.244  26.255  0.00  0.00    +0.000 C 
ATOM     11  C   UNL     1      29.935  23.525  24.220  0.00  0.00    +0.000 A 
ATOM     12  O   UNL     1      31.264  23.683  23.933  0.00  0.00    +0.000 OA
ATOM     13  C   UNL     1      28.948  24.050  23.404  0.00  0.00    +0.000 A 
ATOM     14  C   UNL     1      27.645  23.829  23.790  0.00  0.00    +0.000 A 
ENDBRANCH   1  13
BRANCH   4  15
ATOM     15  C   UNL     1      29.389  27.743  20.316  0.00  0.00    +0.000 A 
ATOM     16  C   UNL     1      30.177  28.007  19.288  0.00  0.00    +0.000 A 
ATOM     17  C   UNL     1      30.618  29.264  19.146  0.00  0.00    +0.000 A 
ATOM     18  C   UNL     1      30.232  30.197  20.066  0.00  0.00    +0.000 A 
ATOM     19  S   UNL     1      29.237  29.204  21.104  0.00  0.00    +0.000 S 
ENDBRANCH   4  15
TORSDOF 2
ENDMDL
MODEL 4
REMARK VINA RESULT:      -7.0      3.181      7.073
REMARK  Name = 
REMARK  2 active torsions:
REMARK  status: ('A' for Active; 'I' for Inactive)
REMARK    1  A    between atoms: C_8  and  C_9
REMARK    2  A    between atoms: C_12  and  C_13
REMARK                            x       y       z     vdW  Elec       q    Type
REMARK                         _______ _______ _______ _____ _____    ______ ____
ROOT
ATOM      1  C   UNL     1      16.460  11.132  37.094  0.00  0.00    +0.000 C 
ATOM      2  N   UNL     1      15.813  12.222  36.960  0.00  0.00    +0.000 NA
ATOM      3  N   UNL     1      15.431  12.417  35.598  0.00  0.00    +0.000 NA
ATOM      4  C   UNL     1      16.845  11.864  35.011  0.00  0.00    +0.000 C 
ATOM      5  C   UNL     1      16.541  10.444  35.797  0.00  0.00    +0.000 C 
ENDROOT
BRANCH   1  13
ATOM      6  C   UNL     1      15.785   8.830  41.422  0.00  0.00    +0.000 C 
ATOM      7  C   UNL     1      16.760   9.427  40.451  0.00  0.00    +0.000 A 
ATOM      8  C   UNL     1      18.104   9.449  40.664  0.00  0.00    +0.000 A 
ATOM      9  C   UNL     1      18.936  10.021  39.713  0.00  0.00    +0.000 A 
ATOM     10  C   UNL     1      20.393  10.034  39.962  0.00  0.00    +0.000 C 
ATOM     11  C   UNL     1      18.403  10.574  38.542  0.00  0.00    +0.000 A 
ATOM     12  O   UNL     1      19.269  11.126  37.636  0.00  0.00    +0.000 OA
ATOM     13  C   UNL     1      17.037  10.554  38.323  0.00  0.00    +0.000 A 
ATOM     14  C   UNL     1      16.263   9.973  39.302  0.00  0.00    +0.000 A 
ENDBRANCH   1  13
BRANCH   4  15
ATOM     15  C   UNL     1      16.323  11.461  33.628  0.00  0.00    +0.000 A 
ATOM     16  C   UNL     1      16.739  10.545  32.772  0.00  0.00    +0.000 A 
ATOM     17  C   UNL     1      16.070  10.419  31.618  0.00  0.00    +0.000 A 
ATOM     18  C   UNL     1      15.001  11.239  31.392  0.00  0.00    +0.000 A 
ATOM     19  S   UNL     1      15.013  12.165  32.874  0.00  0.00    +0.000 S 
ENDBRANCH   4  15
TORSDOF 2
ENDMDL
MODEL 5
REMARK VINA RESULT:      -6.9     21.302     23.538
REMARK  Name = 
REMARK  2 active torsions:
REMARK  status: ('A' for Active; 'I' for Inactive)
REMARK    1  A    between atoms: C_8  and  C_9
REMARK    2  A    between atoms: C_12  and  C_13
REMARK                            x       y       z     vdW  Elec       q    Type
REMARK                         _______ _______ _______ _____ _____    ______ ____
ROOT
ATOM      1  C   UNL     1      29.201  24.623  22.521  0.00  0.00    +0.000 C 
ATOM      2  N   UNL     1      29.406  24.064  21.394  0.00  0.00    +0.000 NA
ATOM      3  N   UNL     1      29.740  25.037  20.404  0.00  0.00    +0.000 NA
ATOM      4  C   UNL     1      28.652  26.119  20.946  0.00  0.00    +0.000 C 
ATOM      5  C   UNL     1      29.428  26.070  22.403  0.00  0.00    +0.000 C 
ENDROOT
BRANCH   1  13
ATOM      6  C   UNL     1      30.557  22.077  26.543  0.00  0.00    +0.000 C 
ATOM      7  C   UNL     1      29.445  22.747  25.791  0.00  0.00    +0.000 A 
ATOM      8  C   UNL     1      28.161  22.786  26.239  0.00  0.00    +0.000 A 
ATOM      9  C   UNL     1      27.193  23.427  25.481  0.00  0.00    +0.000 A 
ATOM     10  C   UNL     1      25.804  23.459  25.986  0.00  0.00    +0.000 C 
ATOM     11  C   UNL     1      27.527  24.030  24.262  0.00  0.00    +0.000 A 
ATOM     12  O   UNL     1      26.533  24.649  23.553  0.00  0.00    +0.000 OA
ATOM     13  C   UNL     1      28.832  23.992  23.803  0.00  0.00    +0.000 A 
ATOM     14  C   UNL     1      29.748  23.342  24.599  0.00  0.00    +0.000 A 
ENDBRANCH   1  13
BRANCH   4  15
ATOM     15  C   UNL     1      29.337  27.367  20.378  0.00  0.00    +0.000 A 
ATOM     16  C   UNL     1      29.374  28.615  20.811  0.00  0.00    +0.000 A 
ATOM     17  C   UNL     1      30.068  29.505  20.090  0.00  0.00    +0.000 A 
ATOM     18  C   UNL     1      30.695  29.076  18.955  0.00  0.00    +0.000 A 
ATOM     19  S   UNL     1      30.248  27.387  18.983  0.00  0.00    +0.000 S 
ENDBRANCH   4  15
TORSDOF 2
ENDMDL
MODEL 6
REMARK VINA RESULT:      -6.9      3.256      7.270
REMARK  Name = 
REMARK  2 active torsions:
REMARK  status: ('A' for Active; 'I' for Inactive)
REMARK    1  A    between atoms: C_8  and  C_9
REMARK    2  A    between atoms: C_12  and  C_13
REMARK                            x       y       z     vdW  Elec       q    Type
REMARK                         _______ _______ _______ _____ _____    ______ ____
ROOT
ATOM      1  C   UNL     1      16.491  11.078  36.991  0.00  0.00    +0.000 C 
ATOM      2  N   UNL     1      15.909  12.207  36.885  0.00  0.00    +0.000 NA
ATOM      3  N   UNL     1      15.508  12.442  35.535  0.00  0.00    +0.000 NA
ATOM      4  C   UNL     1      16.872  11.813  34.909  0.00  0.00    +0.000 C 
ATOM      5  C   UNL     1      16.500  10.403  35.686  0.00  0.00    +0.000 C 
ENDROOT
BRANCH   1  13
ATOM      6  C   UNL     1      20.431   9.267  39.376  0.00  0.00    +0.000 C 
ATOM      7  C   UNL     1      18.959   9.552  39.410  0.00  0.00    +0.000 A 
ATOM      8  C   UNL     1      18.168   9.260  40.478  0.00  0.00    +0.000 A 
ATOM      9  C   UNL     1      16.815   9.557  40.428  0.00  0.00    +0.000 A 
ATOM     10  C   UNL     1      15.974   9.233  41.599  0.00  0.00    +0.000 C 
ATOM     11  C   UNL     1      16.259  10.152  39.288  0.00  0.00    +0.000 A 
ATOM     12  O   UNL     1      14.918  10.425  39.290  0.00  0.00    +0.000 OA
ATOM     13  C   UNL     1      17.060  10.450  38.200  0.00  0.00    +0.000 A 
ATOM     14  C   UNL     1      18.395  10.133  38.309  0.00  0.00    +0.000 A 
ENDBRANCH   1  13
BRANCH   4  15
ATOM     15  C   UNL     1      16.294  11.460  33.534  0.00  0.00    +0.000 A 
ATOM     16  C   UNL     1      16.673  10.572  32.631  0.00  0.00    +0.000 A 
ATOM     17  C   UNL     1      15.959  10.489  31.500  0.00  0.00    +0.000 A 
ATOM     18  C   UNL     1      14.886  11.321  31.345  0.00  0.00    +0.000 A 
ATOM     19  S   UNL     1      14.960  12.194  32.857  0.00  0.00    +0.000 S 
ENDBRANCH   4  15
TORSDOF 2
ENDMDL
MODEL 7
REMARK VINA RESULT:      -6.8      3.296      6.858
REMARK  Name = 
REMARK  2 active torsions:
REMARK  status: ('A' for Active; 'I' for Inactive)
REMARK    1  A    between atoms: C_8  and  C_9
REMARK    2  A    between atoms: C_12  and  C_13
REMARK                            x       y       z     vdW  Elec       q    Type
REMARK                         _______ _______ _______ _____ _____    ______ ____
ROOT
ATOM      1  C   UNL     1      16.841  11.581  36.430  0.00  0.00    +0.000 C 
ATOM      2  N   UNL     1      15.611  11.697  36.742  0.00  0.00    +0.000 NA
ATOM      3  N   UNL     1      14.783  11.546  35.589  0.00  0.00    +0.000 NA
ATOM      4  C   UNL     1      15.787  12.390  34.626  0.00  0.00    +0.000 C 
ATOM      5  C   UNL     1      16.961  11.288  34.995  0.00  0.00    +0.000 C 
ENDROOT
BRANCH   1  13
ATOM      6  C   UNL     1      20.308  14.362  38.608  0.00  0.00    +0.000 C 
ATOM      7  C   UNL     1      19.741  12.989  38.401  0.00  0.00    +0.000 A 
ATOM      8  C   UNL     1      20.263  11.873  38.977  0.00  0.00    +0.000 A 
ATOM      9  C   UNL     1      19.677  10.640  38.733  0.00  0.00    +0.000 A 
ATOM     10  C   UNL     1      20.259   9.440  39.369  0.00  0.00    +0.000 C 
ATOM     11  C   UNL     1      18.556  10.538  37.899  0.00  0.00    +0.000 A 
ATOM     12  O   UNL     1      18.016   9.297  37.691  0.00  0.00    +0.000 OA
ATOM     13  C   UNL     1      18.022  11.671  37.311  0.00  0.00    +0.000 A 
ATOM     14  C   UNL     1      18.647  12.865  37.591  0.00  0.00    +0.000 A 
ENDBRANCH   1  13
BRANCH   4  15
ATOM     15  C   UNL     1      15.325  11.778  33.299  0.00  0.00    +0.000 A 
ATOM     16  C   UNL     1      15.237  10.521  32.903  0.00  0.00    +0.000 A 
ATOM     17  C   UNL     1      14.789  10.288  31.662  0.00  0.00    +0.000 A 
ATOM     18  C   UNL     1      14.451  11.356  30.881  0.00  0.00    +0.000 A 
ATOM     19  S   UNL     1      14.800  12.662  31.988  0.00  0.00    +0.000 S 
ENDBRANCH   4  15
TORSDOF 2
ENDMDL
MODEL 8
REMARK VINA RESULT:      -6.7     22.311     23.247
REMARK  Name = 
REMARK  2 active torsions:
REMARK  status: ('A' for Active; 'I' for Inactive)
REMARK    1  A    between atoms: C_8  and  C_9
REMARK    2  A    between atoms: C_12  and  C_13
REMARK                            x       y       z     vdW  Elec       q    Type
REMARK                         _______ _______ _______ _____ _____    ______ ____
ROOT
ATOM      1  C   UNL     1      21.241  -8.163  24.608  0.00  0.00    +0.000 C 
ATOM      2  N   UNL     1      21.080  -8.958  23.625  0.00  0.00    +0.000 NA
ATOM      3  N   UNL     1      22.311  -9.152  22.928  0.00  0.00    +0.000 NA
ATOM      4  C   UNL     1      22.753  -7.591  23.056  0.00  0.00    +0.000 C 
ATOM      5  C   UNL     1      22.654  -7.766  24.696  0.00  0.00    +0.000 C 
ENDROOT
BRANCH   1  13
ATOM      6  C   UNL     1      18.670  -4.421  26.578  0.00  0.00    +0.000 C 
ATOM      7  C   UNL     1      18.951  -5.895  26.578  0.00  0.00    +0.000 A 
ATOM      8  C   UNL     1      18.331  -6.771  27.414  0.00  0.00    +0.000 A 
ATOM      9  C   UNL     1      18.650  -8.119  27.349  0.00  0.00    +0.000 A 
ATOM     10  C   UNL     1      17.965  -9.054  28.265  0.00  0.00    +0.000 C 
ATOM     11  C   UNL     1      19.603  -8.581  26.432  0.00  0.00    +0.000 A 
ATOM     12  O   UNL     1      19.881  -9.921  26.409  0.00  0.00    +0.000 OA
ATOM     13  C   UNL     1      20.235  -7.693  25.580  0.00  0.00    +0.000 A 
ATOM     14  C   UNL     1      19.877  -6.368  25.692  0.00  0.00    +0.000 A 
ENDBRANCH   1  13
BRANCH   4  15
ATOM     15  C   UNL     1      24.262  -7.816  22.906  0.00  0.00    +0.000 A 
ATOM     16  C   UNL     1      25.294  -7.084  23.287  0.00  0.00    +0.000 A 
ATOM     17  C   UNL     1      26.521  -7.547  23.012  0.00  0.00    +0.000 A 
ATOM     18  C   UNL     1      26.635  -8.741  22.359  0.00  0.00    +0.000 A 
ATOM     19  S   UNL     1      24.947  -9.144  22.169  0.00  0.00    +0.000 S 
ENDBRANCH   4  15
TORSDOF 2
ENDMDL
MODEL 9
REMARK VINA RESULT:      -6.7     20.806     22.477
REMARK  Name = 
REMARK  2 active torsions:
REMARK  status: ('A' for Active; 'I' for Inactive)
REMARK    1  A    between atoms: C_8  and  C_9
REMARK    2  A    between atoms: C_12  and  C_13
REMARK                            x       y       z     vdW  Elec       q    Type
REMARK                         _______ _______ _______ _____ _____    ______ ____
ROOT
ATOM      1  C   UNL     1      27.840  24.996  22.412  0.00  0.00    +0.000 C 
ATOM      2  N   UNL     1      27.052  24.013  22.216  0.00  0.00    +0.000 NA
ATOM      3  N   UNL     1      27.104  23.100  23.312  0.00  0.00    +0.000 NA
ATOM      4  C   UNL     1      28.716  23.236  23.488  0.00  0.00    +0.000 C 
ATOM      5  C   UNL     1      28.487  24.855  23.724  0.00  0.00    +0.000 C 
ENDROOT
BRANCH   1  13
ATOM      6  C   UNL     1      26.701  29.616  21.051  0.00  0.00    +0.000 C 
ATOM      7  C   UNL     1      27.576  28.417  20.832  0.00  0.00    +0.000 A 
ATOM      8  C   UNL     1      28.553  28.371  19.887  0.00  0.00    +0.000 A 
ATOM      9  C   UNL     1      29.317  27.222  19.750  0.00  0.00    +0.000 A 
ATOM     10  C   UNL     1      30.375  27.193  18.718  0.00  0.00    +0.000 C 
ATOM     11  C   UNL     1      29.088  26.113  20.574  0.00  0.00    +0.000 A 
ATOM     12  O   UNL     1      29.870  25.003  20.397  0.00  0.00    +0.000 OA
ATOM     13  C   UNL     1      28.094  26.155  21.535  0.00  0.00    +0.000 A 
ATOM     14  C   UNL     1      27.369  27.323  21.624  0.00  0.00    +0.000 A 
ENDBRANCH   1  13
BRANCH   4  15
ATOM     15  C   UNL     1      28.776  22.810  24.959  0.00  0.00    +0.000 A 
ATOM     16  C   UNL     1      29.790  22.430  25.716  0.00  0.00    +0.000 A 
ATOM     17  C   UNL     1      29.531  22.111  26.991  0.00  0.00    +0.000 A 
ATOM     18  C   UNL     1      28.242  22.197  27.435  0.00  0.00    +0.000 A 
ATOM     19  S   UNL     1      27.455  22.740  25.973  0.00  0.00    +0.000 S 
ENDBRANCH   4  15
TORSDOF 2
ENDMDL
MODEL 10
REMARK VINA RESULT:      -6.6      3.258      4.698
REMARK  Name = 
REMARK  2 active torsions:
REMARK  status: ('A' for Active; 'I' for Inactive)
REMARK    1  A    between atoms: C_8  and  C_9
REMARK    2  A    between atoms: C_12  and  C_13
REMARK                            x       y       z     vdW  Elec       q    Type
REMARK                         _______ _______ _______ _____ _____    ______ ____
ROOT
ATOM      1  C   UNL     1      17.632  10.485  37.952  0.00  0.00    +0.000 C 
ATOM      2  N   UNL     1      17.988   9.404  38.526  0.00  0.00    +0.000 NA
ATOM      3  N   UNL     1      19.411   9.322  38.605  0.00  0.00    +0.000 NA
ATOM      4  C   UNL     1      19.636   9.935  37.115  0.00  0.00    +0.000 C 
ATOM      5  C   UNL     1      18.821  11.281  37.617  0.00  0.00    +0.000 C 
ENDROOT
BRANCH   1  13
ATOM      6  C   UNL     1      12.846  10.656  39.200  0.00  0.00    +0.000 C 
ATOM      7  C   UNL     1      13.911  11.078  38.232  0.00  0.00    +0.000 A 
ATOM      8  C   UNL     1      13.663  11.855  37.143  0.00  0.00    +0.000 A 
ATOM      9  C   UNL     1      14.707  12.200  36.298  0.00  0.00    +0.000 A 
ATOM     10  C   UNL     1      14.417  13.046  35.122  0.00  0.00    +0.000 C 
ATOM     11  C   UNL     1      16.009  11.754  36.558  0.00  0.00    +0.000 A 
ATOM     12  O   UNL     1      17.003  12.123  35.692  0.00  0.00    +0.000 OA
ATOM     13  C   UNL     1      16.265  10.963  37.664  0.00  0.00    +0.000 A 
ATOM     14  C   UNL     1      15.189  10.654  38.465  0.00  0.00    +0.000 A 
ENDBRANCH   1  13
BRANCH   4  15
ATOM     15  C   UNL     1      21.062  10.448  37.342  0.00  0.00    +0.000 A 
ATOM     16  C   UNL     1      22.200  10.159  36.737  0.00  0.00    +0.000 A 
ATOM     17  C   UNL     1      23.309  10.779  37.163  0.00  0.00    +0.000 A 
ATOM     18  C   UNL     1      23.201  11.671  38.192  0.00  0.00    +0.000 A 
ATOM     19  S   UNL     1      21.485  11.570  38.501  0.00  0.00    +0.000 S 
ENDBRANCH   4  15
TORSDOF 2
ENDMDL
