MODEL 1
REMARK VINA RESULT:      -7.5      0.000      0.000
REMARK  Name = 
REMARK  0 active torsions:
REMARK  status: ('A' for Active; 'I' for Inactive)
REMARK                            x       y       z     vdW  Elec       q    Type
REMARK                         _______ _______ _______ _____ _____    ______ ____
ROOT
ATOM      1  C   UNL     1      26.974  21.822  30.341  0.00  0.00    +0.000 C 
ATOM      2  C   UNL     1      26.675  22.797  29.243  0.00  0.00    +0.000 A 
ATOM      3  C   UNL     1      27.052  22.476  27.982  0.00  0.00    +0.000 A 
ATOM      4  C   UNL     1      26.769  23.398  26.939  0.00  0.00    +0.000 A 
ATOM      5  C   UNL     1      26.167  24.524  27.152  0.00  0.00    +0.000 A 
ATOM      6  C   UNL     1      25.783  24.855  28.420  0.00  0.00    +0.000 A 
ATOM      7  C   UNL     1      26.030  23.991  29.505  0.00  0.00    +0.000 A 
ATOM      8  O   UNL     1      25.667  24.275  30.795  0.00  0.00    +0.000 OA
ATOM      9  C   UNL     1      25.875  25.451  26.075  0.00  0.00    +0.000 C 
ATOM     10  C   UNL     1      25.507  24.491  24.970  0.00  0.00    +0.000 C 
ATOM     11  C   UNL     1      26.796  23.785  24.403  0.00  0.00    +0.000 C 
ATOM     12  C   UNL     1      27.855  25.088  24.620  0.00  0.00    +0.000 C 
ATOM     13  C   UNL     1      27.346  26.010  23.414  0.00  0.00    +0.000 C 
ATOM     14  C   UNL     1      27.153  25.032  22.424  0.00  0.00    +0.000 C 
ATOM     15  C   UNL     1      28.729  24.444  22.234  0.00  0.00    +0.000 C 
ATOM     16  O   UNL     1      28.245  22.975  22.202  0.00  0.00    +0.000 OA
ATOM     17  C   UNL     1      29.103  24.484  23.824  0.00  0.00    +0.000 C 
ATOM     18  C   UNL     1      30.209  25.466  23.985  0.00  0.00    +0.000 C 
ATOM     19  C   UNL     1      29.287  23.155  24.367  0.00  0.00    +0.000 C 
ATOM     20  C   UNL     1      28.873  23.278  25.827  0.00  0.00    +0.000 C 
ATOM     21  C   UNL     1      27.327  22.768  25.602  0.00  0.00    +0.000 C 
ENDROOT
TORSDOF 0
ENDMDL
MODEL 2
REMARK VINA RESULT:      -7.4      1.845      6.085
REMARK  Name = 
REMARK  0 active torsions:
REMARK  status: ('A' for Active; 'I' for Inactive)
REMARK                            x       y       z     vdW  Elec       q    Type
REMARK                         _______ _______ _______ _____ _____    ______ ____
ROOT
ATOM      1  C   UNL     1      26.764  23.808  21.777  0.00  0.00    +0.000 C 
ATOM      2  C   UNL     1      27.769  23.646  22.876  0.00  0.00    +0.000 A 
ATOM      3  C   UNL     1      27.325  23.267  24.099  0.00  0.00    +0.000 A 
ATOM      4  C   UNL     1      28.276  23.112  25.143  0.00  0.00    +0.000 A 
ATOM      5  C   UNL     1      29.542  23.317  24.966  0.00  0.00    +0.000 A 
ATOM      6  C   UNL     1      29.998  23.698  23.736  0.00  0.00    +0.000 A 
ATOM      7  C   UNL     1      29.115  23.873  22.652  0.00  0.00    +0.000 A 
ATOM      8  O   UNL     1      29.519  24.254  21.401  0.00  0.00    +0.000 OA
ATOM      9  C   UNL     1      30.503  23.145  26.038  0.00  0.00    +0.000 C 
ATOM     10  C   UNL     1      29.932  21.932  26.734  0.00  0.00    +0.000 C 
ATOM     11  C   UNL     1      28.647  22.325  27.557  0.00  0.00    +0.000 C 
ATOM     12  C   UNL     1      29.145  23.886  27.982  0.00  0.00    +0.000 C 
ATOM     13  C   UNL     1      30.225  23.494  29.097  0.00  0.00    +0.000 C 
ATOM     14  C   UNL     1      29.539  22.452  29.744  0.00  0.00    +0.000 C 
ATOM     15  C   UNL     1      28.186  23.274  30.343  0.00  0.00    +0.000 C 
ATOM     16  O   UNL     1      27.228  22.138  29.912  0.00  0.00    +0.000 OA
ATOM     17  C   UNL     1      27.975  24.209  29.020  0.00  0.00    +0.000 C 
ATOM     18  C   UNL     1      28.181  25.619  29.449  0.00  0.00    +0.000 C 
ATOM     19  C   UNL     1      26.751  23.882  28.320  0.00  0.00    +0.000 C 
ATOM     20  C   UNL     1      27.045  24.210  26.863  0.00  0.00    +0.000 C 
ATOM     21  C   UNL     1      27.476  22.682  26.436  0.00  0.00    +0.000 C 
ENDROOT
TORSDOF 0
ENDMDL
MODEL 3
REMARK VINA RESULT:      -7.3      2.213      2.895
REMARK  Name = 
REMARK  0 active torsions:
REMARK  status: ('A' for Active; 'I' for Inactive)
REMARK                            x       y       z     vdW  Elec       q    Type
REMARK                         _______ _______ _______ _____ _____    ______ ____
ROOT
ATOM      1  C   UNL     1      32.416  21.806  28.960  0.00  0.00    +0.000 C 
ATOM      2  C   UNL     1      31.093  22.301  28.462  0.00  0.00    +0.000 A 
ATOM      3  C   UNL     1      30.855  22.264  27.129  0.00  0.00    +0.000 A 
ATOM      4  C   UNL     1      29.601  22.732  26.654  0.00  0.00    +0.000 A 
ATOM      5  C   UNL     1      28.685  23.188  27.446  0.00  0.00    +0.000 A 
ATOM      6  C   UNL     1      28.916  23.229  28.792  0.00  0.00    +0.000 A 
ATOM      7  C   UNL     1      30.135  22.782  29.337  0.00  0.00    +0.000 A 
ATOM      8  O   UNL     1      30.418  22.802  30.676  0.00  0.00    +0.000 OA
ATOM      9  C   UNL     1      27.404  23.653  26.949  0.00  0.00    +0.000 C 
ATOM     10  C   UNL     1      27.149  22.650  25.850  0.00  0.00    +0.000 C 
ATOM     11  C   UNL     1      28.069  22.949  24.607  0.00  0.00    +0.000 C 
ATOM     12  C   UNL     1      28.096  24.634  24.774  0.00  0.00    +0.000 C 
ATOM     13  C   UNL     1      26.615  24.947  24.254  0.00  0.00    +0.000 C 
ATOM     14  C   UNL     1      26.541  24.049  23.175  0.00  0.00    +0.000 C 
ATOM     15  C   UNL     1      27.769  24.641  22.173  0.00  0.00    +0.000 C 
ATOM     16  O   UNL     1      28.296  23.218  21.873  0.00  0.00    +0.000 OA
ATOM     17  C   UNL     1      28.812  24.975  23.387  0.00  0.00    +0.000 C 
ATOM     18  C   UNL     1      29.024  26.447  23.383  0.00  0.00    +0.000 C 
ATOM     19  C   UNL     1      29.978  24.118  23.345  0.00  0.00    +0.000 C 
ATOM     20  C   UNL     1      30.410  23.990  24.799  0.00  0.00    +0.000 C 
ATOM     21  C   UNL     1      29.616  22.579  25.082  0.00  0.00    +0.000 C 
ENDROOT
TORSDOF 0
ENDMDL
MODEL 4
REMARK VINA RESULT:      -6.9      2.975      5.466
REMARK  Name = 
REMARK  0 active torsions:
REMARK  status: ('A' for Active; 'I' for Inactive)
REMARK                            x       y       z     vdW  Elec       q    Type
REMARK                         _______ _______ _______ _____ _____    ______ ____
ROOT
ATOM      1  C   UNL     1      35.047  24.959  24.560  0.00  0.00    +0.000 C 
ATOM      2  C   UNL     1      33.796  24.544  25.273  0.00  0.00    +0.000 A 
ATOM      3  C   UNL     1      32.707  24.235  24.528  0.00  0.00    +0.000 A 
ATOM      4  C   UNL     1      31.520  23.841  25.202  0.00  0.00    +0.000 A 
ATOM      5  C   UNL     1      31.446  23.767  26.492  0.00  0.00    +0.000 A 
ATOM      6  C   UNL     1      32.538  24.077  27.250  0.00  0.00    +0.000 A 
ATOM      7  C   UNL     1      33.751  24.476  26.654  0.00  0.00    +0.000 A 
ATOM      8  O   UNL     1      34.874  24.798  27.366  0.00  0.00    +0.000 OA
ATOM      9  C   UNL     1      30.230  23.354  27.166  0.00  0.00    +0.000 C 
ATOM     10  C   UNL     1      29.742  22.276  26.227  0.00  0.00    +0.000 C 
ATOM     11  C   UNL     1      29.144  22.916  24.918  0.00  0.00    +0.000 C 
ATOM     12  C   UNL     1      28.521  24.315  25.640  0.00  0.00    +0.000 C 
ATOM     13  C   UNL     1      27.257  23.659  26.373  0.00  0.00    +0.000 C 
ATOM     14  C   UNL     1      26.826  22.774  25.371  0.00  0.00    +0.000 C 
ATOM     15  C   UNL     1      26.429  23.854  24.130  0.00  0.00    +0.000 C 
ATOM     16  O   UNL     1      27.111  22.972  23.058  0.00  0.00    +0.000 OA
ATOM     17  C   UNL     1      27.695  24.855  24.383  0.00  0.00    +0.000 C 
ATOM     18  C   UNL     1      27.133  26.170  24.793  0.00  0.00    +0.000 C 
ATOM     19  C   UNL     1      28.632  24.828  23.280  0.00  0.00    +0.000 C 
ATOM     20  C   UNL     1      29.981  25.128  23.916  0.00  0.00    +0.000 C 
ATOM     21  C   UNL     1      30.433  23.557  24.092  0.00  0.00    +0.000 C 
ENDROOT
TORSDOF 0
ENDMDL
MODEL 5
REMARK VINA RESULT:      -6.9      1.561      3.082
REMARK  Name = 
REMARK  0 active torsions:
REMARK  status: ('A' for Active; 'I' for Inactive)
REMARK                            x       y       z     vdW  Elec       q    Type
REMARK                         _______ _______ _______ _____ _____    ______ ____
ROOT
ATOM      1  C   UNL     1      25.311  25.229  30.402  0.00  0.00    +0.000 C 
ATOM      2  C   UNL     1      26.288  24.437  29.588  0.00  0.00    +0.000 A 
ATOM      3  C   UNL     1      26.941  25.065  28.580  0.00  0.00    +0.000 A 
ATOM      4  C   UNL     1      27.868  24.316  27.807  0.00  0.00    +0.000 A 
ATOM      5  C   UNL     1      28.110  23.065  28.033  0.00  0.00    +0.000 A 
ATOM      6  C   UNL     1      27.457  22.424  29.047  0.00  0.00    +0.000 A 
ATOM      7  C   UNL     1      26.523  23.100  29.856  0.00  0.00    +0.000 A 
ATOM      8  O   UNL     1      25.842  22.506  30.884  0.00  0.00    +0.000 OA
ATOM      9  C   UNL     1      29.067  22.315  27.243  0.00  0.00    +0.000 C 
ATOM     10  C   UNL     1      30.138  23.359  27.035  0.00  0.00    +0.000 C 
ATOM     11  C   UNL     1      29.666  24.430  25.980  0.00  0.00    +0.000 C 
ATOM     12  C   UNL     1      28.747  23.380  25.021  0.00  0.00    +0.000 C 
ATOM     13  C   UNL     1      29.949  22.611  24.294  0.00  0.00    +0.000 C 
ATOM     14  C   UNL     1      30.815  23.690  24.049  0.00  0.00    +0.000 C 
ATOM     15  C   UNL     1      29.870  24.639  23.015  0.00  0.00    +0.000 C 
ATOM     16  O   UNL     1      30.259  25.942  23.754  0.00  0.00    +0.000 OA
ATOM     17  C   UNL     1      28.466  24.385  23.812  0.00  0.00    +0.000 C 
ATOM     18  C   UNL     1      27.562  23.664  22.876  0.00  0.00    +0.000 C 
ATOM     19  C   UNL     1      27.975  25.595  24.436  0.00  0.00    +0.000 C 
ATOM     20  C   UNL     1      27.210  25.111  25.659  0.00  0.00    +0.000 C 
ATOM     21  C   UNL     1      28.455  25.295  26.715  0.00  0.00    +0.000 C 
ENDROOT
TORSDOF 0
ENDMDL
MODEL 6
REMARK VINA RESULT:      -6.6      1.549      6.016
REMARK  Name = 
REMARK  0 active torsions:
REMARK  status: ('A' for Active; 'I' for Inactive)
REMARK                            x       y       z     vdW  Elec       q    Type
REMARK                         _______ _______ _______ _____ _____    ______ ____
ROOT
ATOM      1  C   UNL     1      28.221  26.736  21.153  0.00  0.00    +0.000 C 
ATOM      2  C   UNL     1      28.215  25.670  22.206  0.00  0.00    +0.000 A 
ATOM      3  C   UNL     1      27.473  25.876  23.321  0.00  0.00    +0.000 A 
ATOM      4  C   UNL     1      27.465  24.867  24.321  0.00  0.00    +0.000 A 
ATOM      5  C   UNL     1      28.135  23.766  24.202  0.00  0.00    +0.000 A 
ATOM      6  C   UNL     1      28.885  23.550  23.081  0.00  0.00    +0.000 A 
ATOM      7  C   UNL     1      28.943  24.505  22.047  0.00  0.00    +0.000 A 
ATOM      8  O   UNL     1      29.678  24.339  20.904  0.00  0.00    +0.000 OA
ATOM      9  C   UNL     1      28.110  22.739  25.226  0.00  0.00    +0.000 C 
ATOM     10  C   UNL     1      26.663  22.807  25.655  0.00  0.00    +0.000 C 
ATOM     11  C   UNL     1      26.407  24.094  26.527  0.00  0.00    +0.000 C 
ATOM     12  C   UNL     1      27.929  24.145  27.267  0.00  0.00    +0.000 C 
ATOM     13  C   UNL     1      27.736  22.929  28.289  0.00  0.00    +0.000 C 
ATOM     14  C   UNL     1      26.414  23.165  28.703  0.00  0.00    +0.000 C 
ATOM     15  C   UNL     1      26.569  24.679  29.443  0.00  0.00    +0.000 C 
ATOM     16  O   UNL     1      25.275  25.206  28.780  0.00  0.00    +0.000 OA
ATOM     17  C   UNL     1      27.608  25.287  28.337  0.00  0.00    +0.000 C 
ATOM     18  C   UNL     1      28.886  25.558  29.047  0.00  0.00    +0.000 C 
ATOM     19  C   UNL     1      27.011  26.361  27.572  0.00  0.00    +0.000 C 
ATOM     20  C   UNL     1      27.698  26.292  26.216  0.00  0.00    +0.000 C 
ATOM     21  C   UNL     1      26.537  25.383  25.491  0.00  0.00    +0.000 C 
ENDROOT
TORSDOF 0
ENDMDL
MODEL 7
REMARK VINA RESULT:      -6.6     20.880     22.380
REMARK  Name = 
REMARK  0 active torsions:
REMARK  status: ('A' for Active; 'I' for Inactive)
REMARK                            x       y       z     vdW  Elec       q    Type
REMARK                         _______ _______ _______ _____ _____    ______ ____
ROOT
ATOM      1  C   UNL     1      23.467   0.262  14.779  0.00  0.00    +0.000 C 
ATOM      2  C   UNL     1      23.904   1.207  15.857  0.00  0.00    +0.000 A 
ATOM      3  C   UNL     1      24.551   2.340  15.492  0.00  0.00    +0.000 A 
ATOM      4  C   UNL     1      24.966   3.238  16.512  0.00  0.00    +0.000 A 
ATOM      5  C   UNL     1      24.746   3.012  17.767  0.00  0.00    +0.000 A 
ATOM      6  C   UNL     1      24.094   1.873  18.144  0.00  0.00    +0.000 A 
ATOM      7  C   UNL     1      23.652   0.935  17.190  0.00  0.00    +0.000 A 
ATOM      8  O   UNL     1      22.995  -0.221  17.514  0.00  0.00    +0.000 OA
ATOM      9  C   UNL     1      25.166   3.943  18.798  0.00  0.00    +0.000 C 
ATOM     10  C   UNL     1      24.890   5.261  18.114  0.00  0.00    +0.000 C 
ATOM     11  C   UNL     1      25.974   5.544  17.008  0.00  0.00    +0.000 C 
ATOM     12  C   UNL     1      27.273   4.799  17.799  0.00  0.00    +0.000 C 
ATOM     13  C   UNL     1      27.543   5.915  18.913  0.00  0.00    +0.000 C 
ATOM     14  C   UNL     1      27.376   7.077  18.141  0.00  0.00    +0.000 C 
ATOM     15  C   UNL     1      28.626   6.902  17.014  0.00  0.00    +0.000 C 
ATOM     16  O   UNL     1      27.715   7.335  15.841  0.00  0.00    +0.000 OA
ATOM     17  C   UNL     1      28.433   5.291  16.816  0.00  0.00    +0.000 C 
ATOM     18  C   UNL     1      29.683   4.642  17.296  0.00  0.00    +0.000 C 
ATOM     19  C   UNL     1      27.962   4.964  15.487  0.00  0.00    +0.000 C 
ATOM     20  C   UNL     1      27.149   3.691  15.671  0.00  0.00    +0.000 C 
ATOM     21  C   UNL     1      25.693   4.444  15.797  0.00  0.00    +0.000 C 
ENDROOT
TORSDOF 0
ENDMDL
MODEL 8
REMARK VINA RESULT:      -6.6      3.211      4.724
REMARK  Name = 
REMARK  0 active torsions:
REMARK  status: ('A' for Active; 'I' for Inactive)
REMARK                            x       y       z     vdW  Elec       q    Type
REMARK                         _______ _______ _______ _____ _____    ______ ____
ROOT
ATOM      1  C   UNL     1      34.418  24.593  28.387  0.00  0.00    +0.000 C 
ATOM      2  C   UNL     1      33.182  23.980  27.803  0.00  0.00    +0.000 A 
ATOM      3  C   UNL     1      32.812  24.351  26.553  0.00  0.00    +0.000 A 
ATOM      4  C   UNL     1      31.641  23.771  25.996  0.00  0.00    +0.000 A 
ATOM      5  C   UNL     1      30.922  22.907  26.637  0.00  0.00    +0.000 A 
ATOM      6  C   UNL     1      31.287  22.528  27.897  0.00  0.00    +0.000 A 
ATOM      7  C   UNL     1      32.435  23.059  28.516  0.00  0.00    +0.000 A 
ATOM      8  O   UNL     1      32.845  22.714  29.775  0.00  0.00    +0.000 OA
ATOM      9  C   UNL     1      29.733  22.315  26.053  0.00  0.00    +0.000 C 
ATOM     10  C   UNL     1      30.180  22.147  24.620  0.00  0.00    +0.000 C 
ATOM     11  C   UNL     1      30.203  23.540  23.884  0.00  0.00    +0.000 C 
ATOM     12  C   UNL     1      28.894  24.228  24.708  0.00  0.00    +0.000 C 
ATOM     13  C   UNL     1      27.712  23.421  23.992  0.00  0.00    +0.000 C 
ATOM     14  C   UNL     1      28.177  23.433  22.666  0.00  0.00    +0.000 C 
ATOM     15  C   UNL     1      28.185  25.093  22.338  0.00  0.00    +0.000 C 
ATOM     16  O   UNL     1      29.565  25.014  21.644  0.00  0.00    +0.000 OA
ATOM     17  C   UNL     1      28.740  25.540  23.809  0.00  0.00    +0.000 C 
ATOM     18  C   UNL     1      27.671  26.354  24.446  0.00  0.00    +0.000 C 
ATOM     19  C   UNL     1      30.072  26.102  23.734  0.00  0.00    +0.000 C 
ATOM     20  C   UNL     1      30.707  25.760  25.074  0.00  0.00    +0.000 C 
ATOM     21  C   UNL     1      31.458  24.393  24.556  0.00  0.00    +0.000 C 
ENDROOT
TORSDOF 0
ENDMDL
MODEL 9
REMARK VINA RESULT:      -6.4     16.778     19.218
REMARK  Name = 
REMARK  0 active torsions:
REMARK  status: ('A' for Active; 'I' for Inactive)
REMARK                            x       y       z     vdW  Elec       q    Type
REMARK                         _______ _______ _______ _____ _____    ______ ____
ROOT
ATOM      1  C   UNL     1      17.214   9.923  39.023  0.00  0.00    +0.000 C 
ATOM      2  C   UNL     1      18.517   9.911  38.285  0.00  0.00    +0.000 A 
ATOM      3  C   UNL     1      19.654  10.127  38.990  0.00  0.00    +0.000 A 
ATOM      4  C   UNL     1      20.892  10.116  38.293  0.00  0.00    +0.000 A 
ATOM      5  C   UNL     1      20.969   9.905  37.019  0.00  0.00    +0.000 A 
ATOM      6  C   UNL     1      19.829   9.685  36.301  0.00  0.00    +0.000 A 
ATOM      7  C   UNL     1      18.564   9.682  36.922  0.00  0.00    +0.000 A 
ATOM      8  O   UNL     1      17.391   9.468  36.250  0.00  0.00    +0.000 OA
ATOM      9  C   UNL     1      22.241   9.886  36.321  0.00  0.00    +0.000 C 
ATOM     10  C   UNL     1      23.112   9.199  37.347  0.00  0.00    +0.000 C 
ATOM     11  C   UNL     1      23.446  10.182  38.531  0.00  0.00    +0.000 C 
ATOM     12  C   UNL     1      23.487  11.604  37.612  0.00  0.00    +0.000 C 
ATOM     13  C   UNL     1      24.893  11.372  36.882  0.00  0.00    +0.000 C 
ATOM     14  C   UNL     1      25.640  10.850  37.952  0.00  0.00    +0.000 C 
ATOM     15  C   UNL     1      25.622  12.155  39.029  0.00  0.00    +0.000 C 
ATOM     16  O   UNL     1      25.337  11.233  40.239  0.00  0.00    +0.000 OA
ATOM     17  C   UNL     1      24.069  12.573  38.742  0.00  0.00    +0.000 C 
ATOM     18  C   UNL     1      24.089  13.935  38.146  0.00  0.00    +0.000 C 
ATOM     19  C   UNL     1      23.228  12.347  39.899  0.00  0.00    +0.000 C 
ATOM     20  C   UNL     1      21.855  12.039  39.319  0.00  0.00    +0.000 C 
ATOM     21  C   UNL     1      22.023  10.405  39.357  0.00  0.00    +0.000 C 
ENDROOT
TORSDOF 0
ENDMDL
MODEL 10
REMARK VINA RESULT:      -6.4      2.322      6.309
REMARK  Name = 
REMARK  0 active torsions:
REMARK  status: ('A' for Active; 'I' for Inactive)
REMARK                            x       y       z     vdW  Elec       q    Type
REMARK                         _______ _______ _______ _____ _____    ______ ____
ROOT
ATOM      1  C   UNL     1      29.046  28.201  21.027  0.00  0.00    +0.000 C 
ATOM      2  C   UNL     1      29.063  26.838  21.648  0.00  0.00    +0.000 A 
ATOM      3  C   UNL     1      28.696  26.722  22.948  0.00  0.00    +0.000 A 
ATOM      4  C   UNL     1      28.710  25.431  23.540  0.00  0.00    +0.000 A 
ATOM      5  C   UNL     1      29.058  24.370  22.885  0.00  0.00    +0.000 A 
ATOM      6  C   UNL     1      29.429  24.478  21.575  0.00  0.00    +0.000 A 
ATOM      7  C   UNL     1      29.440  25.724  20.919  0.00  0.00    +0.000 A 
ATOM      8  O   UNL     1      29.803  25.888  19.609  0.00  0.00    +0.000 OA
ATOM      9  C   UNL     1      29.058  23.056  23.499  0.00  0.00    +0.000 C 
ATOM     10  C   UNL     1      27.822  23.150  24.362  0.00  0.00    +0.000 C 
ATOM     11  C   UNL     1      28.097  24.058  25.619  0.00  0.00    +0.000 C 
ATOM     12  C   UNL     1      29.727  23.645  25.818  0.00  0.00    +0.000 C 
ATOM     13  C   UNL     1      29.526  22.177  26.426  0.00  0.00    +0.000 C 
ATOM     14  C   UNL     1      28.443  22.417  27.288  0.00  0.00    +0.000 C 
ATOM     15  C   UNL     1      29.123  23.530  28.366  0.00  0.00    +0.000 C 
ATOM     16  O   UNL     1      27.859  24.422  28.341  0.00  0.00    +0.000 OA
ATOM     17  C   UNL     1      29.958  24.356  27.230  0.00  0.00    +0.000 C 
ATOM     18  C   UNL     1      31.402  24.188  27.545  0.00  0.00    +0.000 C 
ATOM     19  C   UNL     1      29.450  25.701  27.060  0.00  0.00    +0.000 C 
ATOM     20  C   UNL     1      29.736  26.036  25.604  0.00  0.00    +0.000 C 
ATOM     21  C   UNL     1      28.253  25.606  25.042  0.00  0.00    +0.000 C 
ENDROOT
TORSDOF 0
ENDMDL
