MODEL 1
REMARK VINA RESULT:      -5.8      0.000      0.000
REMARK  Name = 
REMARK  6 active torsions:
REMARK  status: ('A' for Active; 'I' for Inactive)
REMARK    1  A    between atoms: O_2  and  C_3
REMARK    2  A    between atoms: C_3  and  C_5
REMARK    3  A    between atoms: C_8  and  N_9
REMARK    4  A    between atoms: N_9  and  C_10
REMARK    5  A    between atoms: C_10  and  N_12
REMARK    6  A    between atoms: C_13  and  C_15
REMARK                            x       y       z     vdW  Elec       q    Type
REMARK                         _______ _______ _______ _____ _____    ______ ____
ROOT
ATOM      1  C   UNL     1      33.266  -0.000  34.443  0.00  0.00    +0.000 A 
ATOM      2  C   UNL     1      32.279  -0.607  35.181  0.00  0.00    +0.000 A 
ATOM      3  C   UNL     1      32.084  -1.945  35.044  0.00  0.00    +0.000 A 
ATOM      4  C   UNL     1      32.839  -2.750  34.185  0.00  0.00    +0.000 A 
ATOM      5  C   UNL     1      33.821  -2.103  33.462  0.00  0.00    +0.000 A 
ATOM      6  C   UNL     1      34.028  -0.745  33.592  0.00  0.00    +0.000 A 
ENDROOT
BRANCH   1   7
ATOM      7  C   UNL     1      33.465   1.438  34.599  0.00  0.00    +0.000 C 
ATOM      8  O   UNL     1      33.890   1.935  35.650  0.00  0.00    +0.000 OA
BRANCH   7  10
ATOM      9  C   UNL     1      33.650   3.645  33.520  0.00  0.00    +0.000 C 
ATOM     10  O   UNL     1      33.167   2.296  33.525  0.00  0.00    +0.000 OA
ENDBRANCH   7  10
ENDBRANCH   1   7
BRANCH   4  11
ATOM     11  N   UNL     1      32.605  -4.138  34.072  0.00  0.00    +0.000 NA
BRANCH  11  12
ATOM     12  C   UNL     1      33.519  -4.919  33.319  0.00  0.00    +0.000 C 
ATOM     13  S   UNL     1      34.667  -5.848  34.058  0.00  0.00    +0.000 S 
BRANCH  12  14
ATOM     14  N   UNL     1      33.515  -4.959  31.894  0.00  0.00    +0.000 NA
ATOM     15  C   UNL     1      32.734  -5.829  31.123  0.00  0.00    +0.000 C 
ATOM     16  O   UNL     1      31.976  -6.637  31.717  0.00  0.00    +0.000 OA
BRANCH  15  17
ATOM     17  C   UNL     1      32.752  -5.848  29.627  0.00  0.00    +0.000 C 
ATOM     18  C   UNL     1      32.946  -7.244  29.067  0.00  0.00    +0.000 C 
ATOM     19  C   UNL     1      34.425  -7.008  29.035  0.00  0.00    +0.000 C 
ATOM     20  C   UNL     1      34.143  -5.518  29.069  0.00  0.00    +0.000 C 
ENDBRANCH  15  17
ENDBRANCH  12  14
ENDBRANCH  11  12
ENDBRANCH   4  11
TORSDOF 6
ENDMDL
MODEL 2
REMARK VINA RESULT:      -5.8     26.938     28.535
REMARK  Name = 
REMARK  6 active torsions:
REMARK  status: ('A' for Active; 'I' for Inactive)
REMARK    1  A    between atoms: O_2  and  C_3
REMARK    2  A    between atoms: C_3  and  C_5
REMARK    3  A    between atoms: C_8  and  N_9
REMARK    4  A    between atoms: N_9  and  C_10
REMARK    5  A    between atoms: C_10  and  N_12
REMARK    6  A    between atoms: C_13  and  C_15
REMARK                            x       y       z     vdW  Elec       q    Type
REMARK                         _______ _______ _______ _____ _____    ______ ____
ROOT
ATOM      1  C   UNL     1      29.531  24.055  23.145  0.00  0.00    +0.000 A 
ATOM      2  C   UNL     1      28.692  23.153  23.752  0.00  0.00    +0.000 A 
ATOM      3  C   UNL     1      29.067  22.597  24.934  0.00  0.00    +0.000 A 
ATOM      4  C   UNL     1      30.274  22.892  25.575  0.00  0.00    +0.000 A 
ATOM      5  C   UNL     1      31.089  23.803  24.933  0.00  0.00    +0.000 A 
ATOM      6  C   UNL     1      30.719  24.374  23.734  0.00  0.00    +0.000 A 
ENDROOT
BRANCH   1   7
ATOM      7  C   UNL     1      29.116  24.646  21.876  0.00  0.00    +0.000 C 
ATOM      8  O   UNL     1      29.741  24.458  20.824  0.00  0.00    +0.000 OA
BRANCH   7  10
ATOM      9  C   UNL     1      27.978  26.692  21.110  0.00  0.00    +0.000 C 
ATOM     10  O   UNL     1      27.967  25.457  21.836  0.00  0.00    +0.000 OA
ENDBRANCH   7  10
ENDBRANCH   1   7
BRANCH   4  11
ATOM     11  N   UNL     1      30.628  22.291  26.803  0.00  0.00    +0.000 NA
BRANCH  11  12
ATOM     12  C   UNL     1      30.163  22.885  28.005  0.00  0.00    +0.000 C 
ATOM     13  S   UNL     1      31.137  23.861  28.913  0.00  0.00    +0.000 S 
BRANCH  12  14
ATOM     14  N   UNL     1      28.846  22.686  28.510  0.00  0.00    +0.000 NA
ATOM     15  C   UNL     1      27.762  23.541  28.272  0.00  0.00    +0.000 C 
ATOM     16  O   UNL     1      27.951  24.561  27.562  0.00  0.00    +0.000 OA
BRANCH  15  17
ATOM     17  C   UNL     1      26.389  23.305  28.818  0.00  0.00    +0.000 C 
ATOM     18  C   UNL     1      25.803  24.543  29.469  0.00  0.00    +0.000 C 
ATOM     19  C   UNL     1      26.353  24.089  30.786  0.00  0.00    +0.000 C 
ATOM     20  C   UNL     1      26.431  22.684  30.220  0.00  0.00    +0.000 C 
ENDBRANCH  15  17
ENDBRANCH  12  14
ENDBRANCH  11  12
ENDBRANCH   4  11
TORSDOF 6
ENDMDL
MODEL 3
REMARK VINA RESULT:      -5.6     26.248     27.759
REMARK  Name = 
REMARK  6 active torsions:
REMARK  status: ('A' for Active; 'I' for Inactive)
REMARK    1  A    between atoms: O_2  and  C_3
REMARK    2  A    between atoms: C_3  and  C_5
REMARK    3  A    between atoms: C_8  and  N_9
REMARK    4  A    between atoms: N_9  and  C_10
REMARK    5  A    between atoms: C_10  and  N_12
REMARK    6  A    between atoms: C_13  and  C_15
REMARK                            x       y       z     vdW  Elec       q    Type
REMARK                         _______ _______ _______ _____ _____    ______ ____
ROOT
ATOM      1  C   UNL     1      29.513  23.104  24.317  0.00  0.00    +0.000 A 
ATOM      2  C   UNL     1      30.863  23.262  24.517  0.00  0.00    +0.000 A 
ATOM      3  C   UNL     1      31.390  22.942  25.728  0.00  0.00    +0.000 A 
ATOM      4  C   UNL     1      30.629  22.457  26.796  0.00  0.00    +0.000 A 
ATOM      5  C   UNL     1      29.278  22.313  26.554  0.00  0.00    +0.000 A 
ATOM      6  C   UNL     1      28.730  22.635  25.330  0.00  0.00    +0.000 A 
ENDROOT
BRANCH   1   7
ATOM      7  C   UNL     1      28.960  23.451  23.011  0.00  0.00    +0.000 C 
ATOM      8  O   UNL     1      29.632  24.016  22.138  0.00  0.00    +0.000 OA
BRANCH   7  10
ATOM      9  C   UNL     1      26.863  23.949  21.819  0.00  0.00    +0.000 C 
ATOM     10  O   UNL     1      27.619  23.137  22.725  0.00  0.00    +0.000 OA
ENDBRANCH   7  10
ENDBRANCH   1   7
BRANCH   4  11
ATOM     11  N   UNL     1      31.216  22.137  28.040  0.00  0.00    +0.000 NA
BRANCH  11  12
ATOM     12  C   UNL     1      31.044  23.039  29.121  0.00  0.00    +0.000 C 
ATOM     13  S   UNL     1      32.230  23.265  30.248  0.00  0.00    +0.000 S 
BRANCH  12  14
ATOM     14  N   UNL     1      29.857  23.803  29.313  0.00  0.00    +0.000 NA
ATOM     15  C   UNL     1      28.757  23.391  30.077  0.00  0.00    +0.000 C 
ATOM     16  O   UNL     1      28.808  22.268  30.640  0.00  0.00    +0.000 OA
BRANCH  15  17
ATOM     17  C   UNL     1      27.523  24.217  30.259  0.00  0.00    +0.000 C 
ATOM     18  C   UNL     1      26.257  23.383  30.222  0.00  0.00    +0.000 C 
ATOM     19  C   UNL     1      26.152  23.638  28.750  0.00  0.00    +0.000 C 
ATOM     20  C   UNL     1      27.054  24.843  28.939  0.00  0.00    +0.000 C 
ENDBRANCH  15  17
ENDBRANCH  12  14
ENDBRANCH  11  12
ENDBRANCH   4  11
TORSDOF 6
ENDMDL
MODEL 4
REMARK VINA RESULT:      -5.5     26.619     29.819
REMARK  Name = 
REMARK  6 active torsions:
REMARK  status: ('A' for Active; 'I' for Inactive)
REMARK    1  A    between atoms: O_2  and  C_3
REMARK    2  A    between atoms: C_3  and  C_5
REMARK    3  A    between atoms: C_8  and  N_9
REMARK    4  A    between atoms: N_9  and  C_10
REMARK    5  A    between atoms: C_10  and  N_12
REMARK    6  A    between atoms: C_13  and  C_15
REMARK                            x       y       z     vdW  Elec       q    Type
REMARK                         _______ _______ _______ _____ _____    ______ ____
ROOT
ATOM      1  C   UNL     1      28.911  26.070  21.080  0.00  0.00    +0.000 A 
ATOM      2  C   UNL     1      27.812  26.457  21.807  0.00  0.00    +0.000 A 
ATOM      3  C   UNL     1      27.166  25.532  22.565  0.00  0.00    +0.000 A 
ATOM      4  C   UNL     1      27.559  24.192  22.648  0.00  0.00    +0.000 A 
ATOM      5  C   UNL     1      28.667  23.844  21.902  0.00  0.00    +0.000 A 
ATOM      6  C   UNL     1      29.331  24.773  21.129  0.00  0.00    +0.000 A 
ENDROOT
BRANCH   1   7
ATOM      7  C   UNL     1      29.596  27.073  20.270  0.00  0.00    +0.000 C 
ATOM      8  O   UNL     1      29.563  28.279  20.546  0.00  0.00    +0.000 OA
BRANCH   7  10
ATOM      9  C   UNL     1      30.997  27.633  18.323  0.00  0.00    +0.000 C 
ATOM     10  O   UNL     1      30.321  26.666  19.135  0.00  0.00    +0.000 OA
ENDBRANCH   7  10
ENDBRANCH   1   7
BRANCH   4  11
ATOM     11  N   UNL     1      26.859  23.262  23.447  0.00  0.00    +0.000 NA
BRANCH  11  12
ATOM     12  C   UNL     1      27.172  23.188  24.830  0.00  0.00    +0.000 C 
ATOM     13  S   UNL     1      26.112  23.721  25.978  0.00  0.00    +0.000 S 
BRANCH  12  14
ATOM     14  N   UNL     1      28.401  22.660  25.320  0.00  0.00    +0.000 NA
ATOM     15  C   UNL     1      29.551  23.419  25.574  0.00  0.00    +0.000 C 
ATOM     16  O   UNL     1      29.509  24.657  25.358  0.00  0.00    +0.000 OA
BRANCH  15  17
ATOM     17  C   UNL     1      30.828  22.835  26.089  0.00  0.00    +0.000 C 
ATOM     18  C   UNL     1      30.607  21.901  27.263  0.00  0.00    +0.000 C 
ATOM     19  C   UNL     1      30.812  23.054  28.197  0.00  0.00    +0.000 C 
ATOM     20  C   UNL     1      31.530  23.779  27.075  0.00  0.00    +0.000 C 
ENDBRANCH  15  17
ENDBRANCH  12  14
ENDBRANCH  11  12
ENDBRANCH   4  11
TORSDOF 6
ENDMDL
MODEL 5
REMARK VINA RESULT:      -5.4     25.644     28.981
REMARK  Name = 
REMARK  6 active torsions:
REMARK  status: ('A' for Active; 'I' for Inactive)
REMARK    1  A    between atoms: O_2  and  C_3
REMARK    2  A    between atoms: C_3  and  C_5
REMARK    3  A    between atoms: C_8  and  N_9
REMARK    4  A    between atoms: N_9  and  C_10
REMARK    5  A    between atoms: C_10  and  N_12
REMARK    6  A    between atoms: C_13  and  C_15
REMARK                            x       y       z     vdW  Elec       q    Type
REMARK                         _______ _______ _______ _____ _____    ______ ____
ROOT
ATOM      1  C   UNL     1      30.478  22.713  27.083  0.00  0.00    +0.000 A 
ATOM      2  C   UNL     1      29.127  22.526  26.920  0.00  0.00    +0.000 A 
ATOM      3  C   UNL     1      28.608  22.541  25.663  0.00  0.00    +0.000 A 
ATOM      4  C   UNL     1      29.378  22.740  24.513  0.00  0.00    +0.000 A 
ATOM      5  C   UNL     1      30.731  22.924  24.721  0.00  0.00    +0.000 A 
ATOM      6  C   UNL     1      31.270  22.911  25.990  0.00  0.00    +0.000 A 
ENDROOT
BRANCH   1   7
ATOM      7  C   UNL     1      31.023  22.694  28.437  0.00  0.00    +0.000 C 
ATOM      8  O   UNL     1      30.323  22.915  29.434  0.00  0.00    +0.000 OA
BRANCH   7  10
ATOM      9  C   UNL     1      32.804  21.489  29.639  0.00  0.00    +0.000 C 
ATOM     10  O   UNL     1      32.388  22.415  28.628  0.00  0.00    +0.000 OA
ENDBRANCH   7  10
ENDBRANCH   1   7
BRANCH   4  11
ATOM     11  N   UNL     1      28.800  22.749  23.226  0.00  0.00    +0.000 NA
BRANCH  11  12
ATOM     12  C   UNL     1      27.913  23.805  22.890  0.00  0.00    +0.000 C 
ATOM     13  S   UNL     1      26.284  23.556  22.786  0.00  0.00    +0.000 S 
BRANCH  12  14
ATOM     14  N   UNL     1      28.353  25.133  22.622  0.00  0.00    +0.000 NA
ATOM     15  C   UNL     1      29.194  25.496  21.563  0.00  0.00    +0.000 C 
ATOM     16  O   UNL     1      29.596  24.595  20.782  0.00  0.00    +0.000 OA
BRANCH  15  17
ATOM     17  C   UNL     1      29.640  26.902  21.307  0.00  0.00    +0.000 C 
ATOM     18  C   UNL     1      28.543  27.915  21.567  0.00  0.00    +0.000 C 
ATOM     19  C   UNL     1      28.144  27.830  20.126  0.00  0.00    +0.000 C 
ATOM     20  C   UNL     1      29.524  27.276  19.823  0.00  0.00    +0.000 C 
ENDBRANCH  15  17
ENDBRANCH  12  14
ENDBRANCH  11  12
ENDBRANCH   4  11
TORSDOF 6
ENDMDL
MODEL 6
REMARK VINA RESULT:      -5.4     26.614     28.292
REMARK  Name = 
REMARK  6 active torsions:
REMARK  status: ('A' for Active; 'I' for Inactive)
REMARK    1  A    between atoms: O_2  and  C_3
REMARK    2  A    between atoms: C_3  and  C_5
REMARK    3  A    between atoms: C_8  and  N_9
REMARK    4  A    between atoms: N_9  and  C_10
REMARK    5  A    between atoms: C_10  and  N_12
REMARK    6  A    between atoms: C_13  and  C_15
REMARK                            x       y       z     vdW  Elec       q    Type
REMARK                         _______ _______ _______ _____ _____    ______ ____
ROOT
ATOM      1  C   UNL     1      27.297  22.869  28.695  0.00  0.00    +0.000 A 
ATOM      2  C   UNL     1      28.631  22.857  29.021  0.00  0.00    +0.000 A 
ATOM      3  C   UNL     1      29.547  22.658  28.037  0.00  0.00    +0.000 A 
ATOM      4  C   UNL     1      29.206  22.460  26.695  0.00  0.00    +0.000 A 
ATOM      5  C   UNL     1      27.855  22.479  26.410  0.00  0.00    +0.000 A 
ATOM      6  C   UNL     1      26.916  22.680  27.399  0.00  0.00    +0.000 A 
ENDROOT
BRANCH   1   7
ATOM      7  C   UNL     1      26.324  23.084  29.762  0.00  0.00    +0.000 C 
ATOM      8  O   UNL     1      26.028  22.199  30.574  0.00  0.00    +0.000 OA
BRANCH   7  10
ATOM      9  C   UNL     1      26.131  25.275  30.872  0.00  0.00    +0.000 C 
ATOM     10  O   UNL     1      25.696  24.338  29.880  0.00  0.00    +0.000 OA
ENDBRANCH   7  10
ENDBRANCH   1   7
BRANCH   4  11
ATOM     11  N   UNL     1      30.188  22.256  25.702  0.00  0.00    +0.000 NA
BRANCH  11  12
ATOM     12  C   UNL     1      30.566  23.355  24.887  0.00  0.00    +0.000 C 
ATOM     13  S   UNL     1      31.551  24.549  25.460  0.00  0.00    +0.000 S 
BRANCH  12  14
ATOM     14  N   UNL     1      30.130  23.507  23.540  0.00  0.00    +0.000 NA
ATOM     15  C   UNL     1      28.994  24.225  23.145  0.00  0.00    +0.000 C 
ATOM     16  O   UNL     1      28.299  24.781  24.034  0.00  0.00    +0.000 OA
BRANCH  15  17
ATOM     17  C   UNL     1      28.561  24.367  21.719  0.00  0.00    +0.000 C 
ATOM     18  C   UNL     1      29.426  25.342  20.945  0.00  0.00    +0.000 C 
ATOM     19  C   UNL     1      28.472  26.442  21.295  0.00  0.00    +0.000 C 
ATOM     20  C   UNL     1      27.421  25.383  21.568  0.00  0.00    +0.000 C 
ENDBRANCH  15  17
ENDBRANCH  12  14
ENDBRANCH  11  12
ENDBRANCH   4  11
TORSDOF 6
ENDMDL
MODEL 7
REMARK VINA RESULT:      -5.4      2.188      3.010
REMARK  Name = 
REMARK  6 active torsions:
REMARK  status: ('A' for Active; 'I' for Inactive)
REMARK    1  A    between atoms: O_2  and  C_3
REMARK    2  A    between atoms: C_3  and  C_5
REMARK    3  A    between atoms: C_8  and  N_9
REMARK    4  A    between atoms: N_9  and  C_10
REMARK    5  A    between atoms: C_10  and  N_12
REMARK    6  A    between atoms: C_13  and  C_15
REMARK                            x       y       z     vdW  Elec       q    Type
REMARK                         _______ _______ _______ _____ _____    ______ ____
ROOT
ATOM      1  C   UNL     1      33.503   1.907  34.274  0.00  0.00    +0.000 A 
ATOM      2  C   UNL     1      33.032   0.848  33.538  0.00  0.00    +0.000 A 
ATOM      3  C   UNL     1      32.919  -0.369  34.133  0.00  0.00    +0.000 A 
ATOM      4  C   UNL     1      33.261  -0.609  35.467  0.00  0.00    +0.000 A 
ATOM      5  C   UNL     1      33.730   0.481  36.173  0.00  0.00    +0.000 A 
ATOM      6  C   UNL     1      33.849   1.721  35.580  0.00  0.00    +0.000 A 
ENDROOT
BRANCH   1   7
ATOM      7  C   UNL     1      33.619   3.209  33.624  0.00  0.00    +0.000 C 
ATOM      8  O   UNL     1      33.580   3.338  32.393  0.00  0.00    +0.000 OA
BRANCH   7  10
ATOM      9  C   UNL     1      32.825   5.429  34.338  0.00  0.00    +0.000 C 
ATOM     10  O   UNL     1      33.779   4.363  34.412  0.00  0.00    +0.000 OA
ENDBRANCH   7  10
ENDBRANCH   1   7
BRANCH   4  11
ATOM     11  N   UNL     1      33.129  -1.889  36.048  0.00  0.00    +0.000 NA
BRANCH  11  12
ATOM     12  C   UNL     1      34.047  -2.902  35.666  0.00  0.00    +0.000 C 
ATOM     13  S   UNL     1      35.640  -2.823  36.093  0.00  0.00    +0.000 S 
BRANCH  12  14
ATOM     14  N   UNL     1      33.669  -4.042  34.899  0.00  0.00    +0.000 NA
ATOM     15  C   UNL     1      33.494  -4.046  33.510  0.00  0.00    +0.000 C 
ATOM     16  O   UNL     1      33.680  -2.973  32.881  0.00  0.00    +0.000 OA
BRANCH  15  17
ATOM     17  C   UNL     1      33.096  -5.260  32.731  0.00  0.00    +0.000 C 
ATOM     18  C   UNL     1      34.078  -6.403  32.898  0.00  0.00    +0.000 C 
ATOM     19  C   UNL     1      34.815  -5.926  31.685  0.00  0.00    +0.000 C 
ATOM     20  C   UNL     1      33.561  -5.179  31.271  0.00  0.00    +0.000 C 
ENDBRANCH  15  17
ENDBRANCH  12  14
ENDBRANCH  11  12
ENDBRANCH   4  11
TORSDOF 6
ENDMDL
MODEL 8
REMARK VINA RESULT:      -5.3     26.628     28.326
REMARK  Name = 
REMARK  6 active torsions:
REMARK  status: ('A' for Active; 'I' for Inactive)
REMARK    1  A    between atoms: O_2  and  C_3
REMARK    2  A    between atoms: C_3  and  C_5
REMARK    3  A    between atoms: C_8  and  N_9
REMARK    4  A    between atoms: N_9  and  C_10
REMARK    5  A    between atoms: C_10  and  N_12
REMARK    6  A    between atoms: C_13  and  C_15
REMARK                            x       y       z     vdW  Elec       q    Type
REMARK                         _______ _______ _______ _____ _____    ______ ____
ROOT
ATOM      1  C   UNL     1      28.262  23.276  24.186  0.00  0.00    +0.000 A 
ATOM      2  C   UNL     1      27.740  23.093  25.444  0.00  0.00    +0.000 A 
ATOM      3  C   UNL     1      28.548  22.616  26.427  0.00  0.00    +0.000 A 
ATOM      4  C   UNL     1      29.895  22.295  26.231  0.00  0.00    +0.000 A 
ATOM      5  C   UNL     1      30.380  22.493  24.954  0.00  0.00    +0.000 A 
ATOM      6  C   UNL     1      29.571  22.977  23.947  0.00  0.00    +0.000 A 
ENDROOT
BRANCH   1   7
ATOM      7  C   UNL     1      27.384  23.789  23.138  0.00  0.00    +0.000 C 
ATOM      8  O   UNL     1      26.609  23.057  22.509  0.00  0.00    +0.000 OA
BRANCH   7  10
ATOM      9  C   UNL     1      27.467  25.591  21.461  0.00  0.00    +0.000 C 
ATOM     10  O   UNL     1      27.411  25.161  22.826  0.00  0.00    +0.000 OA
ENDBRANCH   7  10
ENDBRANCH   1   7
BRANCH   4  11
ATOM     11  N   UNL     1      30.700  21.801  27.281  0.00  0.00    +0.000 NA
BRANCH  11  12
ATOM     12  C   UNL     1      31.376  22.733  28.110  0.00  0.00    +0.000 C 
ATOM     13  S   UNL     1      30.894  23.004  29.666  0.00  0.00    +0.000 S 
BRANCH  12  14
ATOM     14  N   UNL     1      32.500  23.490  27.671  0.00  0.00    +0.000 NA
ATOM     15  C   UNL     1      32.428  24.765  27.096  0.00  0.00    +0.000 C 
ATOM     16  O   UNL     1      31.295  25.292  26.952  0.00  0.00    +0.000 OA
BRANCH  15  17
ATOM     17  C   UNL     1      33.628  25.536  26.643  0.00  0.00    +0.000 C 
ATOM     18  C   UNL     1      33.501  26.018  25.211  0.00  0.00    +0.000 C 
ATOM     19  C   UNL     1      34.188  24.770  24.749  0.00  0.00    +0.000 C 
ATOM     20  C   UNL     1      34.748  24.611  26.150  0.00  0.00    +0.000 C 
ENDBRANCH  15  17
ENDBRANCH  12  14
ENDBRANCH  11  12
ENDBRANCH   4  11
TORSDOF 6
ENDMDL
MODEL 9
REMARK VINA RESULT:      -5.2      6.656     11.947
REMARK  Name = 
REMARK  6 active torsions:
REMARK  status: ('A' for Active; 'I' for Inactive)
REMARK    1  A    between atoms: O_2  and  C_3
REMARK    2  A    between atoms: C_3  and  C_5
REMARK    3  A    between atoms: C_8  and  N_9
REMARK    4  A    between atoms: N_9  and  C_10
REMARK    5  A    between atoms: C_10  and  N_12
REMARK    6  A    between atoms: C_13  and  C_15
REMARK                            x       y       z     vdW  Elec       q    Type
REMARK                         _______ _______ _______ _____ _____    ______ ____
ROOT
ATOM      1  C   UNL     1      33.780   2.437  35.078  0.00  0.00    +0.000 A 
ATOM      2  C   UNL     1      34.014   2.602  36.421  0.00  0.00    +0.000 A 
ATOM      3  C   UNL     1      34.101   3.862  36.924  0.00  0.00    +0.000 A 
ATOM      4  C   UNL     1      33.964   5.014  36.144  0.00  0.00    +0.000 A 
ATOM      5  C   UNL     1      33.730   4.805  34.800  0.00  0.00    +0.000 A 
ATOM      6  C   UNL     1      33.640   3.532  34.277  0.00  0.00    +0.000 A 
ENDROOT
BRANCH   1   7
ATOM      7  C   UNL     1      33.689   1.079  34.550  0.00  0.00    +0.000 C 
ATOM      8  O   UNL     1      33.864   0.081  35.262  0.00  0.00    +0.000 OA
BRANCH   7  10
ATOM      9  C   UNL     1      34.395   0.392  32.292  0.00  0.00    +0.000 C 
ATOM     10  O   UNL     1      33.393   0.886  33.189  0.00  0.00    +0.000 OA
ENDBRANCH   7  10
ENDBRANCH   1   7
BRANCH   4  11
ATOM     11  N   UNL     1      34.061   6.306  36.706  0.00  0.00    +0.000 NA
BRANCH  11  12
ATOM     12  C   UNL     1      35.194   7.099  36.386  0.00  0.00    +0.000 C 
ATOM     13  S   UNL     1      36.717   6.632  36.818  0.00  0.00    +0.000 S 
BRANCH  12  14
ATOM     14  N   UNL     1      35.103   8.335  35.683  0.00  0.00    +0.000 NA
ATOM     15  C   UNL     1      34.560   9.514  36.209  0.00  0.00    +0.000 C 
ATOM     16  O   UNL     1      34.118   9.495  37.387  0.00  0.00    +0.000 OA
BRANCH  15  17
ATOM     17  C   UNL     1      34.477  10.798  35.445  0.00  0.00    +0.000 C 
ATOM     18  C   UNL     1      35.667  11.004  34.527  0.00  0.00    +0.000 C 
ATOM     19  C   UNL     1      36.360  11.755  35.622  0.00  0.00    +0.000 C 
ATOM     20  C   UNL     1      35.005  11.984  36.264  0.00  0.00    +0.000 C 
ENDBRANCH  15  17
ENDBRANCH  12  14
ENDBRANCH  11  12
ENDBRANCH   4  11
TORSDOF 6
ENDMDL
MODEL 10
REMARK VINA RESULT:      -5.2     27.285     29.400
REMARK  Name = 
REMARK  6 active torsions:
REMARK  status: ('A' for Active; 'I' for Inactive)
REMARK    1  A    between atoms: O_2  and  C_3
REMARK    2  A    between atoms: C_3  and  C_5
REMARK    3  A    between atoms: C_8  and  N_9
REMARK    4  A    between atoms: N_9  and  C_10
REMARK    5  A    between atoms: C_10  and  N_12
REMARK    6  A    between atoms: C_13  and  C_15
REMARK                            x       y       z     vdW  Elec       q    Type
REMARK                         _______ _______ _______ _____ _____    ______ ____
ROOT
ATOM      1  C   UNL     1      28.505  24.200  22.794  0.00  0.00    +0.000 A 
ATOM      2  C   UNL     1      29.507  23.960  23.701  0.00  0.00    +0.000 A 
ATOM      3  C   UNL     1      29.193  23.382  24.891  0.00  0.00    +0.000 A 
ATOM      4  C   UNL     1      27.893  23.014  25.250  0.00  0.00    +0.000 A 
ATOM      5  C   UNL     1      26.915  23.273  24.311  0.00  0.00    +0.000 A 
ATOM      6  C   UNL     1      27.220  23.859  23.100  0.00  0.00    +0.000 A 
ENDROOT
BRANCH   1   7
ATOM      7  C   UNL     1      28.855  24.821  21.520  0.00  0.00    +0.000 C 
ATOM      8  O   UNL     1      29.686  24.323  20.750  0.00  0.00    +0.000 OA
BRANCH   7  10
ATOM      9  C   UNL     1      28.432  27.214  21.919  0.00  0.00    +0.000 C 
ATOM     10  O   UNL     1      28.233  26.025  21.145  0.00  0.00    +0.000 OA
ENDBRANCH   7  10
ENDBRANCH   1   7
BRANCH   4  11
ATOM     11  N   UNL     1      27.608  22.417  26.497  0.00  0.00    +0.000 NA
BRANCH  11  12
ATOM     12  C   UNL     1      27.831  23.174  27.676  0.00  0.00    +0.000 C 
ATOM     13  S   UNL     1      29.084  22.827  28.695  0.00  0.00    +0.000 S 
BRANCH  12  14
ATOM     14  N   UNL     1      27.005  24.268  28.064  0.00  0.00    +0.000 NA
ATOM     15  C   UNL     1      26.033  24.217  29.071  0.00  0.00    +0.000 C 
ATOM     16  O   UNL     1      25.867  23.133  29.687  0.00  0.00    +0.000 OA
BRANCH  15  17
ATOM     17  C   UNL     1      25.179  25.384  29.455  0.00  0.00    +0.000 C 
ATOM     18  C   UNL     1      25.892  26.710  29.269  0.00  0.00    +0.000 C 
ATOM     19  C   UNL     1      26.355  26.641  30.692  0.00  0.00    +0.000 C 
ATOM     20  C   UNL     1      25.233  25.658  30.964  0.00  0.00    +0.000 C 
ENDBRANCH  15  17
ENDBRANCH  12  14
ENDBRANCH  11  12
ENDBRANCH   4  11
TORSDOF 6
ENDMDL
