MODEL 1
REMARK VINA RESULT:      -8.3      0.000      0.000
REMARK  Name = 
REMARK  6 active torsions:
REMARK  status: ('A' for Active; 'I' for Inactive)
REMARK    1  A    between atoms: C_2  and  C_3
REMARK    2  A    between atoms: C_3  and  C_5
REMARK    3  A    between atoms: C_10  and  N_11
REMARK    4  A    between atoms: C_12  and  C_14
REMARK    5  A    between atoms: N_16  and  C_17
REMARK    6  A    between atoms: C_17  and  C_18
REMARK                            x       y       z     vdW  Elec       q    Type
REMARK                         _______ _______ _______ _____ _____    ______ ____
ROOT
ATOM      1  C   UNL     1      37.954  -0.263  15.304  0.00  0.00    +0.000 A 
ATOM      2  N   UNL     1      37.243  -1.103  16.053  0.00  0.00    +0.000 NA
ATOM      3  N   UNL     1      37.753  -2.259  16.484  0.00  0.00    +0.000 N 
ATOM      4  C   UNL     1      39.008  -2.630  16.184  0.00  0.00    +0.000 A 
ATOM      5  O   UNL     1      39.483  -3.738  16.603  0.00  0.00    +0.000 OA
ATOM      6  C   UNL     1      39.802  -1.815  15.413  0.00  0.00    +0.000 A 
ATOM      7  C   UNL     1      41.065  -2.201  15.117  0.00  0.00    +0.000 A 
ATOM      8  C   UNL     1      41.858  -1.382  14.346  0.00  0.00    +0.000 A 
ATOM      9  C   UNL     1      41.346  -0.185  13.893  0.00  0.00    +0.000 A 
ATOM     10  C   UNL     1      40.058   0.186  14.208  0.00  0.00    +0.000 A 
ATOM     11  C   UNL     1      39.253  -0.623  14.978  0.00  0.00    +0.000 A 
ENDROOT
BRANCH   1  13
ATOM     12  N   UNL     1      37.325   2.170  15.592  0.00  0.00    +0.000 NA
ATOM     13  C   UNL     1      37.463   1.006  14.803  0.00  0.00    +0.000 C 
ATOM     14  O   UNL     1      37.135   1.098  13.597  0.00  0.00    +0.000 OA
BRANCH  12  20
ATOM     15  C   UNL     1      37.711   4.480  15.228  0.00  0.00    +0.000 A 
ATOM     16  C   UNL     1      37.380   5.743  14.830  0.00  0.00    +0.000 A 
ATOM     17  C   UNL     1      36.101   5.961  14.317  0.00  0.00    +0.000 A 
ATOM     18  C   UNL     1      35.207   4.918  14.219  0.00  0.00    +0.000 A 
ATOM     19  C   UNL     1      35.607   3.661  14.641  0.00  0.00    +0.000 A 
ATOM     20  C   UNL     1      36.855   3.415  15.148  0.00  0.00    +0.000 A 
BRANCH  15  21
ATOM     21  C   UNL     1      39.168   4.207  15.819  0.00  0.00    +0.000 C 
ATOM     22  C   UNL     1      39.971   4.977  14.573  0.00  0.00    +0.000 C 
BRANCH  21  24
ATOM     23  C   UNL     1      38.851   4.850  18.141  0.00  0.00    +0.000 C 
ATOM     24  C   UNL     1      39.260   5.501  16.814  0.00  0.00    +0.000 C 
ENDBRANCH  21  24
ENDBRANCH  15  21
ENDBRANCH  12  20
ENDBRANCH   1  13
BRANCH   3  25
ATOM     25  C   UNL     1      36.959  -3.164  17.304  0.00  0.00    +0.000 C 
BRANCH  25  26
ATOM     26  C   UNL     1      35.893  -3.813  16.462  0.00  0.00    +0.000 A 
ATOM     27  C   UNL     1      36.069  -5.121  16.137  0.00  0.00    +0.000 A 
ATOM     28  C   UNL     1      35.169  -5.817  15.377  0.00  0.00    +0.000 A 
ATOM     29  C   UNL     1      34.028  -5.163  14.920  0.00  0.00    +0.000 A 
ATOM     30  C   UNL     1      33.867  -3.836  15.261  0.00  0.00    +0.000 A 
ATOM     31  C   UNL     1      34.783  -3.145  16.028  0.00  0.00    +0.000 A 
ENDBRANCH  25  26
ENDBRANCH   3  25
TORSDOF 6
ENDMDL
MODEL 2
REMARK VINA RESULT:      -8.2      2.636      6.589
REMARK  Name = 
REMARK  6 active torsions:
REMARK  status: ('A' for Active; 'I' for Inactive)
REMARK    1  A    between atoms: C_2  and  C_3
REMARK    2  A    between atoms: C_3  and  C_5
REMARK    3  A    between atoms: C_10  and  N_11
REMARK    4  A    between atoms: C_12  and  C_14
REMARK    5  A    between atoms: N_16  and  C_17
REMARK    6  A    between atoms: C_17  and  C_18
REMARK                            x       y       z     vdW  Elec       q    Type
REMARK                         _______ _______ _______ _____ _____    ______ ____
ROOT
ATOM      1  C   UNL     1      37.549  -1.247  16.259  0.00  0.00    +0.000 A 
ATOM      2  N   UNL     1      36.644  -0.276  16.164  0.00  0.00    +0.000 NA
ATOM      3  N   UNL     1      35.949   0.140  17.225  0.00  0.00    +0.000 N 
ATOM      4  C   UNL     1      36.131  -0.400  18.441  0.00  0.00    +0.000 A 
ATOM      5  O   UNL     1      35.461   0.007  19.447  0.00  0.00    +0.000 OA
ATOM      6  C   UNL     1      37.048  -1.409  18.617  0.00  0.00    +0.000 A 
ATOM      7  C   UNL     1      37.221  -1.946  19.848  0.00  0.00    +0.000 A 
ATOM      8  C   UNL     1      38.140  -2.955  20.020  0.00  0.00    +0.000 A 
ATOM      9  C   UNL     1      38.866  -3.396  18.933  0.00  0.00    +0.000 A 
ATOM     10  C   UNL     1      38.672  -2.833  17.692  0.00  0.00    +0.000 A 
ATOM     11  C   UNL     1      37.755  -1.823  17.504  0.00  0.00    +0.000 A 
ENDROOT
BRANCH   1  13
ATOM     12  N   UNL     1      39.615  -1.255  14.799  0.00  0.00    +0.000 NA
ATOM     13  C   UNL     1      38.337  -1.747  15.149  0.00  0.00    +0.000 C 
ATOM     14  O   UNL     1      37.874  -2.671  14.442  0.00  0.00    +0.000 OA
BRANCH  12  20
ATOM     15  C   UNL     1      40.451  -0.941  12.604  0.00  0.00    +0.000 A 
ATOM     16  C   UNL     1      41.184  -1.268  11.500  0.00  0.00    +0.000 A 
ATOM     17  C   UNL     1      41.929  -2.447  11.525  0.00  0.00    +0.000 A 
ATOM     18  C   UNL     1      41.917  -3.250  12.645  0.00  0.00    +0.000 A 
ATOM     19  C   UNL     1      41.151  -2.860  13.731  0.00  0.00    +0.000 A 
ATOM     20  C   UNL     1      40.409  -1.708  13.737  0.00  0.00    +0.000 A 
BRANCH  15  21
ATOM     21  C   UNL     1      39.590   0.403  12.597  0.00  0.00    +0.000 C 
ATOM     22  C   UNL     1      40.322   1.030  11.233  0.00  0.00    +0.000 C 
BRANCH  21  24
ATOM     23  C   UNL     1      37.169   0.586  12.498  0.00  0.00    +0.000 C 
ATOM     24  C   UNL     1      38.296  -0.157  11.770  0.00  0.00    +0.000 C 
ENDBRANCH  21  24
ENDBRANCH  15  21
ENDBRANCH  12  20
ENDBRANCH   1  13
BRANCH   3  25
ATOM     25  C   UNL     1      34.963   1.204  17.101  0.00  0.00    +0.000 C 
BRANCH  25  26
ATOM     26  C   UNL     1      35.551   2.359  16.333  0.00  0.00    +0.000 A 
ATOM     27  C   UNL     1      34.897   2.754  15.209  0.00  0.00    +0.000 A 
ATOM     28  C   UNL     1      35.335   3.790  14.431  0.00  0.00    +0.000 A 
ATOM     29  C   UNL     1      36.494   4.467  14.801  0.00  0.00    +0.000 A 
ATOM     30  C   UNL     1      37.143   4.050  15.945  0.00  0.00    +0.000 A 
ATOM     31  C   UNL     1      36.691   3.003  16.722  0.00  0.00    +0.000 A 
ENDBRANCH  25  26
ENDBRANCH   3  25
TORSDOF 6
ENDMDL
MODEL 3
REMARK VINA RESULT:      -8.1      2.508      8.035
REMARK  Name = 
REMARK  6 active torsions:
REMARK  status: ('A' for Active; 'I' for Inactive)
REMARK    1  A    between atoms: C_2  and  C_3
REMARK    2  A    between atoms: C_3  and  C_5
REMARK    3  A    between atoms: C_10  and  N_11
REMARK    4  A    between atoms: C_12  and  C_14
REMARK    5  A    between atoms: N_16  and  C_17
REMARK    6  A    between atoms: C_17  and  C_18
REMARK                            x       y       z     vdW  Elec       q    Type
REMARK                         _______ _______ _______ _____ _____    ______ ____
ROOT
ATOM      1  C   UNL     1      37.738   3.384  15.281  0.00  0.00    +0.000 A 
ATOM      2  N   UNL     1      37.489   4.568  15.835  0.00  0.00    +0.000 NA
ATOM      3  N   UNL     1      38.302   5.610  15.655  0.00  0.00    +0.000 N 
ATOM      4  C   UNL     1      39.412   5.516  14.904  0.00  0.00    +0.000 A 
ATOM      5  O   UNL     1      40.181   6.520  14.740  0.00  0.00    +0.000 OA
ATOM      6  C   UNL     1      39.736   4.324  14.300  0.00  0.00    +0.000 A 
ATOM      7  C   UNL     1      40.857   4.242  13.547  0.00  0.00    +0.000 A 
ATOM      8  C   UNL     1      41.177   3.048  12.942  0.00  0.00    +0.000 A 
ATOM      9  C   UNL     1      40.347   1.962  13.119  0.00  0.00    +0.000 A 
ATOM     10  C   UNL     1      39.212   2.071  13.889  0.00  0.00    +0.000 A 
ATOM     11  C   UNL     1      38.878   3.259  14.501  0.00  0.00    +0.000 A 
ENDROOT
BRANCH   1  13
ATOM     12  N   UNL     1      37.079   1.232  16.437  0.00  0.00    +0.000 NA
ATOM     13  C   UNL     1      36.898   2.212  15.435  0.00  0.00    +0.000 C 
ATOM     14  O   UNL     1      35.946   2.038  14.640  0.00  0.00    +0.000 OA
BRANCH  12  20
ATOM     15  C   UNL     1      36.805  -1.109  16.201  0.00  0.00    +0.000 A 
ATOM     16  C   UNL     1      36.142  -2.296  16.322  0.00  0.00    +0.000 A 
ATOM     17  C   UNL     1      34.875  -2.291  16.904  0.00  0.00    +0.000 A 
ATOM     18  C   UNL     1      34.319  -1.109  17.342  0.00  0.00    +0.000 A 
ATOM     19  C   UNL     1      35.045   0.060  17.189  0.00  0.00    +0.000 A 
ATOM     20  C   UNL     1      36.292   0.087  16.622  0.00  0.00    +0.000 A 
BRANCH  15  21
ATOM     21  C   UNL     1      38.256  -1.092  15.536  0.00  0.00    +0.000 C 
ATOM     22  C   UNL     1      38.877  -2.284  16.528  0.00  0.00    +0.000 C 
BRANCH  21  24
ATOM     23  C   UNL     1      37.755  -1.130  13.159  0.00  0.00    +0.000 C 
ATOM     24  C   UNL     1      37.959  -2.126  14.307  0.00  0.00    +0.000 C 
ENDBRANCH  21  24
ENDBRANCH  15  21
ENDBRANCH  12  20
ENDBRANCH   1  13
BRANCH   3  25
ATOM     25  C   UNL     1      38.012   6.898  16.271  0.00  0.00    +0.000 C 
BRANCH  25  26
ATOM     26  C   UNL     1      38.569   6.933  17.669  0.00  0.00    +0.000 A 
ATOM     27  C   UNL     1      38.119   7.917  18.492  0.00  0.00    +0.000 A 
ATOM     28  C   UNL     1      38.552   8.049  19.783  0.00  0.00    +0.000 A 
ATOM     29  C   UNL     1      39.487   7.143  20.276  0.00  0.00    +0.000 A 
ATOM     30  C   UNL     1      39.931   6.152  19.425  0.00  0.00    +0.000 A 
ATOM     31  C   UNL     1      39.487   6.029  18.124  0.00  0.00    +0.000 A 
ENDBRANCH  25  26
ENDBRANCH   3  25
TORSDOF 6
ENDMDL
MODEL 4
REMARK VINA RESULT:      -8.0      2.585      6.678
REMARK  Name = 
REMARK  6 active torsions:
REMARK  status: ('A' for Active; 'I' for Inactive)
REMARK    1  A    between atoms: C_2  and  C_3
REMARK    2  A    between atoms: C_3  and  C_5
REMARK    3  A    between atoms: C_10  and  N_11
REMARK    4  A    between atoms: C_12  and  C_14
REMARK    5  A    between atoms: N_16  and  C_17
REMARK    6  A    between atoms: C_17  and  C_18
REMARK                            x       y       z     vdW  Elec       q    Type
REMARK                         _______ _______ _______ _____ _____    ______ ____
ROOT
ATOM      1  C   UNL     1      37.435  -1.314  15.931  0.00  0.00    +0.000 A 
ATOM      2  N   UNL     1      36.535  -0.337  15.848  0.00  0.00    +0.000 NA
ATOM      3  N   UNL     1      35.909   0.132  16.930  0.00  0.00    +0.000 N 
ATOM      4  C   UNL     1      36.157  -0.359  18.155  0.00  0.00    +0.000 A 
ATOM      5  O   UNL     1      35.552   0.098  19.181  0.00  0.00    +0.000 OA
ATOM      6  C   UNL     1      37.073  -1.371  18.319  0.00  0.00    +0.000 A 
ATOM      7  C   UNL     1      37.314  -1.857  19.559  0.00  0.00    +0.000 A 
ATOM      8  C   UNL     1      38.232  -2.869  19.720  0.00  0.00    +0.000 A 
ATOM      9  C   UNL     1      38.887  -3.364  18.612  0.00  0.00    +0.000 A 
ATOM     10  C   UNL     1      38.625  -2.852  17.362  0.00  0.00    +0.000 A 
ATOM     11  C   UNL     1      37.709  -1.840  17.185  0.00  0.00    +0.000 A 
ENDROOT
BRANCH   1  13
ATOM     12  N   UNL     1      39.204  -1.210  14.126  0.00  0.00    +0.000 NA
ATOM     13  C   UNL     1      38.150  -1.869  14.798  0.00  0.00    +0.000 C 
ATOM     14  O   UNL     1      37.830  -3.003  14.373  0.00  0.00    +0.000 OA
BRANCH  12  20
ATOM     15  C   UNL     1      41.283  -1.782  13.143  0.00  0.00    +0.000 A 
ATOM     16  C   UNL     1      42.097  -2.248  12.152  0.00  0.00    +0.000 A 
ATOM     17  C   UNL     1      41.511  -2.672  10.958  0.00  0.00    +0.000 A 
ATOM     18  C   UNL     1      40.144  -2.616  10.800  0.00  0.00    +0.000 A 
ATOM     19  C   UNL     1      39.376  -2.132  11.846  0.00  0.00    +0.000 A 
ATOM     20  C   UNL     1      39.921  -1.709  13.030  0.00  0.00    +0.000 A 
BRANCH  15  21
ATOM     21  C   UNL     1      41.932  -1.291  14.516  0.00  0.00    +0.000 C 
ATOM     22  C   UNL     1      43.367  -2.117  14.295  0.00  0.00    +0.000 C 
BRANCH  21  24
ATOM     23  C   UNL     1      44.000  -0.016  14.461  0.00  0.00    +0.000 C 
ATOM     24  C   UNL     1      42.548   0.127  13.986  0.00  0.00    +0.000 C 
ENDBRANCH  21  24
ENDBRANCH  15  21
ENDBRANCH  12  20
ENDBRANCH   1  13
BRANCH   3  25
ATOM     25  C   UNL     1      34.928   1.203  16.818  0.00  0.00    +0.000 C 
BRANCH  25  26
ATOM     26  C   UNL     1      35.554   2.404  16.162  0.00  0.00    +0.000 A 
ATOM     27  C   UNL     1      34.964   2.872  15.030  0.00  0.00    +0.000 A 
ATOM     28  C   UNL     1      35.442   3.956  14.347  0.00  0.00    +0.000 A 
ATOM     29  C   UNL     1      36.575   4.607  14.826  0.00  0.00    +0.000 A 
ATOM     30  C   UNL     1      37.159   4.117  15.976  0.00  0.00    +0.000 A 
ATOM     31  C   UNL     1      36.667   3.022  16.657  0.00  0.00    +0.000 A 
ENDBRANCH  25  26
ENDBRANCH   3  25
TORSDOF 6
ENDMDL
MODEL 5
REMARK VINA RESULT:      -7.8      2.225      5.678
REMARK  Name = 
REMARK  6 active torsions:
REMARK  status: ('A' for Active; 'I' for Inactive)
REMARK    1  A    between atoms: C_2  and  C_3
REMARK    2  A    between atoms: C_3  and  C_5
REMARK    3  A    between atoms: C_10  and  N_11
REMARK    4  A    between atoms: C_12  and  C_14
REMARK    5  A    between atoms: N_16  and  C_17
REMARK    6  A    between atoms: C_17  and  C_18
REMARK                            x       y       z     vdW  Elec       q    Type
REMARK                         _______ _______ _______ _____ _____    ______ ____
ROOT
ATOM      1  C   UNL     1      37.739   0.677  15.090  0.00  0.00    +0.000 A 
ATOM      2  N   UNL     1      37.403  -0.279  15.952  0.00  0.00    +0.000 NA
ATOM      3  N   UNL     1      36.259  -0.235  16.637  0.00  0.00    +0.000 N 
ATOM      4  C   UNL     1      35.388   0.777  16.489  0.00  0.00    +0.000 A 
ATOM      5  O   UNL     1      34.297   0.807  17.149  0.00  0.00    +0.000 OA
ATOM      6  C   UNL     1      35.666   1.802  15.616  0.00  0.00    +0.000 A 
ATOM      7  C   UNL     1      34.781   2.816  15.476  0.00  0.00    +0.000 A 
ATOM      8  C   UNL     1      35.062   3.841  14.602  0.00  0.00    +0.000 A 
ATOM      9  C   UNL     1      36.241   3.809  13.887  0.00  0.00    +0.000 A 
ATOM     10  C   UNL     1      37.124   2.766  14.046  0.00  0.00    +0.000 A 
ATOM     11  C   UNL     1      36.857   1.734  14.918  0.00  0.00    +0.000 A 
ENDROOT
BRANCH   1  13
ATOM     12  N   UNL     1      39.093   0.127  13.025  0.00  0.00    +0.000 NA
ATOM     13  C   UNL     1      38.964   0.691  14.315  0.00  0.00    +0.000 C 
ATOM     14  O   UNL     1      39.984   1.232  14.800  0.00  0.00    +0.000 OA
BRANCH  12  20
ATOM     15  C   UNL     1      40.937  -1.063  12.132  0.00  0.00    +0.000 A 
ATOM     16  C   UNL     1      42.082  -1.207  11.402  0.00  0.00    +0.000 A 
ATOM     17  C   UNL     1      42.585  -0.091  10.734  0.00  0.00    +0.000 A 
ATOM     18  C   UNL     1      41.931   1.119  10.817  0.00  0.00    +0.000 A 
ATOM     19  C   UNL     1      40.775   1.196  11.575  0.00  0.00    +0.000 A 
ATOM     20  C   UNL     1      40.256   0.118  12.243  0.00  0.00    +0.000 A 
BRANCH  15  21
ATOM     21  C   UNL     1      40.345  -2.327  12.907  0.00  0.00    +0.000 C 
ATOM     22  C   UNL     1      41.326  -3.436  12.135  0.00  0.00    +0.000 C 
BRANCH  21  24
ATOM     23  C   UNL     1      40.289  -2.670  15.312  0.00  0.00    +0.000 C 
ATOM     24  C   UNL     1      41.297  -2.253  14.233  0.00  0.00    +0.000 C 
ENDBRANCH  21  24
ENDBRANCH  15  21
ENDBRANCH  12  20
ENDBRANCH   1  13
BRANCH   3  25
ATOM     25  C   UNL     1      35.910  -1.292  17.577  0.00  0.00    +0.000 C 
BRANCH  25  26
ATOM     26  C   UNL     1      35.752  -2.597  16.842  0.00  0.00    +0.000 A 
ATOM     27  C   UNL     1      36.730  -3.526  17.009  0.00  0.00    +0.000 A 
ATOM     28  C   UNL     1      36.695  -4.747  16.394  0.00  0.00    +0.000 A 
ATOM     29  C   UNL     1      35.619  -5.053  15.566  0.00  0.00    +0.000 A 
ATOM     30  C   UNL     1      34.637  -4.097  15.410  0.00  0.00    +0.000 A 
ATOM     31  C   UNL     1      34.683  -2.868  16.036  0.00  0.00    +0.000 A 
ENDBRANCH  25  26
ENDBRANCH   3  25
TORSDOF 6
ENDMDL
MODEL 6
REMARK VINA RESULT:      -7.7      2.112      6.796
REMARK  Name = 
REMARK  6 active torsions:
REMARK  status: ('A' for Active; 'I' for Inactive)
REMARK    1  A    between atoms: C_2  and  C_3
REMARK    2  A    between atoms: C_3  and  C_5
REMARK    3  A    between atoms: C_10  and  N_11
REMARK    4  A    between atoms: C_12  and  C_14
REMARK    5  A    between atoms: N_16  and  C_17
REMARK    6  A    between atoms: C_17  and  C_18
REMARK                            x       y       z     vdW  Elec       q    Type
REMARK                         _______ _______ _______ _____ _____    ______ ____
ROOT
ATOM      1  C   UNL     1      37.528  -1.064  14.811  0.00  0.00    +0.000 A 
ATOM      2  N   UNL     1      37.431   0.065  15.509  0.00  0.00    +0.000 NA
ATOM      3  N   UNL     1      36.451   0.259  16.394  0.00  0.00    +0.000 N 
ATOM      4  C   UNL     1      35.514  -0.676  16.624  0.00  0.00    +0.000 A 
ATOM      5  O   UNL     1      34.583  -0.479  17.472  0.00  0.00    +0.000 OA
ATOM      6  C   UNL     1      35.548  -1.868  15.939  0.00  0.00    +0.000 A 
ATOM      7  C   UNL     1      34.599  -2.802  16.179  0.00  0.00    +0.000 A 
ATOM      8  C   UNL     1      34.636  -3.994  15.493  0.00  0.00    +0.000 A 
ATOM      9  C   UNL     1      35.643  -4.210  14.576  0.00  0.00    +0.000 A 
ATOM     10  C   UNL     1      36.597  -3.244  14.350  0.00  0.00    +0.000 A 
ATOM     11  C   UNL     1      36.573  -2.046  15.028  0.00  0.00    +0.000 A 
ENDROOT
BRANCH   1  13
ATOM     12  N   UNL     1      39.806  -1.942  14.146  0.00  0.00    +0.000 NA
ATOM     13  C   UNL     1      38.565  -1.340  13.836  0.00  0.00    +0.000 C 
ATOM     14  O   UNL     1      38.370  -1.033  12.638  0.00  0.00    +0.000 OA
BRANCH  12  20
ATOM     15  C   UNL     1      41.914  -1.386  13.219  0.00  0.00    +0.000 A 
ATOM     16  C   UNL     1      42.981  -1.550  12.383  0.00  0.00    +0.000 A 
ATOM     17  C   UNL     1      42.970  -2.629  11.500  0.00  0.00    +0.000 A 
ATOM     18  C   UNL     1      41.903  -3.500  11.484  0.00  0.00    +0.000 A 
ATOM     19  C   UNL     1      40.852  -3.276  12.358  0.00  0.00    +0.000 A 
ATOM     20  C   UNL     1      40.834  -2.226  13.237  0.00  0.00    +0.000 A 
BRANCH  15  21
ATOM     21  C   UNL     1      41.904  -0.157  14.237  0.00  0.00    +0.000 C 
ATOM     22  C   UNL     1      43.567  -0.087  14.386  0.00  0.00    +0.000 C 
BRANCH  21  24
ATOM     23  C   UNL     1      40.519   1.710  13.530  0.00  0.00    +0.000 C 
ATOM     24  C   UNL     1      41.849   1.052  13.139  0.00  0.00    +0.000 C 
ENDBRANCH  21  24
ENDBRANCH  15  21
ENDBRANCH  12  20
ENDBRANCH   1  13
BRANCH   3  25
ATOM     25  C   UNL     1      36.362   1.501  17.148  0.00  0.00    +0.000 C 
BRANCH  25  26
ATOM     26  C   UNL     1      36.173   2.660  16.205  0.00  0.00    +0.000 A 
ATOM     27  C   UNL     1      34.949   2.799  15.631  0.00  0.00    +0.000 A 
ATOM     28  C   UNL     1      34.659   3.812  14.758  0.00  0.00    +0.000 A 
ATOM     29  C   UNL     1      35.652   4.736  14.446  0.00  0.00    +0.000 A 
ATOM     30  C   UNL     1      36.887   4.577  15.039  0.00  0.00    +0.000 A 
ATOM     31  C   UNL     1      37.168   3.551  15.918  0.00  0.00    +0.000 A 
ENDBRANCH  25  26
ENDBRANCH   3  25
TORSDOF 6
ENDMDL
MODEL 7
REMARK VINA RESULT:      -7.7      2.088      7.298
REMARK  Name = 
REMARK  6 active torsions:
REMARK  status: ('A' for Active; 'I' for Inactive)
REMARK    1  A    between atoms: C_2  and  C_3
REMARK    2  A    between atoms: C_3  and  C_5
REMARK    3  A    between atoms: C_10  and  N_11
REMARK    4  A    between atoms: C_12  and  C_14
REMARK    5  A    between atoms: N_16  and  C_17
REMARK    6  A    between atoms: C_17  and  C_18
REMARK                            x       y       z     vdW  Elec       q    Type
REMARK                         _______ _______ _______ _____ _____    ______ ____
ROOT
ATOM      1  C   UNL     1      37.268   0.158  14.442  0.00  0.00    +0.000 A 
ATOM      2  N   UNL     1      37.120   1.481  14.463  0.00  0.00    +0.000 NA
ATOM      3  N   UNL     1      36.209   2.071  15.239  0.00  0.00    +0.000 N 
ATOM      4  C   UNL     1      35.397   1.359  16.038  0.00  0.00    +0.000 A 
ATOM      5  O   UNL     1      34.530   1.936  16.775  0.00  0.00    +0.000 OA
ATOM      6  C   UNL     1      35.490  -0.012  16.069  0.00  0.00    +0.000 A 
ATOM      7  C   UNL     1      34.665  -0.718  16.877  0.00  0.00    +0.000 A 
ATOM      8  C   UNL     1      34.761  -2.090  16.906  0.00  0.00    +0.000 A 
ATOM      9  C   UNL     1      35.698  -2.715  16.109  0.00  0.00    +0.000 A 
ATOM     10  C   UNL     1      36.526  -1.975  15.297  0.00  0.00    +0.000 A 
ATOM     11  C   UNL     1      36.441  -0.601  15.256  0.00  0.00    +0.000 A 
ENDROOT
BRANCH   1  13
ATOM     12  N   UNL     1      39.472  -1.037  14.103  0.00  0.00    +0.000 NA
ATOM     13  C   UNL     1      38.236  -0.546  13.624  0.00  0.00    +0.000 C 
ATOM     14  O   UNL     1      37.981  -0.744  12.414  0.00  0.00    +0.000 OA
BRANCH  12  20
ATOM     15  C   UNL     1      41.683  -1.169  13.262  0.00  0.00    +0.000 A 
ATOM     16  C   UNL     1      42.709  -1.734  12.561  0.00  0.00    +0.000 A 
ATOM     17  C   UNL     1      42.473  -2.937  11.896  0.00  0.00    +0.000 A 
ATOM     18  C   UNL     1      41.231  -3.530  11.957  0.00  0.00    +0.000 A 
ATOM     19  C   UNL     1      40.234  -2.904  12.686  0.00  0.00    +0.000 A 
ATOM     20  C   UNL     1      40.435  -1.722  13.349  0.00  0.00    +0.000 A 
BRANCH  15  21
ATOM     21  C   UNL     1      41.930   0.209  14.028  0.00  0.00    +0.000 C 
ATOM     22  C   UNL     1      43.533  -0.109  14.373  0.00  0.00    +0.000 C 
BRANCH  21  24
ATOM     23  C   UNL     1      40.959   1.885  12.561  0.00  0.00    +0.000 C 
ATOM     24  C   UNL     1      42.287   1.135  12.730  0.00  0.00    +0.000 C 
ENDBRANCH  21  24
ENDBRANCH  15  21
ENDBRANCH  12  20
ENDBRANCH   1  13
BRANCH   3  25
ATOM     25  C   UNL     1      36.063   3.520  15.249  0.00  0.00    +0.000 C 
BRANCH  25  26
ATOM     26  C   UNL     1      37.321   4.157  15.779  0.00  0.00    +0.000 A 
ATOM     27  C   UNL     1      37.521   4.111  17.122  0.00  0.00    +0.000 A 
ATOM     28  C   UNL     1      38.625   4.655  17.719  0.00  0.00    +0.000 A 
ATOM     29  C   UNL     1      39.582   5.279  16.923  0.00  0.00    +0.000 A 
ATOM     30  C   UNL     1      39.360   5.315  15.561  0.00  0.00    +0.000 A 
ATOM     31  C   UNL     1      38.241   4.762  14.971  0.00  0.00    +0.000 A 
ENDBRANCH  25  26
ENDBRANCH   3  25
TORSDOF 6
ENDMDL
MODEL 8
REMARK VINA RESULT:      -7.7      1.768      2.363
REMARK  Name = 
REMARK  6 active torsions:
REMARK  status: ('A' for Active; 'I' for Inactive)
REMARK    1  A    between atoms: C_2  and  C_3
REMARK    2  A    between atoms: C_3  and  C_5
REMARK    3  A    between atoms: C_10  and  N_11
REMARK    4  A    between atoms: C_12  and  C_14
REMARK    5  A    between atoms: N_16  and  C_17
REMARK    6  A    between atoms: C_17  and  C_18
REMARK                            x       y       z     vdW  Elec       q    Type
REMARK                         _______ _______ _______ _____ _____    ______ ____
ROOT
ATOM      1  C   UNL     1      39.003   0.367  14.781  0.00  0.00    +0.000 A 
ATOM      2  N   UNL     1      38.276  -0.535  15.437  0.00  0.00    +0.000 NA
ATOM      3  N   UNL     1      38.765  -1.738  15.745  0.00  0.00    +0.000 N 
ATOM      4  C   UNL     1      40.014  -2.098  15.407  0.00  0.00    +0.000 A 
ATOM      5  O   UNL     1      40.469  -3.252  15.708  0.00  0.00    +0.000 OA
ATOM      6  C   UNL     1      40.824  -1.220  14.727  0.00  0.00    +0.000 A 
ATOM      7  C   UNL     1      42.081  -1.595  14.392  0.00  0.00    +0.000 A 
ATOM      8  C   UNL     1      42.889  -0.714  13.712  0.00  0.00    +0.000 A 
ATOM      9  C   UNL     1      42.399   0.534  13.387  0.00  0.00    +0.000 A 
ATOM     10  C   UNL     1      41.117   0.891  13.739  0.00  0.00    +0.000 A 
ATOM     11  C   UNL     1      40.296   0.020  14.420  0.00  0.00    +0.000 A 
ENDROOT
BRANCH   1  13
ATOM     12  N   UNL     1      37.985   2.616  15.330  0.00  0.00    +0.000 NA
ATOM     13  C   UNL     1      38.535   1.690  14.416  0.00  0.00    +0.000 C 
ATOM     14  O   UNL     1      38.615   2.054  13.221  0.00  0.00    +0.000 OA
BRANCH  12  20
ATOM     15  C   UNL     1      38.146   4.963  15.620  0.00  0.00    +0.000 A 
ATOM     16  C   UNL     1      37.794   6.264  15.405  0.00  0.00    +0.000 A 
ATOM     17  C   UNL     1      36.741   6.529  14.529  0.00  0.00    +0.000 A 
ATOM     18  C   UNL     1      36.083   5.492  13.904  0.00  0.00    +0.000 A 
ATOM     19  C   UNL     1      36.491   4.195  14.167  0.00  0.00    +0.000 A 
ATOM     20  C   UNL     1      37.522   3.903  15.021  0.00  0.00    +0.000 A 
BRANCH  15  21
ATOM     21  C   UNL     1      39.347   4.637  16.619  0.00  0.00    +0.000 C 
ATOM     22  C   UNL     1      39.962   6.190  16.610  0.00  0.00    +0.000 C 
BRANCH  21  24
ATOM     23  C   UNL     1      39.575   5.683  18.801  0.00  0.00    +0.000 C 
ATOM     24  C   UNL     1      38.544   4.853  18.025  0.00  0.00    +0.000 C 
ENDBRANCH  21  24
ENDBRANCH  15  21
ENDBRANCH  12  20
ENDBRANCH   1  13
BRANCH   3  25
ATOM     25  C   UNL     1      37.954  -2.711  16.464  0.00  0.00    +0.000 C 
BRANCH  25  26
ATOM     26  C   UNL     1      36.999  -1.999  17.385  0.00  0.00    +0.000 A 
ATOM     27  C   UNL     1      37.481  -1.601  18.592  0.00  0.00    +0.000 A 
ATOM     28  C   UNL     1      36.708  -0.946  19.511  0.00  0.00    +0.000 A 
ATOM     29  C   UNL     1      35.378  -0.675  19.201  0.00  0.00    +0.000 A 
ATOM     30  C   UNL     1      34.908  -1.088  17.972  0.00  0.00    +0.000 A 
ATOM     31  C   UNL     1      35.698  -1.748  17.052  0.00  0.00    +0.000 A 
ENDBRANCH  25  26
ENDBRANCH   3  25
TORSDOF 6
ENDMDL
MODEL 9
REMARK VINA RESULT:      -7.6      3.204      6.242
REMARK  Name = 
REMARK  6 active torsions:
REMARK  status: ('A' for Active; 'I' for Inactive)
REMARK    1  A    between atoms: C_2  and  C_3
REMARK    2  A    between atoms: C_3  and  C_5
REMARK    3  A    between atoms: C_10  and  N_11
REMARK    4  A    between atoms: C_12  and  C_14
REMARK    5  A    between atoms: N_16  and  C_17
REMARK    6  A    between atoms: C_17  and  C_18
REMARK                            x       y       z     vdW  Elec       q    Type
REMARK                         _______ _______ _______ _____ _____    ______ ____
ROOT
ATOM      1  C   UNL     1      37.630   4.280  16.637  0.00  0.00    +0.000 A 
ATOM      2  N   UNL     1      37.063   3.179  17.124  0.00  0.00    +0.000 NA
ATOM      3  N   UNL     1      36.083   2.549  16.473  0.00  0.00    +0.000 N 
ATOM      4  C   UNL     1      35.621   2.996  15.293  0.00  0.00    +0.000 A 
ATOM      5  O   UNL     1      34.684   2.385  14.681  0.00  0.00    +0.000 OA
ATOM      6  C   UNL     1      36.157   4.129  14.728  0.00  0.00    +0.000 A 
ATOM      7  C   UNL     1      35.682   4.570  13.540  0.00  0.00    +0.000 A 
ATOM      8  C   UNL     1      36.221   5.704  12.977  0.00  0.00    +0.000 A 
ATOM      9  C   UNL     1      37.235   6.365  13.638  0.00  0.00    +0.000 A 
ATOM     10  C   UNL     1      37.701   5.897  14.845  0.00  0.00    +0.000 A 
ATOM     11  C   UNL     1      37.171   4.764  15.421  0.00  0.00    +0.000 A 
ENDROOT
BRANCH   1  13
ATOM     12  N   UNL     1      38.571   5.643  18.550  0.00  0.00    +0.000 NA
ATOM     13  C   UNL     1      38.697   5.012  17.291  0.00  0.00    +0.000 C 
ATOM     14  O   UNL     1      39.810   5.102  16.723  0.00  0.00    +0.000 OA
BRANCH  12  20
ATOM     15  C   UNL     1      39.345   7.682  19.476  0.00  0.00    +0.000 A 
ATOM     16  C   UNL     1      40.238   8.490  20.117  0.00  0.00    +0.000 A 
ATOM     17  C   UNL     1      41.452   7.940  20.530  0.00  0.00    +0.000 A 
ATOM     18  C   UNL     1      41.726   6.611  20.289  0.00  0.00    +0.000 A 
ATOM     19  C   UNL     1      40.775   5.847  19.634  0.00  0.00    +0.000 A 
ATOM     20  C   UNL     1      39.575   6.359  19.217  0.00  0.00    +0.000 A 
BRANCH  15  21
ATOM     21  C   UNL     1      37.951   8.292  18.994  0.00  0.00    +0.000 C 
ATOM     22  C   UNL     1      37.690   9.166  20.393  0.00  0.00    +0.000 C 
BRANCH  21  24
ATOM     23  C   UNL     1      38.665   8.973  16.773  0.00  0.00    +0.000 C 
ATOM     24  C   UNL     1      38.533   9.581  18.176  0.00  0.00    +0.000 C 
ENDBRANCH  21  24
ENDBRANCH  15  21
ENDBRANCH  12  20
ENDBRANCH   1  13
BRANCH   3  25
ATOM     25  C   UNL     1      35.476   1.345  17.022  0.00  0.00    +0.000 C 
BRANCH  25  26
ATOM     26  C   UNL     1      36.458   0.205  16.964  0.00  0.00    +0.000 A 
ATOM     27  C   UNL     1      37.122   0.016  15.793  0.00  0.00    +0.000 A 
ATOM     28  C   UNL     1      38.037  -0.986  15.621  0.00  0.00    +0.000 A 
ATOM     29  C   UNL     1      38.302  -1.845  16.684  0.00  0.00    +0.000 A 
ATOM     30  C   UNL     1      37.618  -1.636  17.864  0.00  0.00    +0.000 A 
ATOM     31  C   UNL     1      36.696  -0.621  18.025  0.00  0.00    +0.000 A 
ENDBRANCH  25  26
ENDBRANCH   3  25
TORSDOF 6
ENDMDL
MODEL 10
REMARK VINA RESULT:      -7.5      5.367      8.604
REMARK  Name = 
REMARK  6 active torsions:
REMARK  status: ('A' for Active; 'I' for Inactive)
REMARK    1  A    between atoms: C_2  and  C_3
REMARK    2  A    between atoms: C_3  and  C_5
REMARK    3  A    between atoms: C_10  and  N_11
REMARK    4  A    between atoms: C_12  and  C_14
REMARK    5  A    between atoms: N_16  and  C_17
REMARK    6  A    between atoms: C_17  and  C_18
REMARK                            x       y       z     vdW  Elec       q    Type
REMARK                         _______ _______ _______ _____ _____    ______ ____
ROOT
ATOM      1  C   UNL     1      37.546   7.939  16.700  0.00  0.00    +0.000 A 
ATOM      2  N   UNL     1      37.814   6.758  16.149  0.00  0.00    +0.000 NA
ATOM      3  N   UNL     1      38.426   5.789  16.832  0.00  0.00    +0.000 N 
ATOM      4  C   UNL     1      38.802   5.957  18.110  0.00  0.00    +0.000 A 
ATOM      5  O   UNL     1      39.386   5.023  18.752  0.00  0.00    +0.000 OA
ATOM      6  C   UNL     1      38.560   7.151  18.747  0.00  0.00    +0.000 A 
ATOM      7  C   UNL     1      38.945   7.309  20.035  0.00  0.00    +0.000 A 
ATOM      8  C   UNL     1      38.701   8.505  20.670  0.00  0.00    +0.000 A 
ATOM      9  C   UNL     1      38.069   9.517  19.978  0.00  0.00    +0.000 A 
ATOM     10  C   UNL     1      37.687   9.331  18.669  0.00  0.00    +0.000 A 
ATOM     11  C   UNL     1      37.925   8.140  18.020  0.00  0.00    +0.000 A 
ENDROOT
BRANCH   1  13
ATOM     12  N   UNL     1      35.484   9.148  15.873  0.00  0.00    +0.000 NA
ATOM     13  C   UNL     1      36.885   9.034  16.017  0.00  0.00    +0.000 C 
ATOM     14  O   UNL     1      37.581   9.946  15.516  0.00  0.00    +0.000 OA
BRANCH  12  20
ATOM     15  C   UNL     1      34.166  11.113  16.000  0.00  0.00    +0.000 A 
ATOM     16  C   UNL     1      33.471  12.172  15.493  0.00  0.00    +0.000 A 
ATOM     17  C   UNL     1      33.405  12.319  14.107  0.00  0.00    +0.000 A 
ATOM     18  C   UNL     1      34.033  11.409  13.284  0.00  0.00    +0.000 A 
ATOM     19  C   UNL     1      34.722  10.357  13.865  0.00  0.00    +0.000 A 
ATOM     20  C   UNL     1      34.805  10.187  15.221  0.00  0.00    +0.000 A 
BRANCH  15  21
ATOM     21  C   UNL     1      34.253  10.925  17.583  0.00  0.00    +0.000 C 
ATOM     22  C   UNL     1      34.134  12.556  17.923  0.00  0.00    +0.000 C 
BRANCH  21  24
ATOM     23  C   UNL     1      32.758   9.281  18.567  0.00  0.00    +0.000 C 
ATOM     24  C   UNL     1      32.669  10.645  17.870  0.00  0.00    +0.000 C 
ENDBRANCH  21  24
ENDBRANCH  15  21
ENDBRANCH  12  20
ENDBRANCH   1  13
BRANCH   3  25
ATOM     25  C   UNL     1      38.709   4.502  16.210  0.00  0.00    +0.000 C 
BRANCH  25  26
ATOM     26  C   UNL     1      37.421   3.827  15.823  0.00  0.00    +0.000 A 
ATOM     27  C   UNL     1      36.763   3.141  16.796  0.00  0.00    +0.000 A 
ATOM     28  C   UNL     1      35.584   2.488  16.564  0.00  0.00    +0.000 A 
ATOM     29  C   UNL     1      35.034   2.525  15.285  0.00  0.00    +0.000 A 
ATOM     30  C   UNL     1      35.717   3.225  14.313  0.00  0.00    +0.000 A 
ATOM     31  C   UNL     1      36.906   3.881  14.559  0.00  0.00    +0.000 A 
ENDBRANCH  25  26
ENDBRANCH   3  25
TORSDOF 6
ENDMDL
