MODEL 1
REMARK VINA RESULT:      -7.9      0.000      0.000
REMARK  Name = 
REMARK  6 active torsions:
REMARK  status: ('A' for Active; 'I' for Inactive)
REMARK    1  A    between atoms: C_2  and  O_3
REMARK    2  A    between atoms: O_3  and  C_4
REMARK    3  A    between atoms: C_8  and  C_9
REMARK    4  A    between atoms: C_19  and  O_20
REMARK    5  A    between atoms: O_20  and  C_21
REMARK    6  A    between atoms: C_21  and  C_22
REMARK                            x       y       z     vdW  Elec       q    Type
REMARK                         _______ _______ _______ _____ _____    ______ ____
ROOT
ATOM      1  C   UNL     1      36.506   2.647  13.955  0.00  0.00    +0.000 C 
ATOM      2  N   UNL     1      35.220   2.910  14.870  0.00  0.00    +0.000 NA
ATOM      3  C   UNL     1      35.308   2.186  16.034  0.00  0.00    +0.000 C 
ATOM      4  C   UNL     1      36.354   2.654  16.983  0.00  0.00    +0.000 C 
ATOM      5  C   UNL     1      37.327   3.476  16.217  0.00  0.00    +0.000 A 
ATOM      6  C   UNL     1      37.466   3.537  14.904  0.00  0.00    +0.000 A 
ATOM      7  N   UNL     1      38.422   4.362  14.541  0.00  0.00    +0.000 NA
ATOM      8  C   UNL     1      38.944   4.874  15.669  0.00  0.00    +0.000 A 
ATOM      9  C   UNL     1      39.969   5.788  15.924  0.00  0.00    +0.000 A 
ATOM     10  C   UNL     1      40.307   6.146  17.211  0.00  0.00    +0.000 A 
ATOM     11  C   UNL     1      39.648   5.616  18.297  0.00  0.00    +0.000 A 
ATOM     12  C   UNL     1      38.628   4.706  18.034  0.00  0.00    +0.000 A 
ATOM     13  C   UNL     1      38.274   4.334  16.749  0.00  0.00    +0.000 A 
ENDROOT
BRANCH   1  18
ATOM     14  C   UNL     1      36.429  -0.946  15.214  0.00  0.00    +0.000 A 
ATOM     15  C   UNL     1      37.769  -1.174  15.465  0.00  0.00    +0.000 A 
ATOM     16  C   UNL     1      38.690  -0.181  15.235  0.00  0.00    +0.000 A 
ATOM     17  C   UNL     1      38.235   1.051  14.744  0.00  0.00    +0.000 A 
ATOM     18  C   UNL     1      36.925   1.227  14.513  0.00  0.00    +0.000 A 
ATOM     19  C   UNL     1      35.986   0.284  14.724  0.00  0.00    +0.000 A 
BRANCH  14  20
ATOM     20  O   UNL     1      35.509  -1.948  15.447  0.00  0.00    +0.000 OA
BRANCH  20  22
ATOM     21  C   UNL     1      34.534  -1.256  17.514  0.00  0.00    +0.000 C 
ATOM     22  C   UNL     1      35.247  -2.368  16.763  0.00  0.00    +0.000 C 
ENDBRANCH  20  22
ENDBRANCH  14  20
ENDBRANCH   1  18
BRANCH  11  23
ATOM     23  O   UNL     1      39.981   5.970  19.596  0.00  0.00    +0.000 OA
BRANCH  23  24
ATOM     24  C   UNL     1      40.866   7.051  19.793  0.00  0.00    +0.000 C 
BRANCH  24  25
ATOM     25  C   UNL     1      40.106   8.257  20.198  0.00  0.00    +0.000 A 
ATOM     26  C   UNL     1      38.733   8.188  20.380  0.00  0.00    +0.000 A 
ATOM     27  C   UNL     1      38.003   9.301  20.751  0.00  0.00    +0.000 A 
ATOM     28  C   UNL     1      38.611  10.514  20.953  0.00  0.00    +0.000 A 
ATOM     29  C   UNL     1      39.994  10.599  20.774  0.00  0.00    +0.000 A 
ATOM     30  C   UNL     1      40.708   9.479  20.404  0.00  0.00    +0.000 A 
ENDBRANCH  24  25
ENDBRANCH  23  24
ENDBRANCH  11  23
TORSDOF 6
ENDMDL
MODEL 2
REMARK VINA RESULT:      -7.9      2.374      4.148
REMARK  Name = 
REMARK  6 active torsions:
REMARK  status: ('A' for Active; 'I' for Inactive)
REMARK    1  A    between atoms: C_2  and  O_3
REMARK    2  A    between atoms: O_3  and  C_4
REMARK    3  A    between atoms: C_8  and  C_9
REMARK    4  A    between atoms: C_19  and  O_20
REMARK    5  A    between atoms: O_20  and  C_21
REMARK    6  A    between atoms: C_21  and  C_22
REMARK                            x       y       z     vdW  Elec       q    Type
REMARK                         _______ _______ _______ _____ _____    ______ ____
ROOT
ATOM      1  C   UNL     1      35.117  -1.137  16.092  0.00  0.00    +0.000 C 
ATOM      2  N   UNL     1      34.597  -0.846  17.576  0.00  0.00    +0.000 NA
ATOM      3  C   UNL     1      35.658  -0.750  18.443  0.00  0.00    +0.000 C 
ATOM      4  C   UNL     1      36.504   0.461  18.263  0.00  0.00    +0.000 C 
ATOM      5  C   UNL     1      36.248   0.994  16.899  0.00  0.00    +0.000 A 
ATOM      6  C   UNL     1      35.655   0.375  15.895  0.00  0.00    +0.000 A 
ATOM      7  N   UNL     1      35.585   1.124  14.817  0.00  0.00    +0.000 NA
ATOM      8  C   UNL     1      36.161   2.299  15.122  0.00  0.00    +0.000 A 
ATOM      9  C   UNL     1      36.385   3.475  14.400  0.00  0.00    +0.000 A 
ATOM     10  C   UNL     1      37.015   4.558  14.973  0.00  0.00    +0.000 A 
ATOM     11  C   UNL     1      37.451   4.525  16.278  0.00  0.00    +0.000 A 
ATOM     12  C   UNL     1      37.223   3.350  16.989  0.00  0.00    +0.000 A 
ATOM     13  C   UNL     1      36.592   2.252  16.433  0.00  0.00    +0.000 A 
ENDROOT
BRANCH   1  18
ATOM     14  C   UNL     1      38.823  -2.005  16.196  0.00  0.00    +0.000 A 
ATOM     15  C   UNL     1      38.837  -3.025  17.128  0.00  0.00    +0.000 A 
ATOM     16  C   UNL     1      37.665  -3.434  17.718  0.00  0.00    +0.000 A 
ATOM     17  C   UNL     1      36.473  -2.792  17.349  0.00  0.00    +0.000 A 
ATOM     18  C   UNL     1      36.508  -1.805  16.440  0.00  0.00    +0.000 A 
ATOM     19  C   UNL     1      37.632  -1.372  15.837  0.00  0.00    +0.000 A 
BRANCH  14  20
ATOM     20  O   UNL     1      40.004  -1.599  15.609  0.00  0.00    +0.000 OA
BRANCH  20  22
ATOM     21  C   UNL     1      41.398  -0.332  14.140  0.00  0.00    +0.000 C 
ATOM     22  C   UNL     1      39.976  -0.720  14.511  0.00  0.00    +0.000 C 
ENDBRANCH  20  22
ENDBRANCH  14  20
ENDBRANCH   1  18
BRANCH  11  23
ATOM     23  O   UNL     1      38.086   5.610  16.862  0.00  0.00    +0.000 OA
BRANCH  23  24
ATOM     24  C   UNL     1      38.464   5.520  18.218  0.00  0.00    +0.000 C 
BRANCH  24  25
ATOM     25  C   UNL     1      39.881   5.924  18.375  0.00  0.00    +0.000 A 
ATOM     26  C   UNL     1      40.407   6.149  19.639  0.00  0.00    +0.000 A 
ATOM     27  C   UNL     1      41.724   6.532  19.809  0.00  0.00    +0.000 A 
ATOM     28  C   UNL     1      42.558   6.705  18.733  0.00  0.00    +0.000 A 
ATOM     29  C   UNL     1      42.042   6.482  17.454  0.00  0.00    +0.000 A 
ATOM     30  C   UNL     1      40.726   6.099  17.301  0.00  0.00    +0.000 A 
ENDBRANCH  24  25
ENDBRANCH  23  24
ENDBRANCH  11  23
TORSDOF 6
ENDMDL
MODEL 3
REMARK VINA RESULT:      -7.9      1.459      2.592
REMARK  Name = 
REMARK  6 active torsions:
REMARK  status: ('A' for Active; 'I' for Inactive)
REMARK    1  A    between atoms: C_2  and  O_3
REMARK    2  A    between atoms: O_3  and  C_4
REMARK    3  A    between atoms: C_8  and  C_9
REMARK    4  A    between atoms: C_19  and  O_20
REMARK    5  A    between atoms: O_20  and  C_21
REMARK    6  A    between atoms: C_21  and  C_22
REMARK                            x       y       z     vdW  Elec       q    Type
REMARK                         _______ _______ _______ _____ _____    ______ ____
ROOT
ATOM      1  C   UNL     1      36.370   2.755  14.069  0.00  0.00    +0.000 C 
ATOM      2  N   UNL     1      35.141   3.001  15.064  0.00  0.00    +0.000 NA
ATOM      3  C   UNL     1      35.301   2.259  16.209  0.00  0.00    +0.000 C 
ATOM      4  C   UNL     1      36.401   2.715  17.100  0.00  0.00    +0.000 C 
ATOM      5  C   UNL     1      37.325   3.550  16.289  0.00  0.00    +0.000 A 
ATOM      6  C   UNL     1      37.384   3.633  14.972  0.00  0.00    +0.000 A 
ATOM      7  N   UNL     1      38.315   4.465  14.564  0.00  0.00    +0.000 NA
ATOM      8  C   UNL     1      38.904   4.960  15.666  0.00  0.00    +0.000 A 
ATOM      9  C   UNL     1      39.942   5.873  15.872  0.00  0.00    +0.000 A 
ATOM     10  C   UNL     1      40.357   6.211  17.143  0.00  0.00    +0.000 A 
ATOM     11  C   UNL     1      39.766   5.662  18.258  0.00  0.00    +0.000 A 
ATOM     12  C   UNL     1      38.733   4.755  18.043  0.00  0.00    +0.000 A 
ATOM     13  C   UNL     1      38.302   4.403  16.776  0.00  0.00    +0.000 A 
ENDROOT
BRANCH   1  18
ATOM     14  C   UNL     1      36.375  -0.863  15.255  0.00  0.00    +0.000 A 
ATOM     15  C   UNL     1      37.726  -1.086  15.441  0.00  0.00    +0.000 A 
ATOM     16  C   UNL     1      38.630  -0.081  15.190  0.00  0.00    +0.000 A 
ATOM     17  C   UNL     1      38.144   1.158  14.745  0.00  0.00    +0.000 A 
ATOM     18  C   UNL     1      36.823   1.328  14.578  0.00  0.00    +0.000 A 
ATOM     19  C   UNL     1      35.902   0.373  14.811  0.00  0.00    +0.000 A 
BRANCH  14  20
ATOM     20  O   UNL     1      35.473  -1.876  15.508  0.00  0.00    +0.000 OA
BRANCH  20  22
ATOM     21  C   UNL     1      34.677  -1.257  17.673  0.00  0.00    +0.000 C 
ATOM     22  C   UNL     1      35.301  -2.350  16.821  0.00  0.00    +0.000 C 
ENDBRANCH  20  22
ENDBRANCH  14  20
ENDBRANCH   1  18
BRANCH  11  23
ATOM     23  O   UNL     1      40.178   5.997  19.539  0.00  0.00    +0.000 OA
BRANCH  23  24
ATOM     24  C   UNL     1      40.961   7.157  19.714  0.00  0.00    +0.000 C 
BRANCH  24  25
ATOM     25  C   UNL     1      42.353   6.778  20.058  0.00  0.00    +0.000 A 
ATOM     26  C   UNL     1      43.396   7.106  19.204  0.00  0.00    +0.000 A 
ATOM     27  C   UNL     1      44.700   6.758  19.501  0.00  0.00    +0.000 A 
ATOM     28  C   UNL     1      45.009   6.075  20.650  0.00  0.00    +0.000 A 
ATOM     29  C   UNL     1      43.968   5.737  21.519  0.00  0.00    +0.000 A 
ATOM     30  C   UNL     1      42.672   6.092  21.209  0.00  0.00    +0.000 A 
ENDBRANCH  24  25
ENDBRANCH  23  24
ENDBRANCH  11  23
TORSDOF 6
ENDMDL
MODEL 4
REMARK VINA RESULT:      -7.8      2.381      9.094
REMARK  Name = 
REMARK  6 active torsions:
REMARK  status: ('A' for Active; 'I' for Inactive)
REMARK    1  A    between atoms: C_2  and  O_3
REMARK    2  A    between atoms: O_3  and  C_4
REMARK    3  A    between atoms: C_8  and  C_9
REMARK    4  A    between atoms: C_19  and  O_20
REMARK    5  A    between atoms: O_20  and  C_21
REMARK    6  A    between atoms: C_21  and  C_22
REMARK                            x       y       z     vdW  Elec       q    Type
REMARK                         _______ _______ _______ _____ _____    ______ ____
ROOT
ATOM      1  C   UNL     1      42.661   8.017  18.416  0.00  0.00    +0.000 C 
ATOM      2  N   UNL     1      42.993   7.034  19.634  0.00  0.00    +0.000 NA
ATOM      3  C   UNL     1      41.990   7.080  20.571  0.00  0.00    +0.000 C 
ATOM      4  C   UNL     1      40.704   6.469  20.139  0.00  0.00    +0.000 C 
ATOM      5  C   UNL     1      40.712   6.398  18.654  0.00  0.00    +0.000 A 
ATOM      6  C   UNL     1      41.522   7.033  17.825  0.00  0.00    +0.000 A 
ATOM      7  N   UNL     1      41.267   6.755  16.567  0.00  0.00    +0.000 NA
ATOM      8  C   UNL     1      40.236   5.893  16.559  0.00  0.00    +0.000 A 
ATOM      9  C   UNL     1      39.529   5.250  15.540  0.00  0.00    +0.000 A 
ATOM     10  C   UNL     1      38.487   4.393  15.820  0.00  0.00    +0.000 A 
ATOM     11  C   UNL     1      38.101   4.137  17.116  0.00  0.00    +0.000 A 
ATOM     12  C   UNL     1      38.811   4.781  18.126  0.00  0.00    +0.000 A 
ATOM     13  C   UNL     1      39.859   5.645  17.864  0.00  0.00    +0.000 A 
ENDROOT
BRANCH   1  18
ATOM     14  C   UNL     1      39.677  10.184  19.366  0.00  0.00    +0.000 A 
ATOM     15  C   UNL     1      40.124  10.761  20.540  0.00  0.00    +0.000 A 
ATOM     16  C   UNL     1      41.375  10.459  21.022  0.00  0.00    +0.000 A 
ATOM     17  C   UNL     1      42.171   9.560  20.296  0.00  0.00    +0.000 A 
ATOM     18  C   UNL     1      41.695   9.023  19.162  0.00  0.00    +0.000 A 
ATOM     19  C   UNL     1      40.477   9.290  18.652  0.00  0.00    +0.000 A 
BRANCH  14  20
ATOM     20  O   UNL     1      38.420  10.491  18.888  0.00  0.00    +0.000 OA
BRANCH  20  22
ATOM     21  C   UNL     1      37.102   8.644  19.635  0.00  0.00    +0.000 C 
ATOM     22  C   UNL     1      37.569   9.464  18.443  0.00  0.00    +0.000 C 
ENDBRANCH  20  22
ENDBRANCH  14  20
ENDBRANCH   1  18
BRANCH  11  23
ATOM     23  O   UNL     1      37.053   3.276  17.408  0.00  0.00    +0.000 OA
BRANCH  23  24
ATOM     24  C   UNL     1      36.108   3.000  16.398  0.00  0.00    +0.000 C 
BRANCH  24  25
ATOM     25  C   UNL     1      35.882   1.538  16.305  0.00  0.00    +0.000 A 
ATOM     26  C   UNL     1      34.969   0.918  17.146  0.00  0.00    +0.000 A 
ATOM     27  C   UNL     1      34.747  -0.444  17.081  0.00  0.00    +0.000 A 
ATOM     28  C   UNL     1      35.421  -1.232  16.183  0.00  0.00    +0.000 A 
ATOM     29  C   UNL     1      36.344  -0.622  15.329  0.00  0.00    +0.000 A 
ATOM     30  C   UNL     1      36.554   0.739  15.406  0.00  0.00    +0.000 A 
ENDBRANCH  24  25
ENDBRANCH  23  24
ENDBRANCH  11  23
TORSDOF 6
ENDMDL
MODEL 5
REMARK VINA RESULT:      -7.7      1.154      2.145
REMARK  Name = 
REMARK  6 active torsions:
REMARK  status: ('A' for Active; 'I' for Inactive)
REMARK    1  A    between atoms: C_2  and  O_3
REMARK    2  A    between atoms: O_3  and  C_4
REMARK    3  A    between atoms: C_8  and  C_9
REMARK    4  A    between atoms: C_19  and  O_20
REMARK    5  A    between atoms: O_20  and  C_21
REMARK    6  A    between atoms: C_21  and  C_22
REMARK                            x       y       z     vdW  Elec       q    Type
REMARK                         _______ _______ _______ _____ _____    ______ ____
ROOT
ATOM      1  C   UNL     1      36.716   3.124  13.911  0.00  0.00    +0.000 C 
ATOM      2  N   UNL     1      35.426   3.493  14.781  0.00  0.00    +0.000 NA
ATOM      3  C   UNL     1      35.396   2.743  15.931  0.00  0.00    +0.000 C 
ATOM      4  C   UNL     1      36.443   3.089  16.930  0.00  0.00    +0.000 C 
ATOM      5  C   UNL     1      37.521   3.826  16.221  0.00  0.00    +0.000 A 
ATOM      6  C   UNL     1      37.718   3.898  14.916  0.00  0.00    +0.000 A 
ATOM      7  N   UNL     1      38.764   4.632  14.609  0.00  0.00    +0.000 NA
ATOM      8  C   UNL     1      39.286   5.070  15.767  0.00  0.00    +0.000 A 
ATOM      9  C   UNL     1      40.384   5.875  16.082  0.00  0.00    +0.000 A 
ATOM     10  C   UNL     1      40.703   6.174  17.389  0.00  0.00    +0.000 A 
ATOM     11  C   UNL     1      39.952   5.690  18.436  0.00  0.00    +0.000 A 
ATOM     12  C   UNL     1      38.860   4.890  18.114  0.00  0.00    +0.000 A 
ATOM     13  C   UNL     1      38.525   4.578  16.808  0.00  0.00    +0.000 A 
ENDROOT
BRANCH   1  18
ATOM     14  C   UNL     1      38.379  -0.045  15.212  0.00  0.00    +0.000 A 
ATOM     15  C   UNL     1      37.286  -0.873  15.387  0.00  0.00    +0.000 A 
ATOM     16  C   UNL     1      36.025  -0.419  15.086  0.00  0.00    +0.000 A 
ATOM     17  C   UNL     1      35.884   0.891  14.606  0.00  0.00    +0.000 A 
ATOM     18  C   UNL     1      36.973   1.660  14.453  0.00  0.00    +0.000 A 
ATOM     19  C   UNL     1      38.228   1.258  14.734  0.00  0.00    +0.000 A 
BRANCH  14  20
ATOM     20  O   UNL     1      39.643  -0.507  15.516  0.00  0.00    +0.000 OA
BRANCH  20  22
ATOM     21  C   UNL     1      40.282  -2.808  15.474  0.00  0.00    +0.000 C 
ATOM     22  C   UNL     1      40.242  -1.493  14.713  0.00  0.00    +0.000 C 
ENDBRANCH  20  22
ENDBRANCH  14  20
ENDBRANCH   1  18
BRANCH  11  23
ATOM     23  O   UNL     1      40.266   5.986  19.755  0.00  0.00    +0.000 OA
BRANCH  23  24
ATOM     24  C   UNL     1      40.995   7.163  20.026  0.00  0.00    +0.000 C 
BRANCH  24  25
ATOM     25  C   UNL     1      40.062   8.282  20.299  0.00  0.00    +0.000 A 
ATOM     26  C   UNL     1      40.555   9.548  20.579  0.00  0.00    +0.000 A 
ATOM     27  C   UNL     1      39.704  10.605  20.844  0.00  0.00    +0.000 A 
ATOM     28  C   UNL     1      38.342  10.439  20.838  0.00  0.00    +0.000 A 
ATOM     29  C   UNL     1      37.831   9.169  20.557  0.00  0.00    +0.000 A 
ATOM     30  C   UNL     1      38.693   8.125  20.295  0.00  0.00    +0.000 A 
ENDBRANCH  24  25
ENDBRANCH  23  24
ENDBRANCH  11  23
TORSDOF 6
ENDMDL
MODEL 6
REMARK VINA RESULT:      -7.7      2.379      8.322
REMARK  Name = 
REMARK  6 active torsions:
REMARK  status: ('A' for Active; 'I' for Inactive)
REMARK    1  A    between atoms: C_2  and  O_3
REMARK    2  A    between atoms: O_3  and  C_4
REMARK    3  A    between atoms: C_8  and  C_9
REMARK    4  A    between atoms: C_19  and  O_20
REMARK    5  A    between atoms: O_20  and  C_21
REMARK    6  A    between atoms: C_21  and  C_22
REMARK                            x       y       z     vdW  Elec       q    Type
REMARK                         _______ _______ _______ _____ _____    ______ ____
ROOT
ATOM      1  C   UNL     1      40.245   7.367  17.214  0.00  0.00    +0.000 C 
ATOM      2  N   UNL     1      40.946   6.210  18.069  0.00  0.00    +0.000 NA
ATOM      3  C   UNL     1      40.129   5.820  19.102  0.00  0.00    +0.000 C 
ATOM      4  C   UNL     1      38.908   5.079  18.686  0.00  0.00    +0.000 C 
ATOM      5  C   UNL     1      38.666   5.371  17.249  0.00  0.00    +0.000 A 
ATOM      6  C   UNL     1      39.201   6.341  16.527  0.00  0.00    +0.000 A 
ATOM      7  N   UNL     1      38.780   6.328  15.283  0.00  0.00    +0.000 NA
ATOM      8  C   UNL     1      37.922   5.299  15.173  0.00  0.00    +0.000 A 
ATOM      9  C   UNL     1      37.165   4.789  14.114  0.00  0.00    +0.000 A 
ATOM     10  C   UNL     1      36.347   3.693  14.282  0.00  0.00    +0.000 A 
ATOM     11  C   UNL     1      36.242   3.058  15.498  0.00  0.00    +0.000 A 
ATOM     12  C   UNL     1      37.000   3.572  16.547  0.00  0.00    +0.000 A 
ATOM     13  C   UNL     1      37.827   4.671  16.399  0.00  0.00    +0.000 A 
ENDROOT
BRANCH   1  18
ATOM     14  C   UNL     1      37.177   8.681  19.046  0.00  0.00    +0.000 A 
ATOM     15  C   UNL     1      37.694   8.919  20.306  0.00  0.00    +0.000 A 
ATOM     16  C   UNL     1      39.020   8.662  20.564  0.00  0.00    +0.000 A 
ATOM     17  C   UNL     1      39.817   8.158  19.526  0.00  0.00    +0.000 A 
ATOM     18  C   UNL     1      39.271   7.941  18.320  0.00  0.00    +0.000 A 
ATOM     19  C   UNL     1      37.979   8.178  18.020  0.00  0.00    +0.000 A 
BRANCH  14  20
ATOM     20  O   UNL     1      35.846   8.940  18.793  0.00  0.00    +0.000 OA
BRANCH  20  22
ATOM     21  C   UNL     1      33.965   9.796  17.596  0.00  0.00    +0.000 C 
ATOM     22  C   UNL     1      35.480   9.696  17.665  0.00  0.00    +0.000 C 
ENDBRANCH  20  22
ENDBRANCH  14  20
ENDBRANCH   1  18
BRANCH  11  23
ATOM     23  O   UNL     1      35.420   1.954  15.676  0.00  0.00    +0.000 OA
BRANCH  23  24
ATOM     24  C   UNL     1      35.962   0.670  15.459  0.00  0.00    +0.000 C 
BRANCH  24  25
ATOM     25  C   UNL     1      36.227   0.009  16.759  0.00  0.00    +0.000 A 
ATOM     26  C   UNL     1      37.181  -0.995  16.849  0.00  0.00    +0.000 A 
ATOM     27  C   UNL     1      37.439  -1.630  18.049  0.00  0.00    +0.000 A 
ATOM     28  C   UNL     1      36.762  -1.291  19.193  0.00  0.00    +0.000 A 
ATOM     29  C   UNL     1      35.798  -0.282  19.117  0.00  0.00    +0.000 A 
ATOM     30  C   UNL     1      35.552   0.343  17.912  0.00  0.00    +0.000 A 
ENDBRANCH  24  25
ENDBRANCH  23  24
ENDBRANCH  11  23
TORSDOF 6
ENDMDL
MODEL 7
REMARK VINA RESULT:      -7.6      1.914      3.443
REMARK  Name = 
REMARK  6 active torsions:
REMARK  status: ('A' for Active; 'I' for Inactive)
REMARK    1  A    between atoms: C_2  and  O_3
REMARK    2  A    between atoms: O_3  and  C_4
REMARK    3  A    between atoms: C_8  and  C_9
REMARK    4  A    between atoms: C_19  and  O_20
REMARK    5  A    between atoms: O_20  and  C_21
REMARK    6  A    between atoms: C_21  and  C_22
REMARK                            x       y       z     vdW  Elec       q    Type
REMARK                         _______ _______ _______ _____ _____    ______ ____
ROOT
ATOM      1  C   UNL     1      36.629   3.117  13.947  0.00  0.00    +0.000 C 
ATOM      2  N   UNL     1      35.368   3.395  14.892  0.00  0.00    +0.000 NA
ATOM      3  C   UNL     1      35.436   2.614  16.019  0.00  0.00    +0.000 C 
ATOM      4  C   UNL     1      36.514   2.989  16.974  0.00  0.00    +0.000 C 
ATOM      5  C   UNL     1      37.515   3.800  16.232  0.00  0.00    +0.000 A 
ATOM      6  C   UNL     1      37.640   3.917  14.922  0.00  0.00    +0.000 A 
ATOM      7  N   UNL     1      38.629   4.713  14.584  0.00  0.00    +0.000 NA
ATOM      8  C   UNL     1      39.188   5.147  15.727  0.00  0.00    +0.000 A 
ATOM      9  C   UNL     1      40.258   6.000  16.009  0.00  0.00    +0.000 A 
ATOM     10  C   UNL     1      40.629   6.281  17.306  0.00  0.00    +0.000 A 
ATOM     11  C   UNL     1      39.959   5.731  18.376  0.00  0.00    +0.000 A 
ATOM     12  C   UNL     1      38.894   4.882  18.085  0.00  0.00    +0.000 A 
ATOM     13  C   UNL     1      38.508   4.588  16.790  0.00  0.00    +0.000 A 
ENDROOT
BRANCH   1  18
ATOM     14  C   UNL     1      38.510   0.027  15.135  0.00  0.00    +0.000 A 
ATOM     15  C   UNL     1      37.479  -0.884  15.267  0.00  0.00    +0.000 A 
ATOM     16  C   UNL     1      36.189  -0.510  14.974  0.00  0.00    +0.000 A 
ATOM     17  C   UNL     1      35.957   0.805  14.545  0.00  0.00    +0.000 A 
ATOM     18  C   UNL     1      36.988   1.656  14.432  0.00  0.00    +0.000 A 
ATOM     19  C   UNL     1      38.267   1.334  14.708  0.00  0.00    +0.000 A 
BRANCH  14  20
ATOM     20  O   UNL     1      39.802  -0.354  15.432  0.00  0.00    +0.000 OA
BRANCH  20  22
ATOM     21  C   UNL     1      41.719  -0.542  14.020  0.00  0.00    +0.000 C 
ATOM     22  C   UNL     1      40.487  -1.236  14.577  0.00  0.00    +0.000 C 
ENDBRANCH  20  22
ENDBRANCH  14  20
ENDBRANCH   1  18
BRANCH  11  23
ATOM     23  O   UNL     1      40.325   6.007  19.685  0.00  0.00    +0.000 OA
BRANCH  23  24
ATOM     24  C   UNL     1      41.104   7.156  19.937  0.00  0.00    +0.000 C 
BRANCH  24  25
ATOM     25  C   UNL     1      42.506   6.764  20.216  0.00  0.00    +0.000 A 
ATOM     26  C   UNL     1      43.522   7.146  19.352  0.00  0.00    +0.000 A 
ATOM     27  C   UNL     1      44.835   6.786  19.588  0.00  0.00    +0.000 A 
ATOM     28  C   UNL     1      45.180   6.037  20.685  0.00  0.00    +0.000 A 
ATOM     29  C   UNL     1      44.167   5.644  21.563  0.00  0.00    +0.000 A 
ATOM     30  C   UNL     1      42.862   6.012  21.314  0.00  0.00    +0.000 A 
ENDBRANCH  24  25
ENDBRANCH  23  24
ENDBRANCH  11  23
TORSDOF 6
ENDMDL
MODEL 8
REMARK VINA RESULT:      -7.6     22.999     26.765
REMARK  Name = 
REMARK  6 active torsions:
REMARK  status: ('A' for Active; 'I' for Inactive)
REMARK    1  A    between atoms: C_2  and  O_3
REMARK    2  A    between atoms: O_3  and  C_4
REMARK    3  A    between atoms: C_8  and  C_9
REMARK    4  A    between atoms: C_19  and  O_20
REMARK    5  A    between atoms: O_20  and  C_21
REMARK    6  A    between atoms: C_21  and  C_22
REMARK                            x       y       z     vdW  Elec       q    Type
REMARK                         _______ _______ _______ _____ _____    ______ ____
ROOT
ATOM      1  C   UNL     1      10.835  -1.280  28.300  0.00  0.00    +0.000 C 
ATOM      2  N   UNL     1      10.882  -2.506  27.273  0.00  0.00    +0.000 NA
ATOM      3  C   UNL     1      10.804  -2.047  25.980  0.00  0.00    +0.000 C 
ATOM      4  C   UNL     1      12.007  -1.313  25.504  0.00  0.00    +0.000 C 
ATOM      5  C   UNL     1      12.771  -0.869  26.700  0.00  0.00    +0.000 A 
ATOM      6  C   UNL     1      12.345  -0.821  27.950  0.00  0.00    +0.000 A 
ATOM      7  N   UNL     1      13.268  -0.379  28.774  0.00  0.00    +0.000 NA
ATOM      8  C   UNL     1      14.361  -0.122  28.035  0.00  0.00    +0.000 A 
ATOM      9  C   UNL     1      15.636   0.360  28.342  0.00  0.00    +0.000 A 
ATOM     10  C   UNL     1      16.591   0.534  27.363  0.00  0.00    +0.000 A 
ATOM     11  C   UNL     1      16.325   0.240  26.045  0.00  0.00    +0.000 A 
ATOM     12  C   UNL     1      15.052  -0.240  25.749  0.00  0.00    +0.000 A 
ATOM     13  C   UNL     1      14.081  -0.421  26.716  0.00  0.00    +0.000 A 
ENDROOT
BRANCH   1  18
ATOM     14  C   UNL     1       9.772   1.942  26.572  0.00  0.00    +0.000 A 
ATOM     15  C   UNL     1       8.723   1.497  25.790  0.00  0.00    +0.000 A 
ATOM     16  C   UNL     1       8.357   0.173  25.819  0.00  0.00    +0.000 A 
ATOM     17  C   UNL     1       9.072  -0.699  26.653  0.00  0.00    +0.000 A 
ATOM     18  C   UNL     1      10.084  -0.223  27.394  0.00  0.00    +0.000 A 
ATOM     19  C   UNL     1      10.477   1.066  27.398  0.00  0.00    +0.000 A 
BRANCH  14  20
ATOM     20  O   UNL     1      10.134   3.273  26.538  0.00  0.00    +0.000 OA
BRANCH  20  22
ATOM     21  C   UNL     1      12.216   4.265  27.158  0.00  0.00    +0.000 C 
ATOM     22  C   UNL     1      11.395   3.644  26.040  0.00  0.00    +0.000 C 
ENDBRANCH  20  22
ENDBRANCH  14  20
ENDBRANCH   1  18
BRANCH  11  23
ATOM     23  O   UNL     1      17.280   0.412  25.054  0.00  0.00    +0.000 OA
BRANCH  23  24
ATOM     24  C   UNL     1      18.637   0.218  25.385  0.00  0.00    +0.000 C 
BRANCH  24  25
ATOM     25  C   UNL     1      19.327  -0.501  24.288  0.00  0.00    +0.000 A 
ATOM     26  C   UNL     1      20.143   0.191  23.405  0.00  0.00    +0.000 A 
ATOM     27  C   UNL     1      20.790  -0.458  22.370  0.00  0.00    +0.000 A 
ATOM     28  C   UNL     1      20.648  -1.809  22.180  0.00  0.00    +0.000 A 
ATOM     29  C   UNL     1      19.828  -2.520  23.061  0.00  0.00    +0.000 A 
ATOM     30  C   UNL     1      19.190  -1.858  24.089  0.00  0.00    +0.000 A 
ENDBRANCH  24  25
ENDBRANCH  23  24
ENDBRANCH  11  23
TORSDOF 6
ENDMDL
MODEL 9
REMARK VINA RESULT:      -7.5     24.000     27.113
REMARK  Name = 
REMARK  6 active torsions:
REMARK  status: ('A' for Active; 'I' for Inactive)
REMARK    1  A    between atoms: C_2  and  O_3
REMARK    2  A    between atoms: O_3  and  C_4
REMARK    3  A    between atoms: C_8  and  C_9
REMARK    4  A    between atoms: C_19  and  O_20
REMARK    5  A    between atoms: O_20  and  C_21
REMARK    6  A    between atoms: C_21  and  C_22
REMARK                            x       y       z     vdW  Elec       q    Type
REMARK                         _______ _______ _______ _____ _____    ______ ____
ROOT
ATOM      1  C   UNL     1      27.267  17.427  36.789  0.00  0.00    +0.000 C 
ATOM      2  N   UNL     1      25.862  17.950  37.349  0.00  0.00    +0.000 NA
ATOM      3  C   UNL     1      24.852  17.102  36.968  0.00  0.00    +0.000 C 
ATOM      4  C   UNL     1      24.871  15.770  37.631  0.00  0.00    +0.000 C 
ATOM      5  C   UNL     1      26.240  15.551  38.168  0.00  0.00    +0.000 A 
ATOM      6  C   UNL     1      27.338  16.219  37.861  0.00  0.00    +0.000 A 
ATOM      7  N   UNL     1      28.390  15.777  38.512  0.00  0.00    +0.000 NA
ATOM      8  C   UNL     1      27.970  14.764  39.290  0.00  0.00    +0.000 A 
ATOM      9  C   UNL     1      28.615  13.915  40.192  0.00  0.00    +0.000 A 
ATOM     10  C   UNL     1      27.925  12.935  40.873  0.00  0.00    +0.000 A 
ATOM     11  C   UNL     1      26.573  12.754  40.690  0.00  0.00    +0.000 A 
ATOM     12  C   UNL     1      25.938  13.605  39.789  0.00  0.00    +0.000 A 
ATOM     13  C   UNL     1      26.613  14.594  39.097  0.00  0.00    +0.000 A 
ENDROOT
BRANCH   1  18
ATOM     14  C   UNL     1      25.589  16.363  33.541  0.00  0.00    +0.000 A 
ATOM     15  C   UNL     1      25.917  15.021  33.493  0.00  0.00    +0.000 A 
ATOM     16  C   UNL     1      26.669  14.461  34.497  0.00  0.00    +0.000 A 
ATOM     17  C   UNL     1      27.087  15.282  35.555  0.00  0.00    +0.000 A 
ATOM     18  C   UNL     1      26.746  16.579  35.560  0.00  0.00    +0.000 A 
ATOM     19  C   UNL     1      26.011  17.171  34.598  0.00  0.00    +0.000 A 
BRANCH  14  20
ATOM     20  O   UNL     1      24.834  16.919  32.529  0.00  0.00    +0.000 OA
BRANCH  20  22
ATOM     21  C   UNL     1      24.084  18.811  31.278  0.00  0.00    +0.000 C 
ATOM     22  C   UNL     1      24.344  18.231  32.659  0.00  0.00    +0.000 C 
ENDBRANCH  20  22
ENDBRANCH  14  20
ENDBRANCH   1  18
BRANCH  11  23
ATOM     23  O   UNL     1      25.871  11.770  41.371  0.00  0.00    +0.000 OA
BRANCH  23  24
ATOM     24  C   UNL     1      26.273  11.442  42.682  0.00  0.00    +0.000 C 
BRANCH  24  25
ATOM     25  C   UNL     1      26.901  10.099  42.696  0.00  0.00    +0.000 A 
ATOM     26  C   UNL     1      26.274   9.030  42.072  0.00  0.00    +0.000 A 
ATOM     27  C   UNL     1      26.837   7.768  42.078  0.00  0.00    +0.000 A 
ATOM     28  C   UNL     1      28.036   7.528  42.700  0.00  0.00    +0.000 A 
ATOM     29  C   UNL     1      28.679   8.595  43.332  0.00  0.00    +0.000 A 
ATOM     30  C   UNL     1      28.104   9.848  43.318  0.00  0.00    +0.000 A 
ENDBRANCH  24  25
ENDBRANCH  23  24
ENDBRANCH  11  23
TORSDOF 6
ENDMDL
MODEL 10
REMARK VINA RESULT:      -7.5      1.726      8.460
REMARK  Name = 
REMARK  6 active torsions:
REMARK  status: ('A' for Active; 'I' for Inactive)
REMARK    1  A    between atoms: C_2  and  O_3
REMARK    2  A    between atoms: O_3  and  C_4
REMARK    3  A    between atoms: C_8  and  C_9
REMARK    4  A    between atoms: C_19  and  O_20
REMARK    5  A    between atoms: O_20  and  C_21
REMARK    6  A    between atoms: C_21  and  C_22
REMARK                            x       y       z     vdW  Elec       q    Type
REMARK                         _______ _______ _______ _____ _____    ______ ____
ROOT
ATOM      1  C   UNL     1      36.819   4.893  14.469  0.00  0.00    +0.000 C 
ATOM      2  N   UNL     1      37.550   4.181  13.237  0.00  0.00    +0.000 NA
ATOM      3  C   UNL     1      38.778   3.702  13.624  0.00  0.00    +0.000 C 
ATOM      4  C   UNL     1      38.731   2.541  14.554  0.00  0.00    +0.000 C 
ATOM      5  C   UNL     1      37.382   2.515  15.179  0.00  0.00    +0.000 A 
ATOM      6  C   UNL     1      36.486   3.486  15.192  0.00  0.00    +0.000 A 
ATOM      7  N   UNL     1      35.390   3.145  15.831  0.00  0.00    +0.000 NA
ATOM      8  C   UNL     1      35.567   1.884  16.262  0.00  0.00    +0.000 A 
ATOM      9  C   UNL     1      34.767   0.997  16.988  0.00  0.00    +0.000 A 
ATOM     10  C   UNL     1      35.208  -0.271  17.303  0.00  0.00    +0.000 A 
ATOM     11  C   UNL     1      36.453  -0.712  16.915  0.00  0.00    +0.000 A 
ATOM     12  C   UNL     1      37.242   0.179  16.193  0.00  0.00    +0.000 A 
ATOM     13  C   UNL     1      36.818   1.454  15.867  0.00  0.00    +0.000 A 
ENDROOT
BRANCH   1  18
ATOM     14  C   UNL     1      39.240   5.427  17.359  0.00  0.00    +0.000 A 
ATOM     15  C   UNL     1      40.337   5.949  16.702  0.00  0.00    +0.000 A 
ATOM     16  C   UNL     1      40.300   6.131  15.340  0.00  0.00    +0.000 A 
ATOM     17  C   UNL     1      39.132   5.774  14.651  0.00  0.00    +0.000 A 
ATOM     18  C   UNL     1      38.091   5.270  15.331  0.00  0.00    +0.000 A 
ATOM     19  C   UNL     1      38.082   5.075  16.664  0.00  0.00    +0.000 A 
BRANCH  14  20
ATOM     20  O   UNL     1      39.284   5.246  18.727  0.00  0.00    +0.000 OA
BRANCH  20  22
ATOM     21  C   UNL     1      39.382   7.177  20.129  0.00  0.00    +0.000 C 
ATOM     22  C   UNL     1      40.155   6.024  19.509  0.00  0.00    +0.000 C 
ENDBRANCH  20  22
ENDBRANCH  14  20
ENDBRANCH   1  18
BRANCH  11  23
ATOM     23  O   UNL     1      36.904  -1.986  17.228  0.00  0.00    +0.000 OA
BRANCH  23  24
ATOM     24  C   UNL     1      36.865  -2.978  16.226  0.00  0.00    +0.000 C 
BRANCH  24  25
ATOM     25  C   UNL     1      38.089  -2.902  15.393  0.00  0.00    +0.000 A 
ATOM     26  C   UNL     1      39.341  -2.918  15.990  0.00  0.00    +0.000 A 
ATOM     27  C   UNL     1      40.495  -2.841  15.234  0.00  0.00    +0.000 A 
ATOM     28  C   UNL     1      40.443  -2.747  13.867  0.00  0.00    +0.000 A 
ATOM     29  C   UNL     1      39.189  -2.730  13.251  0.00  0.00    +0.000 A 
ATOM     30  C   UNL     1      38.047  -2.808  14.020  0.00  0.00    +0.000 A 
ENDBRANCH  24  25
ENDBRANCH  23  24
ENDBRANCH  11  23
TORSDOF 6
ENDMDL
