MODEL 1
REMARK VINA RESULT:      -7.4      0.000      0.000
REMARK  Name = 
REMARK  4 active torsions:
REMARK  status: ('A' for Active; 'I' for Inactive)
REMARK    1  A    between atoms: C_2  and  C_3
REMARK    2  A    between atoms: C_3  and  N_4
REMARK    3  A    between atoms: C_5  and  C_7
REMARK    4  A    between atoms: C_9  and  C_10
REMARK                            x       y       z     vdW  Elec       q    Type
REMARK                         _______ _______ _______ _____ _____    ______ ____
ROOT
ATOM      1  C   UNL     1      14.502  12.613  35.694  0.00  0.00    +0.000 A 
ATOM      2  C   UNL     1      15.794  12.168  35.772  0.00  0.00    +0.000 A 
ATOM      3  C   UNL     1      16.191  11.376  36.825  0.00  0.00    +0.000 A 
ATOM      4  C   UNL     1      15.237  11.073  37.760  0.00  0.00    +0.000 A 
ATOM      5  N   UNL     1      13.972  11.506  37.689  0.00  0.00    +0.000 N 
ATOM      6  O   UNL     1      13.051  11.159  38.679  0.00  0.00    +0.000 OA
ATOM      7  C   UNL     1      13.600  12.273  36.662  0.00  0.00    +0.000 A 
ATOM      8  N   UNL     1      12.235  12.744  36.581  0.00  0.00    +0.000 NA
ENDROOT
BRANCH   3   9
ATOM      9  C   UNL     1      17.577  10.898  36.910  0.00  0.00    +0.000 A 
ATOM     10  C   UNL     1      18.000   9.951  36.007  0.00  0.00    +0.000 A 
ATOM     11  C   UNL     1      19.292   9.481  36.057  0.00  0.00    +0.000 A 
ATOM     12  C   UNL     1      20.209   9.921  36.988  0.00  0.00    +0.000 A 
ATOM     13  C   UNL     1      19.740  10.874  37.874  0.00  0.00    +0.000 A 
ATOM     14  C   UNL     1      18.457  11.363  37.852  0.00  0.00    +0.000 A 
ENDBRANCH   3   9
BRANCH   1  16
ATOM     15  N   UNL     1      14.279  13.051  33.217  0.00  0.00    +0.000 NA
ATOM     16  C   UNL     1      14.076  13.465  34.560  0.00  0.00    +0.000 C 
ATOM     17  O   UNL     1      13.535  14.554  34.780  0.00  0.00    +0.000 OA
BRANCH  15  18
ATOM     18  C   UNL     1      13.870  13.871  32.091  0.00  0.00    +0.000 C 
BRANCH  18  20
ATOM     19  C   UNL     1      15.611  13.650  30.414  0.00  0.00    +0.000 C 
ATOM     20  C   UNL     1      14.229  13.139  30.799  0.00  0.00    +0.000 C 
ENDBRANCH  18  20
ENDBRANCH  15  18
ENDBRANCH   1  16
TORSDOF 4
ENDMDL
MODEL 2
REMARK VINA RESULT:      -7.0     22.146     25.060
REMARK  Name = 
REMARK  4 active torsions:
REMARK  status: ('A' for Active; 'I' for Inactive)
REMARK    1  A    between atoms: C_2  and  C_3
REMARK    2  A    between atoms: C_3  and  N_4
REMARK    3  A    between atoms: C_5  and  C_7
REMARK    4  A    between atoms: C_9  and  C_10
REMARK                            x       y       z     vdW  Elec       q    Type
REMARK                         _______ _______ _______ _____ _____    ______ ____
ROOT
ATOM      1  C   UNL     1      33.739  -3.767  33.746  0.00  0.00    +0.000 A 
ATOM      2  C   UNL     1      33.645  -4.269  32.477  0.00  0.00    +0.000 A 
ATOM      3  C   UNL     1      34.364  -5.388  32.121  0.00  0.00    +0.000 A 
ATOM      4  C   UNL     1      35.153  -5.946  33.093  0.00  0.00    +0.000 A 
ATOM      5  N   UNL     1      35.248  -5.458  34.335  0.00  0.00    +0.000 N 
ATOM      6  O   UNL     1      36.074  -6.078  35.275  0.00  0.00    +0.000 OA
ATOM      7  C   UNL     1      34.546  -4.373  34.668  0.00  0.00    +0.000 A 
ATOM      8  N   UNL     1      34.645  -3.841  36.008  0.00  0.00    +0.000 NA
ENDROOT
BRANCH   3   9
ATOM      9  C   UNL     1      34.265  -5.930  30.760  0.00  0.00    +0.000 A 
ATOM     10  C   UNL     1      34.890  -7.123  30.482  0.00  0.00    +0.000 A 
ATOM     11  C   UNL     1      34.817  -7.659  29.217  0.00  0.00    +0.000 A 
ATOM     12  C   UNL     1      34.133  -7.048  28.187  0.00  0.00    +0.000 A 
ATOM     13  C   UNL     1      33.520  -5.852  28.513  0.00  0.00    +0.000 A 
ATOM     14  C   UNL     1      33.573  -5.289  29.764  0.00  0.00    +0.000 A 
ENDBRANCH   3   9
BRANCH   1  16
ATOM     15  N   UNL     1      33.446  -1.260  33.831  0.00  0.00    +0.000 NA
ATOM     16  C   UNL     1      32.965  -2.563  34.128  0.00  0.00    +0.000 C 
ATOM     17  O   UNL     1      31.884  -2.688  34.713  0.00  0.00    +0.000 OA
BRANCH  15  18
ATOM     18  C   UNL     1      32.704  -0.066  34.196  0.00  0.00    +0.000 C 
BRANCH  18  20
ATOM     19  C   UNL     1      34.226   0.572  32.417  0.00  0.00    +0.000 C 
ATOM     20  C   UNL     1      33.370   1.142  33.539  0.00  0.00    +0.000 C 
ENDBRANCH  18  20
ENDBRANCH  15  18
ENDBRANCH   1  16
TORSDOF 4
ENDMDL
MODEL 3
REMARK VINA RESULT:      -7.0     28.979     31.061
REMARK  Name = 
REMARK  4 active torsions:
REMARK  status: ('A' for Active; 'I' for Inactive)
REMARK    1  A    between atoms: C_2  and  C_3
REMARK    2  A    between atoms: C_3  and  N_4
REMARK    3  A    between atoms: C_5  and  C_7
REMARK    4  A    between atoms: C_9  and  C_10
REMARK                            x       y       z     vdW  Elec       q    Type
REMARK                         _______ _______ _______ _____ _____    ______ ____
ROOT
ATOM      1  C   UNL     1      32.350  21.353  10.821  0.00  0.00    +0.000 A 
ATOM      2  C   UNL     1      31.427  21.980  11.612  0.00  0.00    +0.000 A 
ATOM      3  C   UNL     1      30.099  21.992  11.250  0.00  0.00    +0.000 A 
ATOM      4  C   UNL     1      29.776  21.353  10.081  0.00  0.00    +0.000 A 
ATOM      5  N   UNL     1      30.675  20.739   9.303  0.00  0.00    +0.000 N 
ATOM      6  O   UNL     1      30.275  20.109   8.124  0.00  0.00    +0.000 OA
ATOM      7  C   UNL     1      31.960  20.735   9.667  0.00  0.00    +0.000 A 
ATOM      8  N   UNL     1      32.936  20.073   8.830  0.00  0.00    +0.000 NA
ENDROOT
BRANCH   3   9
ATOM      9  C   UNL     1      29.106  22.664  12.097  0.00  0.00    +0.000 A 
ATOM     10  C   UNL     1      29.532  23.251  13.266  0.00  0.00    +0.000 A 
ATOM     11  C   UNL     1      28.628  23.890  14.083  0.00  0.00    +0.000 A 
ATOM     12  C   UNL     1      27.285  23.976  13.785  0.00  0.00    +0.000 A 
ATOM     13  C   UNL     1      26.903  23.373  12.601  0.00  0.00    +0.000 A 
ATOM     14  C   UNL     1      27.778  22.727  11.763  0.00  0.00    +0.000 A 
ENDBRANCH   3   9
BRANCH   1  16
ATOM     15  N   UNL     1      34.331  20.252  11.935  0.00  0.00    +0.000 NA
ATOM     16  C   UNL     1      33.779  21.342  11.212  0.00  0.00    +0.000 C 
ATOM     17  O   UNL     1      34.506  22.294  10.907  0.00  0.00    +0.000 OA
BRANCH  15  18
ATOM     18  C   UNL     1      35.728  20.221  12.329  0.00  0.00    +0.000 C 
BRANCH  18  20
ATOM     19  C   UNL     1      36.599  19.602  14.509  0.00  0.00    +0.000 C 
ATOM     20  C   UNL     1      35.947  19.028  13.258  0.00  0.00    +0.000 C 
ENDBRANCH  18  20
ENDBRANCH  15  18
ENDBRANCH   1  16
TORSDOF 4
ENDMDL
MODEL 4
REMARK VINA RESULT:      -6.9     20.744     22.713
REMARK  Name = 
REMARK  4 active torsions:
REMARK  status: ('A' for Active; 'I' for Inactive)
REMARK    1  A    between atoms: C_2  and  C_3
REMARK    2  A    between atoms: C_3  and  N_4
REMARK    3  A    between atoms: C_5  and  C_7
REMARK    4  A    between atoms: C_9  and  C_10
REMARK                            x       y       z     vdW  Elec       q    Type
REMARK                         _______ _______ _______ _____ _____    ______ ____
ROOT
ATOM      1  C   UNL     1      18.864  -7.850  26.782  0.00  0.00    +0.000 A 
ATOM      2  C   UNL     1      20.078  -8.131  26.215  0.00  0.00    +0.000 A 
ATOM      3  C   UNL     1      20.815  -7.129  25.626  0.00  0.00    +0.000 A 
ATOM      4  C   UNL     1      20.269  -5.872  25.645  0.00  0.00    +0.000 A 
ATOM      5  N   UNL     1      19.083  -5.593  26.198  0.00  0.00    +0.000 N 
ATOM      6  O   UNL     1      18.586  -4.288  26.180  0.00  0.00    +0.000 OA
ATOM      7  C   UNL     1      18.378  -6.574  26.767  0.00  0.00    +0.000 A 
ATOM      8  N   UNL     1      17.096  -6.277  27.365  0.00  0.00    +0.000 NA
ENDROOT
BRANCH   3   9
ATOM      9  C   UNL     1      22.118  -7.428  25.017  0.00  0.00    +0.000 A 
ATOM     10  C   UNL     1      22.850  -6.389  24.494  0.00  0.00    +0.000 A 
ATOM     11  C   UNL     1      24.075  -6.633  23.917  0.00  0.00    +0.000 A 
ATOM     12  C   UNL     1      24.621  -7.897  23.834  0.00  0.00    +0.000 A 
ATOM     13  C   UNL     1      23.850  -8.910  24.375  0.00  0.00    +0.000 A 
ATOM     14  C   UNL     1      22.624  -8.701  24.957  0.00  0.00    +0.000 A 
ENDBRANCH   3   9
BRANCH   1  16
ATOM     15  N   UNL     1      18.113  -9.140  28.819  0.00  0.00    +0.000 NA
ATOM     16  C   UNL     1      18.072  -8.930  27.415  0.00  0.00    +0.000 C 
ATOM     17  O   UNL     1      17.363  -9.662  26.716  0.00  0.00    +0.000 OA
BRANCH  15  18
ATOM     18  C   UNL     1      17.345 -10.193  29.460  0.00  0.00    +0.000 C 
BRANCH  18  20
ATOM     19  C   UNL     1      19.069  -9.674  31.088  0.00  0.00    +0.000 C 
ATOM     20  C   UNL     1      17.633 -10.162  30.960  0.00  0.00    +0.000 C 
ENDBRANCH  18  20
ENDBRANCH  15  18
ENDBRANCH   1  16
TORSDOF 4
ENDMDL
MODEL 5
REMARK VINA RESULT:      -6.7      4.136      8.039
REMARK  Name = 
REMARK  4 active torsions:
REMARK  status: ('A' for Active; 'I' for Inactive)
REMARK    1  A    between atoms: C_2  and  C_3
REMARK    2  A    between atoms: C_3  and  N_4
REMARK    3  A    between atoms: C_5  and  C_7
REMARK    4  A    between atoms: C_9  and  C_10
REMARK                            x       y       z     vdW  Elec       q    Type
REMARK                         _______ _______ _______ _____ _____    ______ ____
ROOT
ATOM      1  C   UNL     1      16.669   9.715  39.907  0.00  0.00    +0.000 A 
ATOM      2  C   UNL     1      15.416  10.098  39.514  0.00  0.00    +0.000 A 
ATOM      3  C   UNL     1      15.242  10.796  38.340  0.00  0.00    +0.000 A 
ATOM      4  C   UNL     1      16.372  11.072  37.616  0.00  0.00    +0.000 A 
ATOM      5  N   UNL     1      17.600  10.699  37.996  0.00  0.00    +0.000 N 
ATOM      6  O   UNL     1      18.708  11.016  37.208  0.00  0.00    +0.000 OA
ATOM      7  C   UNL     1      17.755  10.023  39.136  0.00  0.00    +0.000 A 
ATOM      8  N   UNL     1      19.079   9.619  39.552  0.00  0.00    +0.000 NA
ENDROOT
BRANCH   3   9
ATOM      9  C   UNL     1      13.897  11.208  37.916  0.00  0.00    +0.000 A 
ATOM     10  C   UNL     1      13.780  12.269  37.050  0.00  0.00    +0.000 A 
ATOM     11  C   UNL     1      12.535  12.681  36.632  0.00  0.00    +0.000 A 
ATOM     12  C   UNL     1      11.370  12.070  37.046  0.00  0.00    +0.000 A 
ATOM     13  C   UNL     1      11.537  11.007  37.915  0.00  0.00    +0.000 A 
ATOM     14  C   UNL     1      12.764  10.571  38.352  0.00  0.00    +0.000 A 
ENDBRANCH   3   9
BRANCH   1  16
ATOM     15  N   UNL     1      16.666   7.559  41.221  0.00  0.00    +0.000 NA
ATOM     16  C   UNL     1      16.855   8.965  41.170  0.00  0.00    +0.000 C 
ATOM     17  O   UNL     1      17.181   9.567  42.199  0.00  0.00    +0.000 OA
BRANCH  15  18
ATOM     18  C   UNL     1      16.842   6.804  42.448  0.00  0.00    +0.000 C 
BRANCH  18  20
ATOM     19  C   UNL     1      18.593   5.646  41.231  0.00  0.00    +0.000 C 
ATOM     20  C   UNL     1      17.362   5.412  42.095  0.00  0.00    +0.000 C 
ENDBRANCH  18  20
ENDBRANCH  15  18
ENDBRANCH   1  16
TORSDOF 4
ENDMDL
MODEL 6
REMARK VINA RESULT:      -6.6      4.235      8.241
REMARK  Name = 
REMARK  4 active torsions:
REMARK  status: ('A' for Active; 'I' for Inactive)
REMARK    1  A    between atoms: C_2  and  C_3
REMARK    2  A    between atoms: C_3  and  N_4
REMARK    3  A    between atoms: C_5  and  C_7
REMARK    4  A    between atoms: C_9  and  C_10
REMARK                            x       y       z     vdW  Elec       q    Type
REMARK                         _______ _______ _______ _____ _____    ______ ____
ROOT
ATOM      1  C   UNL     1      16.764   9.693  39.873  0.00  0.00    +0.000 A 
ATOM      2  C   UNL     1      15.517  10.095  39.479  0.00  0.00    +0.000 A 
ATOM      3  C   UNL     1      15.351  10.774  38.293  0.00  0.00    +0.000 A 
ATOM      4  C   UNL     1      16.484  11.013  37.559  0.00  0.00    +0.000 A 
ATOM      5  N   UNL     1      17.706  10.623  37.940  0.00  0.00    +0.000 N 
ATOM      6  O   UNL     1      18.816  10.901  37.142  0.00  0.00    +0.000 OA
ATOM      7  C   UNL     1      17.852   9.964  39.093  0.00  0.00    +0.000 A 
ATOM      8  N   UNL     1      19.170   9.541  39.510  0.00  0.00    +0.000 NA
ENDROOT
BRANCH   3   9
ATOM      9  C   UNL     1      14.014  11.206  37.867  0.00  0.00    +0.000 A 
ATOM     10  C   UNL     1      12.920  10.548  38.378  0.00  0.00    +0.000 A 
ATOM     11  C   UNL     1      11.652  10.927  38.002  0.00  0.00    +0.000 A 
ATOM     12  C   UNL     1      11.414  11.958  37.118  0.00  0.00    +0.000 A 
ATOM     13  C   UNL     1      12.543  12.591  36.631  0.00  0.00    +0.000 A 
ATOM     14  C   UNL     1      13.822  12.238  36.985  0.00  0.00    +0.000 A 
ENDBRANCH   3   9
BRANCH   1  16
ATOM     15  N   UNL     1      17.287   9.649  42.344  0.00  0.00    +0.000 NA
ATOM     16  C   UNL     1      16.940   8.963  41.149  0.00  0.00    +0.000 C 
ATOM     17  O   UNL     1      16.784   7.737  41.182  0.00  0.00    +0.000 OA
BRANCH  15  18
ATOM     18  C   UNL     1      17.465   8.953  43.605  0.00  0.00    +0.000 C 
BRANCH  18  20
ATOM     19  C   UNL     1      15.692   7.642  44.619  0.00  0.00    +0.000 C 
ATOM     20  C   UNL     1      16.176   9.072  44.415  0.00  0.00    +0.000 C 
ENDBRANCH  18  20
ENDBRANCH  15  18
ENDBRANCH   1  16
TORSDOF 4
ENDMDL
MODEL 7
REMARK VINA RESULT:      -6.5      3.491      5.112
REMARK  Name = 
REMARK  4 active torsions:
REMARK  status: ('A' for Active; 'I' for Inactive)
REMARK    1  A    between atoms: C_2  and  C_3
REMARK    2  A    between atoms: C_3  and  N_4
REMARK    3  A    between atoms: C_5  and  C_7
REMARK    4  A    between atoms: C_9  and  C_10
REMARK                            x       y       z     vdW  Elec       q    Type
REMARK                         _______ _______ _______ _____ _____    ______ ____
ROOT
ATOM      1  C   UNL     1      18.626   9.897  37.090  0.00  0.00    +0.000 A 
ATOM      2  C   UNL     1      19.957   9.850  36.773  0.00  0.00    +0.000 A 
ATOM      3  C   UNL     1      20.906   9.837  37.771  0.00  0.00    +0.000 A 
ATOM      4  C   UNL     1      20.442   9.873  39.060  0.00  0.00    +0.000 A 
ATOM      5  N   UNL     1      19.142   9.919  39.375  0.00  0.00    +0.000 N 
ATOM      6  O   UNL     1      18.742   9.955  40.711  0.00  0.00    +0.000 OA
ATOM      7  C   UNL     1      18.233   9.931  38.398  0.00  0.00    +0.000 A 
ATOM      8  N   UNL     1      16.827   9.982  38.733  0.00  0.00    +0.000 NA
ENDROOT
BRANCH   3   9
ATOM      9  C   UNL     1      22.334   9.786  37.433  0.00  0.00    +0.000 A 
ATOM     10  C   UNL     1      22.726  10.196  36.180  0.00  0.00    +0.000 A 
ATOM     11  C   UNL     1      24.056  10.163  35.831  0.00  0.00    +0.000 A 
ATOM     12  C   UNL     1      25.042   9.729  36.692  0.00  0.00    +0.000 A 
ATOM     13  C   UNL     1      24.602   9.327  37.940  0.00  0.00    +0.000 A 
ATOM     14  C   UNL     1      23.282   9.348  38.320  0.00  0.00    +0.000 A 
ENDBRANCH   3   9
BRANCH   1  16
ATOM     15  N   UNL     1      16.972  11.121  35.626  0.00  0.00    +0.000 NA
ATOM     16  C   UNL     1      17.607   9.912  36.016  0.00  0.00    +0.000 C 
ATOM     17  O   UNL     1      17.300   8.859  35.447  0.00  0.00    +0.000 OA
BRANCH  15  18
ATOM     18  C   UNL     1      15.970  11.157  34.576  0.00  0.00    +0.000 C 
BRANCH  18  20
ATOM     19  C   UNL     1      16.388  10.555  32.263  0.00  0.00    +0.000 C 
ATOM     20  C   UNL     1      16.628  11.653  33.290  0.00  0.00    +0.000 C 
ENDBRANCH  18  20
ENDBRANCH  15  18
ENDBRANCH   1  16
TORSDOF 4
ENDMDL
MODEL 8
REMARK VINA RESULT:      -6.4     21.119     22.934
REMARK  Name = 
REMARK  4 active torsions:
REMARK  status: ('A' for Active; 'I' for Inactive)
REMARK    1  A    between atoms: C_2  and  C_3
REMARK    2  A    between atoms: C_3  and  N_4
REMARK    3  A    between atoms: C_5  and  C_7
REMARK    4  A    between atoms: C_9  and  C_10
REMARK                            x       y       z     vdW  Elec       q    Type
REMARK                         _______ _______ _______ _____ _____    ______ ____
ROOT
ATOM      1  C   UNL     1      19.978  -7.704  25.889  0.00  0.00    +0.000 A 
ATOM      2  C   UNL     1      19.345  -8.667  26.626  0.00  0.00    +0.000 A 
ATOM      3  C   UNL     1      18.283  -8.331  27.436  0.00  0.00    +0.000 A 
ATOM      4  C   UNL     1      17.916  -7.011  27.452  0.00  0.00    +0.000 A 
ATOM      5  N   UNL     1      18.533  -6.066  26.733  0.00  0.00    +0.000 N 
ATOM      6  O   UNL     1      18.106  -4.738  26.800  0.00  0.00    +0.000 OA
ATOM      7  C   UNL     1      19.561  -6.404  25.952  0.00  0.00    +0.000 A 
ATOM      8  N   UNL     1      20.231  -5.387  25.174  0.00  0.00    +0.000 NA
ENDROOT
BRANCH   3   9
ATOM      9  C   UNL     1      17.601  -9.363  28.228  0.00  0.00    +0.000 A 
ATOM     10  C   UNL     1      17.929  -9.492  29.557  0.00  0.00    +0.000 A 
ATOM     11  C   UNL     1      17.309 -10.448  30.328  0.00  0.00    +0.000 A 
ATOM     12  C   UNL     1      16.352 -11.304  29.827  0.00  0.00    +0.000 A 
ATOM     13  C   UNL     1      16.053 -11.137  28.487  0.00  0.00    +0.000 A 
ATOM     14  C   UNL     1      16.653 -10.194  27.689  0.00  0.00    +0.000 A 
ENDBRANCH   3   9
BRANCH   1  16
ATOM     15  N   UNL     1      22.442  -7.654  25.337  0.00  0.00    +0.000 NA
ATOM     16  C   UNL     1      21.121  -8.066  25.019  0.00  0.00    +0.000 C 
ATOM     17  O   UNL     1      20.927  -8.738  24.000  0.00  0.00    +0.000 OA
BRANCH  15  18
ATOM     18  C   UNL     1      23.576  -7.997  24.497  0.00  0.00    +0.000 C 
BRANCH  18  20
ATOM     19  C   UNL     1      25.546  -7.112  23.389  0.00  0.00    +0.000 C 
ATOM     20  C   UNL     1      24.194  -6.707  23.960  0.00  0.00    +0.000 C 
ENDBRANCH  18  20
ENDBRANCH  15  18
ENDBRANCH   1  16
TORSDOF 4
ENDMDL
MODEL 9
REMARK VINA RESULT:      -6.4     21.669     23.929
REMARK  Name = 
REMARK  4 active torsions:
REMARK  status: ('A' for Active; 'I' for Inactive)
REMARK    1  A    between atoms: C_2  and  C_3
REMARK    2  A    between atoms: C_3  and  N_4
REMARK    3  A    between atoms: C_5  and  C_7
REMARK    4  A    between atoms: C_9  and  C_10
REMARK                            x       y       z     vdW  Elec       q    Type
REMARK                         _______ _______ _______ _____ _____    ______ ____
ROOT
ATOM      1  C   UNL     1      33.624  -3.978  33.646  0.00  0.00    +0.000 A 
ATOM      2  C   UNL     1      33.637  -2.653  33.306  0.00  0.00    +0.000 A 
ATOM      3  C   UNL     1      33.751  -1.689  34.282  0.00  0.00    +0.000 A 
ATOM      4  C   UNL     1      33.847  -2.132  35.575  0.00  0.00    +0.000 A 
ATOM      5  N   UNL     1      33.834  -3.427  35.913  0.00  0.00    +0.000 N 
ATOM      6  O   UNL     1      33.935  -3.808  37.252  0.00  0.00    +0.000 OA
ATOM      7  C   UNL     1      33.724  -4.352  34.956  0.00  0.00    +0.000 A 
ATOM      8  N   UNL     1      33.709  -5.752  35.316  0.00  0.00    +0.000 NA
ENDROOT
BRANCH   3   9
ATOM      9  C   UNL     1      33.765  -0.266  33.919  0.00  0.00    +0.000 A 
ATOM     10  C   UNL     1      34.139   0.081  32.642  0.00  0.00    +0.000 A 
ATOM     11  C   UNL     1      34.162   1.405  32.268  0.00  0.00    +0.000 A 
ATOM     12  C   UNL     1      33.822   2.428  33.127  0.00  0.00    +0.000 A 
ATOM     13  C   UNL     1      33.452   2.032  34.400  0.00  0.00    +0.000 A 
ATOM     14  C   UNL     1      33.418   0.721  34.806  0.00  0.00    +0.000 A 
ENDBRANCH   3   9
BRANCH   1  16
ATOM     15  N   UNL     1      34.611  -5.365  31.781  0.00  0.00    +0.000 NA
ATOM     16  C   UNL     1      33.502  -5.014  32.595  0.00  0.00    +0.000 C 
ATOM     17  O   UNL     1      32.420  -5.586  32.419  0.00  0.00    +0.000 OA
BRANCH  15  18
ATOM     18  C   UNL     1      34.512  -6.376  30.744  0.00  0.00    +0.000 C 
BRANCH  18  20
ATOM     19  C   UNL     1      32.975  -5.925  28.920  0.00  0.00    +0.000 C 
ATOM     20  C   UNL     1      34.403  -5.678  29.389  0.00  0.00    +0.000 C 
ENDBRANCH  18  20
ENDBRANCH  15  18
ENDBRANCH   1  16
TORSDOF 4
ENDMDL
MODEL 10
REMARK VINA RESULT:      -6.2     19.686     21.988
REMARK  Name = 
REMARK  4 active torsions:
REMARK  status: ('A' for Active; 'I' for Inactive)
REMARK    1  A    between atoms: C_2  and  C_3
REMARK    2  A    between atoms: C_3  and  N_4
REMARK    3  A    between atoms: C_5  and  C_7
REMARK    4  A    between atoms: C_9  and  C_10
REMARK                            x       y       z     vdW  Elec       q    Type
REMARK                         _______ _______ _______ _____ _____    ______ ____
ROOT
ATOM      1  C   UNL     1      28.920  24.141  23.113  0.00  0.00    +0.000 A 
ATOM      2  C   UNL     1      29.854  23.984  24.100  0.00  0.00    +0.000 A 
ATOM      3  C   UNL     1      29.512  23.376  25.287  0.00  0.00    +0.000 A 
ATOM      4  C   UNL     1      28.214  22.954  25.408  0.00  0.00    +0.000 A 
ATOM      5  N   UNL     1      27.296  23.105  24.445  0.00  0.00    +0.000 N 
ATOM      6  O   UNL     1      25.991  22.651  24.638  0.00  0.00    +0.000 OA
ATOM      7  C   UNL     1      27.642  23.696  23.299  0.00  0.00    +0.000 A 
ATOM      8  N   UNL     1      26.655  23.863  22.256  0.00  0.00    +0.000 NA
ENDROOT
BRANCH   3   9
ATOM      9  C   UNL     1      30.513  23.206  26.347  0.00  0.00    +0.000 A 
ATOM     10  C   UNL     1      31.518  24.138  26.455  0.00  0.00    +0.000 A 
ATOM     11  C   UNL     1      32.472  24.010  27.438  0.00  0.00    +0.000 A 
ATOM     12  C   UNL     1      32.473  22.971  28.344  0.00  0.00    +0.000 A 
ATOM     13  C   UNL     1      31.444  22.059  28.199  0.00  0.00    +0.000 A 
ATOM     14  C   UNL     1      30.476  22.157  27.229  0.00  0.00    +0.000 A 
ENDBRANCH   3   9
BRANCH   1  16
ATOM     15  N   UNL     1      29.186  26.203  21.679  0.00  0.00    +0.000 NA
ATOM     16  C   UNL     1      29.290  24.796  21.837  0.00  0.00    +0.000 C 
ATOM     17  O   UNL     1      29.698  24.112  20.891  0.00  0.00    +0.000 OA
BRANCH  15  18
ATOM     18  C   UNL     1      29.542  26.865  20.436  0.00  0.00    +0.000 C 
BRANCH  18  20
ATOM     19  C   UNL     1      30.077  29.142  19.787  0.00  0.00    +0.000 C 
ATOM     20  C   UNL     1      29.014  28.298  20.478  0.00  0.00    +0.000 C 
ENDBRANCH  18  20
ENDBRANCH  15  18
ENDBRANCH   1  16
TORSDOF 4
ENDMDL
