MODEL 1
REMARK VINA RESULT:      -7.4      0.000      0.000
REMARK  Name = 
REMARK  7 active torsions:
REMARK  status: ('A' for Active; 'I' for Inactive)
REMARK    1  A    between atoms: C_2  and  C_3
REMARK    2  A    between atoms: C_6  and  N_7
REMARK    3  A    between atoms: N_7  and  C_8
REMARK    4  A    between atoms: C_9  and  S_10
REMARK    5  A    between atoms: S_10  and  C_11
REMARK    6  A    between atoms: N_19  and  C_20
REMARK    7  A    between atoms: C_23  and  C_24
REMARK                            x       y       z     vdW  Elec       q    Type
REMARK                         _______ _______ _______ _____ _____    ______ ____
ROOT
ATOM      1  C   UNL     1      37.167   1.919  15.157  0.00  0.00    +0.000 C 
ATOM      2  C   UNL     1      38.196   2.327  14.395  0.00  0.00    +0.000 C 
ATOM      3  C   UNL     1      38.787   3.509  14.955  0.00  0.00    +0.000 C 
ATOM      4  O   UNL     1      39.776   4.162  14.493  0.00  0.00    +0.000 OA
ATOM      5  N   UNL     1      38.056   3.848  16.160  0.00  0.00    +0.000 N 
ATOM      6  C   UNL     1      37.063   2.848  16.256  0.00  0.00    +0.000 C 
ATOM      7  O   UNL     1      36.193   2.762  17.181  0.00  0.00    +0.000 OA
ENDROOT
BRANCH   5   8
ATOM      8  C   UNL     1      38.357   4.960  16.993  0.00  0.00    +0.000 A 
ATOM      9  C   UNL     1      38.106   6.265  16.578  0.00  0.00    +0.000 A 
ATOM     10  C   UNL     1      38.406   7.329  17.405  0.00  0.00    +0.000 A 
ATOM     11  C   UNL     1      38.953   7.166  18.649  0.00  0.00    +0.000 A 
ATOM     12  C   UNL     1      39.207   5.882  19.077  0.00  0.00    +0.000 A 
ATOM     13  C   UNL     1      38.906   4.806  18.244  0.00  0.00    +0.000 A 
BRANCH  11  14
ATOM     14  C   UNL     1      39.283   8.293  19.554  0.00  0.00    +0.000 C 
ATOM     15  C   UNL     1      38.119   8.618  20.470  0.00  0.00    +0.000 C 
ENDBRANCH  11  14
ENDBRANCH   5   8
BRANCH   1  16
ATOM     16  N   UNL     1      36.358   0.812  14.902  0.00  0.00    +0.000 NA
BRANCH  16  20
ATOM     17  C   UNL     1      37.388  -3.108  16.197  0.00  0.00    +0.000 A 
ATOM     18  C   UNL     1      37.777  -1.985  16.881  0.00  0.00    +0.000 A 
ATOM     19  C   UNL     1      37.425  -0.707  16.436  0.00  0.00    +0.000 A 
ATOM     20  C   UNL     1      36.669  -0.522  15.282  0.00  0.00    +0.000 A 
ATOM     21  C   UNL     1      36.280  -1.648  14.598  0.00  0.00    +0.000 A 
ATOM     22  C   UNL     1      36.628  -2.926  15.039  0.00  0.00    +0.000 A 
BRANCH  17  24
ATOM     23  C   UNL     1      38.511  -4.377  17.955  0.00  0.00    +0.000 C 
ATOM     24  C   UNL     1      37.740  -4.489  16.628  0.00  0.00    +0.000 C 
ENDBRANCH  17  24
ENDBRANCH  16  20
ENDBRANCH   1  16
BRANCH   2  25
ATOM     25  S   UNL     1      38.651   1.444  12.912  0.00  0.00    +0.000 S 
BRANCH  25  26
ATOM     26  C   UNL     1      39.406  -0.091  13.384  0.00  0.00    +0.000 A 
ATOM     27  C   UNL     1      39.156  -1.220  12.651  0.00  0.00    +0.000 A 
ATOM     28  C   UNL     1      39.704  -2.460  12.926  0.00  0.00    +0.000 A 
ATOM     29  C   UNL     1      40.562  -2.533  14.028  0.00  0.00    +0.000 A 
ATOM     30  C   UNL     1      40.819  -1.406  14.771  0.00  0.00    +0.000 A 
ATOM     31  C   UNL     1      40.258  -0.188  14.473  0.00  0.00    +0.000 A 
ENDBRANCH  25  26
ENDBRANCH   2  25
TORSDOF 7
ENDMDL
MODEL 2
REMARK VINA RESULT:      -7.2      1.505      3.558
REMARK  Name = 
REMARK  7 active torsions:
REMARK  status: ('A' for Active; 'I' for Inactive)
REMARK    1  A    between atoms: C_2  and  C_3
REMARK    2  A    between atoms: C_6  and  N_7
REMARK    3  A    between atoms: N_7  and  C_8
REMARK    4  A    between atoms: C_9  and  S_10
REMARK    5  A    between atoms: S_10  and  C_11
REMARK    6  A    between atoms: N_19  and  C_20
REMARK    7  A    between atoms: C_23  and  C_24
REMARK                            x       y       z     vdW  Elec       q    Type
REMARK                         _______ _______ _______ _____ _____    ______ ____
ROOT
ATOM      1  C   UNL     1      38.559   2.874  14.246  0.00  0.00    +0.000 C 
ATOM      2  C   UNL     1      37.461   2.485  14.916  0.00  0.00    +0.000 C 
ATOM      3  C   UNL     1      37.282   3.298  16.086  0.00  0.00    +0.000 C 
ATOM      4  O   UNL     1      36.349   3.205  16.945  0.00  0.00    +0.000 OA
ATOM      5  N   UNL     1      38.363   4.263  16.130  0.00  0.00    +0.000 N 
ATOM      6  C   UNL     1      39.132   3.974  14.982  0.00  0.00    +0.000 C 
ATOM      7  O   UNL     1      40.188   4.593  14.629  0.00  0.00    +0.000 OA
ENDROOT
BRANCH   5   8
ATOM      8  C   UNL     1      38.517   5.245  17.147  0.00  0.00    +0.000 A 
ATOM      9  C   UNL     1      39.248   4.983  18.302  0.00  0.00    +0.000 A 
ATOM     10  C   UNL     1      39.385   5.953  19.275  0.00  0.00    +0.000 A 
ATOM     11  C   UNL     1      38.826   7.196  19.161  0.00  0.00    +0.000 A 
ATOM     12  C   UNL     1      38.100   7.474  18.025  0.00  0.00    +0.000 A 
ATOM     13  C   UNL     1      37.960   6.497  17.041  0.00  0.00    +0.000 A 
BRANCH  11  14
ATOM     14  C   UNL     1      38.961   8.253  20.193  0.00  0.00    +0.000 C 
ATOM     15  C   UNL     1      37.718   9.119  20.255  0.00  0.00    +0.000 C 
ENDBRANCH  11  14
ENDBRANCH   5   8
BRANCH   1  16
ATOM     16  N   UNL     1      39.040   2.294  13.073  0.00  0.00    +0.000 NA
BRANCH  16  20
ATOM     17  C   UNL     1      41.462  -1.189  12.746  0.00  0.00    +0.000 A 
ATOM     18  C   UNL     1      40.557  -0.833  11.779  0.00  0.00    +0.000 A 
ATOM     19  C   UNL     1      39.773   0.317  11.908  0.00  0.00    +0.000 A 
ATOM     20  C   UNL     1      39.877   1.146  13.022  0.00  0.00    +0.000 A 
ATOM     21  C   UNL     1      40.784   0.788  13.991  0.00  0.00    +0.000 A 
ATOM     22  C   UNL     1      41.569  -0.360  13.865  0.00  0.00    +0.000 A 
BRANCH  17  24
ATOM     23  C   UNL     1      41.467  -3.521  12.022  0.00  0.00    +0.000 C 
ATOM     24  C   UNL     1      42.316  -2.405  12.656  0.00  0.00    +0.000 C 
ENDBRANCH  17  24
ENDBRANCH  16  20
ENDBRANCH   1  16
BRANCH   2  25
ATOM     25  S   UNL     1      36.461   1.126  14.335  0.00  0.00    +0.000 S 
BRANCH  25  26
ATOM     26  C   UNL     1      37.335  -0.387  14.649  0.00  0.00    +0.000 A 
ATOM     27  C   UNL     1      37.303  -1.390  13.719  0.00  0.00    +0.000 A 
ATOM     28  C   UNL     1      37.960  -2.600  13.861  0.00  0.00    +0.000 A 
ATOM     29  C   UNL     1      38.694  -2.778  15.039  0.00  0.00    +0.000 A 
ATOM     30  C   UNL     1      38.732  -1.776  15.979  0.00  0.00    +0.000 A 
ATOM     31  C   UNL     1      38.068  -0.585  15.809  0.00  0.00    +0.000 A 
ENDBRANCH  25  26
ENDBRANCH   2  25
TORSDOF 7
ENDMDL
MODEL 3
REMARK VINA RESULT:      -7.2      3.748      8.594
REMARK  Name = 
REMARK  7 active torsions:
REMARK  status: ('A' for Active; 'I' for Inactive)
REMARK    1  A    between atoms: C_2  and  C_3
REMARK    2  A    between atoms: C_6  and  N_7
REMARK    3  A    between atoms: N_7  and  C_8
REMARK    4  A    between atoms: C_9  and  S_10
REMARK    5  A    between atoms: S_10  and  C_11
REMARK    6  A    between atoms: N_19  and  C_20
REMARK    7  A    between atoms: C_23  and  C_24
REMARK                            x       y       z     vdW  Elec       q    Type
REMARK                         _______ _______ _______ _____ _____    ______ ____
ROOT
ATOM      1  C   UNL     1      36.361   4.377  14.722  0.00  0.00    +0.000 C 
ATOM      2  C   UNL     1      37.649   4.044  14.915  0.00  0.00    +0.000 C 
ATOM      3  C   UNL     1      37.760   2.639  15.185  0.00  0.00    +0.000 C 
ATOM      4  O   UNL     1      38.829   1.988  15.416  0.00  0.00    +0.000 OA
ATOM      5  N   UNL     1      36.428   2.069  15.153  0.00  0.00    +0.000 N 
ATOM      6  C   UNL     1      35.588   3.167  14.865  0.00  0.00    +0.000 C 
ATOM      7  O   UNL     1      34.322   3.112  14.743  0.00  0.00    +0.000 OA
ENDROOT
BRANCH   5   8
ATOM      8  C   UNL     1      36.141   0.693  15.370  0.00  0.00    +0.000 A 
ATOM      9  C   UNL     1      36.636  -0.293  14.522  0.00  0.00    +0.000 A 
ATOM     10  C   UNL     1      36.344  -1.623  14.754  0.00  0.00    +0.000 A 
ATOM     11  C   UNL     1      35.571  -2.036  15.805  0.00  0.00    +0.000 A 
ATOM     12  C   UNL     1      35.074  -1.075  16.655  0.00  0.00    +0.000 A 
ATOM     13  C   UNL     1      35.366   0.268  16.423  0.00  0.00    +0.000 A 
BRANCH  11  14
ATOM     14  C   UNL     1      35.246  -3.457  16.073  0.00  0.00    +0.000 C 
ATOM     15  C   UNL     1      34.242  -3.988  15.069  0.00  0.00    +0.000 C 
ENDBRANCH  11  14
ENDBRANCH   5   8
BRANCH   1  16
ATOM     16  N   UNL     1      35.887   5.660  14.453  0.00  0.00    +0.000 NA
BRANCH  16  20
ATOM     17  C   UNL     1      34.546   6.866  10.599  0.00  0.00    +0.000 A 
ATOM     18  C   UNL     1      35.718   6.178  10.785  0.00  0.00    +0.000 A 
ATOM     19  C   UNL     1      36.137   5.791  12.061  0.00  0.00    +0.000 A 
ATOM     20  C   UNL     1      35.385   6.090  13.194  0.00  0.00    +0.000 A 
ATOM     21  C   UNL     1      34.212   6.780  13.007  0.00  0.00    +0.000 A 
ATOM     22  C   UNL     1      33.789   7.167  11.734  0.00  0.00    +0.000 A 
BRANCH  17  24
ATOM     23  C   UNL     1      34.884   8.534   8.848  0.00  0.00    +0.000 C 
ATOM     24  C   UNL     1      34.059   7.302   9.262  0.00  0.00    +0.000 C 
ENDBRANCH  17  24
ENDBRANCH  16  20
ENDBRANCH   1  16
BRANCH   2  25
ATOM     25  S   UNL     1      38.939   5.274  14.836  0.00  0.00    +0.000 S 
BRANCH  25  26
ATOM     26  C   UNL     1      39.514   5.590  16.486  0.00  0.00    +0.000 A 
ATOM     27  C   UNL     1      40.756   6.133  16.675  0.00  0.00    +0.000 A 
ATOM     28  C   UNL     1      41.291   6.430  17.916  0.00  0.00    +0.000 A 
ATOM     29  C   UNL     1      40.490   6.145  19.027  0.00  0.00    +0.000 A 
ATOM     30  C   UNL     1      39.241   5.599  18.847  0.00  0.00    +0.000 A 
ATOM     31  C   UNL     1      38.738   5.314  17.600  0.00  0.00    +0.000 A 
ENDBRANCH  25  26
ENDBRANCH   2  25
TORSDOF 7
ENDMDL
MODEL 4
REMARK VINA RESULT:      -7.1      2.934      8.679
REMARK  Name = 
REMARK  7 active torsions:
REMARK  status: ('A' for Active; 'I' for Inactive)
REMARK    1  A    between atoms: C_2  and  C_3
REMARK    2  A    between atoms: C_6  and  N_7
REMARK    3  A    between atoms: N_7  and  C_8
REMARK    4  A    between atoms: C_9  and  S_10
REMARK    5  A    between atoms: S_10  and  C_11
REMARK    6  A    between atoms: N_19  and  C_20
REMARK    7  A    between atoms: C_23  and  C_24
REMARK                            x       y       z     vdW  Elec       q    Type
REMARK                         _______ _______ _______ _____ _____    ______ ____
ROOT
ATOM      1  C   UNL     1      37.823   5.296  16.451  0.00  0.00    +0.000 C 
ATOM      2  C   UNL     1      37.503   5.372  15.148  0.00  0.00    +0.000 C 
ATOM      3  C   UNL     1      37.091   4.084  14.665  0.00  0.00    +0.000 C 
ATOM      4  O   UNL     1      36.722   3.794  13.483  0.00  0.00    +0.000 OA
ATOM      5  N   UNL     1      37.166   3.146  15.768  0.00  0.00    +0.000 N 
ATOM      6  C   UNL     1      37.621   3.926  16.854  0.00  0.00    +0.000 C 
ATOM      7  O   UNL     1      37.827   3.493  18.034  0.00  0.00    +0.000 OA
ENDROOT
BRANCH   5   8
ATOM      8  C   UNL     1      36.828   1.769  15.671  0.00  0.00    +0.000 A 
ATOM      9  C   UNL     1      35.659   1.269  16.237  0.00  0.00    +0.000 A 
ATOM     10  C   UNL     1      35.350  -0.073  16.130  0.00  0.00    +0.000 A 
ATOM     11  C   UNL     1      36.156  -0.965  15.477  0.00  0.00    +0.000 A 
ATOM     12  C   UNL     1      37.317  -0.488  14.909  0.00  0.00    +0.000 A 
ATOM     13  C   UNL     1      37.631   0.866  15.017  0.00  0.00    +0.000 A 
BRANCH  11  14
ATOM     14  C   UNL     1      35.845  -2.409  15.349  0.00  0.00    +0.000 C 
ATOM     15  C   UNL     1      34.750  -2.820  16.313  0.00  0.00    +0.000 C 
ENDBRANCH  11  14
ENDBRANCH   5   8
BRANCH   1  16
ATOM     16  N   UNL     1      38.278   6.354  17.237  0.00  0.00    +0.000 NA
BRANCH  16  20
ATOM     17  C   UNL     1      42.014   6.517  19.267  0.00  0.00    +0.000 A 
ATOM     18  C   UNL     1      40.819   6.443  19.936  0.00  0.00    +0.000 A 
ATOM     19  C   UNL     1      39.604   6.389  19.247  0.00  0.00    +0.000 A 
ATOM     20  C   UNL     1      39.556   6.411  17.856  0.00  0.00    +0.000 A 
ATOM     21  C   UNL     1      40.754   6.486  17.186  0.00  0.00    +0.000 A 
ATOM     22  C   UNL     1      41.970   6.539  17.871  0.00  0.00    +0.000 A 
BRANCH  17  24
ATOM     23  C   UNL     1      43.127   6.079  21.395  0.00  0.00    +0.000 C 
ATOM     24  C   UNL     1      43.333   6.580  19.955  0.00  0.00    +0.000 C 
ENDBRANCH  17  24
ENDBRANCH  16  20
ENDBRANCH   1  16
BRANCH   2  25
ATOM     25  S   UNL     1      37.630   6.912  14.256  0.00  0.00    +0.000 S 
BRANCH  25  26
ATOM     26  C   UNL     1      36.164   7.863  14.568  0.00  0.00    +0.000 A 
ATOM     27  C   UNL     1      34.940   7.342  14.242  0.00  0.00    +0.000 A 
ATOM     28  C   UNL     1      33.739   7.994  14.456  0.00  0.00    +0.000 A 
ATOM     29  C   UNL     1      33.812   9.263  15.042  0.00  0.00    +0.000 A 
ATOM     30  C   UNL     1      35.036   9.794  15.373  0.00  0.00    +0.000 A 
ATOM     31  C   UNL     1      36.212   9.121  15.147  0.00  0.00    +0.000 A 
ENDBRANCH  25  26
ENDBRANCH   2  25
TORSDOF 7
ENDMDL
MODEL 5
REMARK VINA RESULT:      -7.1      3.057      5.006
REMARK  Name = 
REMARK  7 active torsions:
REMARK  status: ('A' for Active; 'I' for Inactive)
REMARK    1  A    between atoms: C_2  and  C_3
REMARK    2  A    between atoms: C_6  and  N_7
REMARK    3  A    between atoms: N_7  and  C_8
REMARK    4  A    between atoms: C_9  and  S_10
REMARK    5  A    between atoms: S_10  and  C_11
REMARK    6  A    between atoms: N_19  and  C_20
REMARK    7  A    between atoms: C_23  and  C_24
REMARK                            x       y       z     vdW  Elec       q    Type
REMARK                         _______ _______ _______ _____ _____    ______ ____
ROOT
ATOM      1  C   UNL     1      37.009   3.728  15.346  0.00  0.00    +0.000 C 
ATOM      2  C   UNL     1      37.538   4.612  14.482  0.00  0.00    +0.000 C 
ATOM      3  C   UNL     1      38.525   5.418  15.143  0.00  0.00    +0.000 C 
ATOM      4  O   UNL     1      39.219   6.351  14.626  0.00  0.00    +0.000 OA
ATOM      5  N   UNL     1      38.604   4.988  16.524  0.00  0.00    +0.000 N 
ATOM      6  C   UNL     1      37.656   3.945  16.617  0.00  0.00    +0.000 C 
ATOM      7  O   UNL     1      37.399   3.276  17.669  0.00  0.00    +0.000 OA
ENDROOT
BRANCH   5   8
ATOM      8  C   UNL     1      39.481   5.554  17.490  0.00  0.00    +0.000 A 
ATOM      9  C   UNL     1      39.066   5.782  18.799  0.00  0.00    +0.000 A 
ATOM     10  C   UNL     1      39.936   6.331  19.720  0.00  0.00    +0.000 A 
ATOM     11  C   UNL     1      41.223   6.674  19.406  0.00  0.00    +0.000 A 
ATOM     12  C   UNL     1      41.651   6.454  18.116  0.00  0.00    +0.000 A 
ATOM     13  C   UNL     1      40.775   5.900  17.184  0.00  0.00    +0.000 A 
BRANCH  11  14
ATOM     14  C   UNL     1      42.174   7.264  20.378  0.00  0.00    +0.000 C 
ATOM     15  C   UNL     1      42.978   6.187  21.080  0.00  0.00    +0.000 C 
ENDBRANCH  11  14
ENDBRANCH   5   8
BRANCH   1  16
ATOM     16  N   UNL     1      36.012   2.801  15.047  0.00  0.00    +0.000 NA
BRANCH  16  20
ATOM     17  C   UNL     1      35.717  -1.121  16.671  0.00  0.00    +0.000 A 
ATOM     18  C   UNL     1      34.854  -0.115  17.024  0.00  0.00    +0.000 A 
ATOM     19  C   UNL     1      34.970   1.165  16.476  0.00  0.00    +0.000 A 
ATOM     20  C   UNL     1      35.966   1.472  15.552  0.00  0.00    +0.000 A 
ATOM     21  C   UNL     1      36.830   0.464  15.199  0.00  0.00    +0.000 A 
ATOM     22  C   UNL     1      36.716  -0.817  15.744  0.00  0.00    +0.000 A 
BRANCH  17  24
ATOM     23  C   UNL     1      36.912  -3.246  16.801  0.00  0.00    +0.000 C 
ATOM     24  C   UNL     1      35.636  -2.500  17.229  0.00  0.00    +0.000 C 
ENDBRANCH  17  24
ENDBRANCH  16  20
ENDBRANCH   1  16
BRANCH   2  25
ATOM     25  S   UNL     1      36.991   4.681  12.785  0.00  0.00    +0.000 S 
BRANCH  25  26
ATOM     26  C   UNL     1      35.574   5.746  12.696  0.00  0.00    +0.000 A 
ATOM     27  C   UNL     1      34.840   5.988  13.825  0.00  0.00    +0.000 A 
ATOM     28  C   UNL     1      33.729   6.811  13.866  0.00  0.00    +0.000 A 
ATOM     29  C   UNL     1      33.357   7.419  12.661  0.00  0.00    +0.000 A 
ATOM     30  C   UNL     1      34.088   7.182  11.522  0.00  0.00    +0.000 A 
ATOM     31  C   UNL     1      35.187   6.358  11.514  0.00  0.00    +0.000 A 
ENDBRANCH  25  26
ENDBRANCH   2  25
TORSDOF 7
ENDMDL
MODEL 6
REMARK VINA RESULT:      -6.9     25.894     28.876
REMARK  Name = 
REMARK  7 active torsions:
REMARK  status: ('A' for Active; 'I' for Inactive)
REMARK    1  A    between atoms: C_2  and  C_3
REMARK    2  A    between atoms: C_6  and  N_7
REMARK    3  A    between atoms: N_7  and  C_8
REMARK    4  A    between atoms: C_9  and  S_10
REMARK    5  A    between atoms: S_10  and  C_11
REMARK    6  A    between atoms: N_19  and  C_20
REMARK    7  A    between atoms: C_23  and  C_24
REMARK                            x       y       z     vdW  Elec       q    Type
REMARK                         _______ _______ _______ _____ _____    ______ ____
ROOT
ATOM      1  C   UNL     1      26.607  15.383  39.134  0.00  0.00    +0.000 C 
ATOM      2  C   UNL     1      27.910  15.258  39.437  0.00  0.00    +0.000 C 
ATOM      3  C   UNL     1      28.128  14.058  40.195  0.00  0.00    +0.000 C 
ATOM      4  O   UNL     1      29.237  13.631  40.647  0.00  0.00    +0.000 OA
ATOM      5  N   UNL     1      26.849  13.398  40.366  0.00  0.00    +0.000 N 
ATOM      6  C   UNL     1      25.932  14.241  39.700  0.00  0.00    +0.000 C 
ATOM      7  O   UNL     1      24.680  14.033  39.601  0.00  0.00    +0.000 OA
ENDROOT
BRANCH   5   8
ATOM      8  C   UNL     1      26.668  12.171  41.062  0.00  0.00    +0.000 A 
ATOM      9  C   UNL     1      25.946  12.113  42.250  0.00  0.00    +0.000 A 
ATOM     10  C   UNL     1      25.782  10.910  42.908  0.00  0.00    +0.000 A 
ATOM     11  C   UNL     1      26.308   9.736  42.441  0.00  0.00    +0.000 A 
ATOM     12  C   UNL     1      27.024   9.774  41.266  0.00  0.00    +0.000 A 
ATOM     13  C   UNL     1      27.191  10.987  40.600  0.00  0.00    +0.000 A 
BRANCH  11  14
ATOM     14  C   UNL     1      26.144   8.434  43.130  0.00  0.00    +0.000 C 
ATOM     15  C   UNL     1      27.340   7.533  42.887  0.00  0.00    +0.000 C 
ENDBRANCH  11  14
ENDBRANCH   5   8
BRANCH   1  16
ATOM     16  N   UNL     1      26.039  16.437  38.420  0.00  0.00    +0.000 NA
BRANCH  16  20
ATOM     17  C   UNL     1      25.359  16.212  34.225  0.00  0.00    +0.000 A 
ATOM     18  C   UNL     1      25.831  15.147  34.949  0.00  0.00    +0.000 A 
ATOM     19  C   UNL     1      26.045  15.245  36.327  0.00  0.00    +0.000 A 
ATOM     20  C   UNL     1      25.791  16.425  37.020  0.00  0.00    +0.000 A 
ATOM     21  C   UNL     1      25.319  17.492  36.293  0.00  0.00    +0.000 A 
ATOM     22  C   UNL     1      25.102  17.397  34.917  0.00  0.00    +0.000 A 
BRANCH  17  24
ATOM     23  C   UNL     1      25.103  14.676  32.345  0.00  0.00    +0.000 C 
ATOM     24  C   UNL     1      25.118  16.158  32.757  0.00  0.00    +0.000 C 
ENDBRANCH  17  24
ENDBRANCH  16  20
ENDBRANCH   1  16
BRANCH   2  25
ATOM     25  S   UNL     1      29.098  16.488  38.925  0.00  0.00    +0.000 S 
BRANCH  25  26
ATOM     26  C   UNL     1      29.338  16.338  37.172  0.00  0.00    +0.000 A 
ATOM     27  C   UNL     1      29.109  17.420  36.365  0.00  0.00    +0.000 A 
ATOM     28  C   UNL     1      29.279  17.411  34.992  0.00  0.00    +0.000 A 
ATOM     29  C   UNL     1      29.713  16.209  34.423  0.00  0.00    +0.000 A 
ATOM     30  C   UNL     1      29.946  15.118  35.226  0.00  0.00    +0.000 A 
ATOM     31  C   UNL     1      29.766  15.157  36.587  0.00  0.00    +0.000 A 
ENDBRANCH  25  26
ENDBRANCH   2  25
TORSDOF 7
ENDMDL
MODEL 7
REMARK VINA RESULT:      -6.9      2.460      8.062
REMARK  Name = 
REMARK  7 active torsions:
REMARK  status: ('A' for Active; 'I' for Inactive)
REMARK    1  A    between atoms: C_2  and  C_3
REMARK    2  A    between atoms: C_6  and  N_7
REMARK    3  A    between atoms: N_7  and  C_8
REMARK    4  A    between atoms: C_9  and  S_10
REMARK    5  A    between atoms: S_10  and  C_11
REMARK    6  A    between atoms: N_19  and  C_20
REMARK    7  A    between atoms: C_23  and  C_24
REMARK                            x       y       z     vdW  Elec       q    Type
REMARK                         _______ _______ _______ _____ _____    ______ ____
ROOT
ATOM      1  C   UNL     1      38.344   2.689  14.594  0.00  0.00    +0.000 C 
ATOM      2  C   UNL     1      37.451   1.694  14.728  0.00  0.00    +0.000 C 
ATOM      3  C   UNL     1      37.995   0.470  14.211  0.00  0.00    +0.000 C 
ATOM      4  O   UNL     1      37.422  -0.666  14.177  0.00  0.00    +0.000 OA
ATOM      5  N   UNL     1      39.332   0.744  13.723  0.00  0.00    +0.000 N 
ATOM      6  C   UNL     1      39.516   2.121  13.973  0.00  0.00    +0.000 C 
ATOM      7  O   UNL     1      40.568   2.784  13.698  0.00  0.00    +0.000 OA
ENDROOT
BRANCH   5   8
ATOM      8  C   UNL     1      40.187  -0.232  13.142  0.00  0.00    +0.000 A 
ATOM      9  C   UNL     1      39.902  -0.802  11.905  0.00  0.00    +0.000 A 
ATOM     10  C   UNL     1      40.749  -1.747  11.361  0.00  0.00    +0.000 A 
ATOM     11  C   UNL     1      41.888  -2.167  11.991  0.00  0.00    +0.000 A 
ATOM     12  C   UNL     1      42.188  -1.613  13.216  0.00  0.00    +0.000 A 
ATOM     13  C   UNL     1      41.334  -0.659  13.768  0.00  0.00    +0.000 A 
BRANCH  11  14
ATOM     14  C   UNL     1      42.812  -3.180  11.426  0.00  0.00    +0.000 C 
ATOM     15  C   UNL     1      43.918  -3.519  12.406  0.00  0.00    +0.000 C 
ENDBRANCH  11  14
ENDBRANCH   5   8
BRANCH   1  16
ATOM     16  N   UNL     1      38.144   4.015  14.975  0.00  0.00    +0.000 NA
BRANCH  16  20
ATOM     17  C   UNL     1      39.875   5.803  18.427  0.00  0.00    +0.000 A 
ATOM     18  C   UNL     1      38.763   5.002  18.496  0.00  0.00    +0.000 A 
ATOM     19  C   UNL     1      38.213   4.425  17.348  0.00  0.00    +0.000 A 
ATOM     20  C   UNL     1      38.768   4.640  16.089  0.00  0.00    +0.000 A 
ATOM     21  C   UNL     1      39.882   5.442  16.021  0.00  0.00    +0.000 A 
ATOM     22  C   UNL     1      40.435   6.020  17.166  0.00  0.00    +0.000 A 
BRANCH  17  24
ATOM     23  C   UNL     1      39.416   7.308  20.294  0.00  0.00    +0.000 C 
ATOM     24  C   UNL     1      40.495   6.443  19.620  0.00  0.00    +0.000 C 
ENDBRANCH  17  24
ENDBRANCH  16  20
ENDBRANCH   1  16
BRANCH   2  25
ATOM     25  S   UNL     1      35.845   1.989  15.448  0.00  0.00    +0.000 S 
BRANCH  25  26
ATOM     26  C   UNL     1      35.655   0.915  16.849  0.00  0.00    +0.000 A 
ATOM     27  C   UNL     1      34.941  -0.246  16.718  0.00  0.00    +0.000 A 
ATOM     28  C   UNL     1      34.745  -1.155  17.741  0.00  0.00    +0.000 A 
ATOM     29  C   UNL     1      35.325  -0.842  18.976  0.00  0.00    +0.000 A 
ATOM     30  C   UNL     1      36.044   0.322  19.117  0.00  0.00    +0.000 A 
ATOM     31  C   UNL     1      36.219   1.206  18.081  0.00  0.00    +0.000 A 
ENDBRANCH  25  26
ENDBRANCH   2  25
TORSDOF 7
ENDMDL
MODEL 8
REMARK VINA RESULT:      -6.8     26.483     28.840
REMARK  Name = 
REMARK  7 active torsions:
REMARK  status: ('A' for Active; 'I' for Inactive)
REMARK    1  A    between atoms: C_2  and  C_3
REMARK    2  A    between atoms: C_6  and  N_7
REMARK    3  A    between atoms: N_7  and  C_8
REMARK    4  A    between atoms: C_9  and  S_10
REMARK    5  A    between atoms: S_10  and  C_11
REMARK    6  A    between atoms: N_19  and  C_20
REMARK    7  A    between atoms: C_23  and  C_24
REMARK                            x       y       z     vdW  Elec       q    Type
REMARK                         _______ _______ _______ _____ _____    ______ ____
ROOT
ATOM      1  C   UNL     1      26.821  14.060  40.526  0.00  0.00    +0.000 C 
ATOM      2  C   UNL     1      28.034  14.563  40.239  0.00  0.00    +0.000 C 
ATOM      3  C   UNL     1      28.019  15.177  38.942  0.00  0.00    +0.000 C 
ATOM      4  O   UNL     1      28.994  15.749  38.357  0.00  0.00    +0.000 OA
ATOM      5  N   UNL     1      26.685  15.036  38.394  0.00  0.00    +0.000 N 
ATOM      6  C   UNL     1      25.971  14.343  39.396  0.00  0.00    +0.000 C 
ATOM      7  O   UNL     1      24.744  14.009  39.326  0.00  0.00    +0.000 OA
ENDROOT
BRANCH   5   8
ATOM      8  C   UNL     1      26.286  15.530  37.121  0.00  0.00    +0.000 A 
ATOM      9  C   UNL     1      25.484  16.660  37.003  0.00  0.00    +0.000 A 
ATOM     10  C   UNL     1      25.110  17.122  35.756  0.00  0.00    +0.000 A 
ATOM     11  C   UNL     1      25.498  16.509  34.595  0.00  0.00    +0.000 A 
ATOM     12  C   UNL     1      26.294  15.390  34.693  0.00  0.00    +0.000 A 
ATOM     13  C   UNL     1      26.673  14.922  35.951  0.00  0.00    +0.000 A 
BRANCH  11  14
ATOM     14  C   UNL     1      25.110  16.987  33.247  0.00  0.00    +0.000 C 
ATOM     15  C   UNL     1      24.830  15.825  32.314  0.00  0.00    +0.000 C 
ENDBRANCH  11  14
ENDBRANCH   5   8
BRANCH   1  16
ATOM     16  N   UNL     1      26.481  13.382  41.696  0.00  0.00    +0.000 NA
BRANCH  16  20
ATOM     17  C   UNL     1      27.052   9.188  42.127  0.00  0.00    +0.000 A 
ATOM     18  C   UNL     1      27.076   9.808  40.904  0.00  0.00    +0.000 A 
ATOM     19  C   UNL     1      26.887  11.188  40.788  0.00  0.00    +0.000 A 
ATOM     20  C   UNL     1      26.665  11.988  41.906  0.00  0.00    +0.000 A 
ATOM     21  C   UNL     1      26.640  11.365  43.130  0.00  0.00    +0.000 A 
ATOM     22  C   UNL     1      26.830   9.987  43.250  0.00  0.00    +0.000 A 
BRANCH  17  24
ATOM     23  C   UNL     1      28.553   7.517  43.084  0.00  0.00    +0.000 C 
ATOM     24  C   UNL     1      27.244   7.721  42.302  0.00  0.00    +0.000 C 
ENDBRANCH  17  24
ENDBRANCH  16  20
ENDBRANCH   1  16
BRANCH   2  25
ATOM     25  S   UNL     1      29.390  14.408  41.389  0.00  0.00    +0.000 S 
BRANCH  25  26
ATOM     26  C   UNL     1      29.992  12.739  41.323  0.00  0.00    +0.000 A 
ATOM     27  C   UNL     1      30.173  12.041  42.486  0.00  0.00    +0.000 A 
ATOM     28  C   UNL     1      30.623  10.734  42.543  0.00  0.00    +0.000 A 
ATOM     29  C   UNL     1      30.903  10.115  41.320  0.00  0.00    +0.000 A 
ATOM     30  C   UNL     1      30.725  10.808  40.146  0.00  0.00    +0.000 A 
ATOM     31  C   UNL     1      30.277  12.107  40.123  0.00  0.00    +0.000 A 
ENDBRANCH  25  26
ENDBRANCH   2  25
TORSDOF 7
ENDMDL
MODEL 9
REMARK VINA RESULT:      -6.7      4.142      6.861
REMARK  Name = 
REMARK  7 active torsions:
REMARK  status: ('A' for Active; 'I' for Inactive)
REMARK    1  A    between atoms: C_2  and  C_3
REMARK    2  A    between atoms: C_6  and  N_7
REMARK    3  A    between atoms: N_7  and  C_8
REMARK    4  A    between atoms: C_9  and  S_10
REMARK    5  A    between atoms: S_10  and  C_11
REMARK    6  A    between atoms: N_19  and  C_20
REMARK    7  A    between atoms: C_23  and  C_24
REMARK                            x       y       z     vdW  Elec       q    Type
REMARK                         _______ _______ _______ _____ _____    ______ ____
ROOT
ATOM      1  C   UNL     1      36.409   5.328  14.683  0.00  0.00    +0.000 C 
ATOM      2  C   UNL     1      36.878   4.070  14.745  0.00  0.00    +0.000 C 
ATOM      3  C   UNL     1      38.130   4.044  15.448  0.00  0.00    +0.000 C 
ATOM      4  O   UNL     1      38.850   3.023  15.687  0.00  0.00    +0.000 OA
ATOM      5  N   UNL     1      38.449   5.400  15.847  0.00  0.00    +0.000 N 
ATOM      6  C   UNL     1      37.367   6.168  15.360  0.00  0.00    +0.000 C 
ATOM      7  O   UNL     1      37.240   7.427  15.495  0.00  0.00    +0.000 OA
ENDROOT
BRANCH   5   8
ATOM      8  C   UNL     1      39.615   5.768  16.572  0.00  0.00    +0.000 A 
ATOM      9  C   UNL     1      40.801   6.090  15.920  0.00  0.00    +0.000 A 
ATOM     10  C   UNL     1      41.921   6.446  16.646  0.00  0.00    +0.000 A 
ATOM     11  C   UNL     1      41.927   6.501  18.013  0.00  0.00    +0.000 A 
ATOM     12  C   UNL     1      40.762   6.187  18.675  0.00  0.00    +0.000 A 
ATOM     13  C   UNL     1      39.630   5.827  17.945  0.00  0.00    +0.000 A 
BRANCH  11  14
ATOM     14  C   UNL     1      43.117   6.881  18.812  0.00  0.00    +0.000 C 
ATOM     15  C   UNL     1      42.772   6.999  20.284  0.00  0.00    +0.000 C 
ENDBRANCH  11  14
ENDBRANCH   5   8
BRANCH   1  16
ATOM     16  N   UNL     1      35.226   5.722  14.060  0.00  0.00    +0.000 NA
BRANCH  16  20
ATOM     17  C   UNL     1      34.762   7.101  10.062  0.00  0.00    +0.000 A 
ATOM     18  C   UNL     1      33.883   7.438  11.060  0.00  0.00    +0.000 A 
ATOM     19  C   UNL     1      34.057   6.974  12.366  0.00  0.00    +0.000 A 
ATOM     20  C   UNL     1      35.126   6.150  12.708  0.00  0.00    +0.000 A 
ATOM     21  C   UNL     1      36.006   5.813  11.708  0.00  0.00    +0.000 A 
ATOM     22  C   UNL     1      35.836   6.276  10.401  0.00  0.00    +0.000 A 
BRANCH  17  24
ATOM     23  C   UNL     1      34.775   9.099   8.657  0.00  0.00    +0.000 C 
ATOM     24  C   UNL     1      34.618   7.568   8.655  0.00  0.00    +0.000 C 
ENDBRANCH  17  24
ENDBRANCH  16  20
ENDBRANCH   1  16
BRANCH   2  25
ATOM     25  S   UNL     1      35.983   2.716  14.004  0.00  0.00    +0.000 S 
BRANCH  25  26
ATOM     26  C   UNL     1      35.717   1.475  15.246  0.00  0.00    +0.000 A 
ATOM     27  C   UNL     1      36.202   0.210  15.050  0.00  0.00    +0.000 A 
ATOM     28  C   UNL     1      36.060  -0.823  15.959  0.00  0.00    +0.000 A 
ATOM     29  C   UNL     1      35.375  -0.526  17.142  0.00  0.00    +0.000 A 
ATOM     30  C   UNL     1      34.885   0.742  17.348  0.00  0.00    +0.000 A 
ATOM     31  C   UNL     1      35.040   1.747  16.424  0.00  0.00    +0.000 A 
ENDBRANCH  25  26
ENDBRANCH   2  25
TORSDOF 7
ENDMDL
MODEL 10
REMARK VINA RESULT:      -6.7      3.241      6.339
REMARK  Name = 
REMARK  7 active torsions:
REMARK  status: ('A' for Active; 'I' for Inactive)
REMARK    1  A    between atoms: C_2  and  C_3
REMARK    2  A    between atoms: C_6  and  N_7
REMARK    3  A    between atoms: N_7  and  C_8
REMARK    4  A    between atoms: C_9  and  S_10
REMARK    5  A    between atoms: S_10  and  C_11
REMARK    6  A    between atoms: N_19  and  C_20
REMARK    7  A    between atoms: C_23  and  C_24
REMARK                            x       y       z     vdW  Elec       q    Type
REMARK                         _______ _______ _______ _____ _____    ______ ____
ROOT
ATOM      1  C   UNL     1      37.312   5.122  15.453  0.00  0.00    +0.000 C 
ATOM      2  C   UNL     1      37.558   6.384  15.062  0.00  0.00    +0.000 C 
ATOM      3  C   UNL     1      38.554   6.977  15.909  0.00  0.00    +0.000 C 
ATOM      4  O   UNL     1      39.022   8.157  15.826  0.00  0.00    +0.000 OA
ATOM      5  N   UNL     1      38.946   5.993  16.898  0.00  0.00    +0.000 N 
ATOM      6  C   UNL     1      38.161   4.860  16.590  0.00  0.00    +0.000 C 
ATOM      7  O   UNL     1      38.191   3.753  17.216  0.00  0.00    +0.000 OA
ENDROOT
BRANCH   5   8
ATOM      8  C   UNL     1      39.920   6.219  17.909  0.00  0.00    +0.000 A 
ATOM      9  C   UNL     1      41.268   6.365  17.596  0.00  0.00    +0.000 A 
ATOM     10  C   UNL     1      42.196   6.585  18.595  0.00  0.00    +0.000 A 
ATOM     11  C   UNL     1      41.851   6.669  19.916  0.00  0.00    +0.000 A 
ATOM     12  C   UNL     1      40.521   6.528  20.245  0.00  0.00    +0.000 A 
ATOM     13  C   UNL     1      39.583   6.306  19.239  0.00  0.00    +0.000 A 
BRANCH  11  14
ATOM     14  C   UNL     1      42.830   6.905  21.005  0.00  0.00    +0.000 C 
ATOM     15  C   UNL     1      43.460   5.605  21.465  0.00  0.00    +0.000 C 
ENDBRANCH  11  14
ENDBRANCH   5   8
BRANCH   1  16
ATOM     16  N   UNL     1      36.391   4.256  14.864  0.00  0.00    +0.000 NA
BRANCH  16  20
ATOM     17  C   UNL     1      35.716   0.233  16.075  0.00  0.00    +0.000 A 
ATOM     18  C   UNL     1      34.971   1.278  16.558  0.00  0.00    +0.000 A 
ATOM     19  C   UNL     1      35.210   2.592  16.144  0.00  0.00    +0.000 A 
ATOM     20  C   UNL     1      36.215   2.893  15.228  0.00  0.00    +0.000 A 
ATOM     21  C   UNL     1      36.961   1.845  14.745  0.00  0.00    +0.000 A 
ATOM     22  C   UNL     1      36.724   0.532  15.155  0.00  0.00    +0.000 A 
BRANCH  17  24
ATOM     23  C   UNL     1      34.521  -1.174  17.672  0.00  0.00    +0.000 C 
ATOM     24  C   UNL     1      35.502  -1.182  16.487  0.00  0.00    +0.000 C 
ENDBRANCH  17  24
ENDBRANCH  16  20
ENDBRANCH   1  16
BRANCH   2  25
ATOM     25  S   UNL     1      36.691   7.105  13.679  0.00  0.00    +0.000 S 
BRANCH  25  26
ATOM     26  C   UNL     1      35.739   8.481  14.272  0.00  0.00    +0.000 A 
ATOM     27  C   UNL     1      34.454   8.279  14.699  0.00  0.00    +0.000 A 
ATOM     28  C   UNL     1      33.635   9.279  15.190  0.00  0.00    +0.000 A 
ATOM     29  C   UNL     1      34.181  10.566  15.241  0.00  0.00    +0.000 A 
ATOM     30  C   UNL     1      35.470  10.779  14.815  0.00  0.00    +0.000 A 
ATOM     31  C   UNL     1      36.259   9.765  14.331  0.00  0.00    +0.000 A 
ENDBRANCH  25  26
ENDBRANCH   2  25
TORSDOF 7
ENDMDL
