MODEL 1
REMARK VINA RESULT:      -6.3      0.000      0.000
REMARK  Name = 
REMARK  4 active torsions:
REMARK  status: ('A' for Active; 'I' for Inactive)
REMARK    1  A    between atoms: C_2  and  O_3
REMARK    2  A    between atoms: O_3  and  C_4
REMARK    3  A    between atoms: C_4  and  C_6
REMARK    4  A    between atoms: C_17  and  C_18
REMARK                            x       y       z     vdW  Elec       q    Type
REMARK                         _______ _______ _______ _____ _____    ______ ____
ROOT
ATOM      1  C   UNL     1      16.157  11.652  35.380  0.00  0.00    +0.000 C 
ATOM      2  C   UNL     1      16.302  11.180  34.205  0.00  0.00    +0.000 C 
ATOM      3  N   UNL     1      17.310  10.125  34.004  0.00  0.00    +0.000 NA
ATOM      4  O   UNL     1      15.587  11.575  33.080  0.00  0.00    +0.000 OA
ATOM      5  C   UNL     1      14.658  12.567  33.328  0.00  0.00    +0.000 C 
ATOM      6  C   UNL     1      14.408  13.136  34.476  0.00  0.00    +0.000 C 
ATOM      7  C   UNL     1      13.393  14.167  34.557  0.00  0.00    +0.000 C 
ATOM      8  O   UNL     1      12.607  14.190  35.500  0.00  0.00    +0.000 OA
ATOM      9  C   UNL     1      13.345  15.166  33.487  0.00  0.00    +0.000 C 
ATOM     10  C   UNL     1      13.738  14.561  32.191  0.00  0.00    +0.000 C 
ATOM     11  C   UNL     1      13.806  13.084  32.168  0.00  0.00    +0.000 C 
ATOM     12  C   UNL     1      15.177  12.722  35.763  0.00  0.00    +0.000 C 
ENDROOT
BRANCH  12  13
ATOM     13  C   UNL     1      14.129  11.928  36.602  0.00  0.00    +0.000 A 
ATOM     14  C   UNL     1      12.938  11.458  36.266  0.00  0.00    +0.000 A 
ATOM     15  C   UNL     1      12.249  10.808  37.205  0.00  0.00    +0.000 A 
ATOM     16  C   UNL     1      12.822  10.673  38.442  0.00  0.00    +0.000 A 
ATOM     17  S   UNL     1      14.333  11.492  38.202  0.00  0.00    +0.000 S 
ENDBRANCH  12  13
BRANCH   1  18
ATOM     18  C   UNL     1      16.987  11.132  36.460  0.00  0.00    +0.000 C 
ATOM     19  O   UNL     1      16.966   9.919  36.789  0.00  0.00    +0.000 OA
BRANCH  18  20
ATOM     20  O   UNL     1      17.836  11.958  37.170  0.00  0.00    +0.000 OA
BRANCH  20  22
ATOM     21  C   UNL     1      19.891  12.573  38.319  0.00  0.00    +0.000 C 
ATOM     22  C   UNL     1      18.969  11.487  37.868  0.00  0.00    +0.000 C 
ENDBRANCH  20  22
ENDBRANCH  18  20
ENDBRANCH   1  18
TORSDOF 4
ENDMDL
MODEL 2
REMARK VINA RESULT:      -6.3     19.448     21.309
REMARK  Name = 
REMARK  4 active torsions:
REMARK  status: ('A' for Active; 'I' for Inactive)
REMARK    1  A    between atoms: C_2  and  O_3
REMARK    2  A    between atoms: O_3  and  C_4
REMARK    3  A    between atoms: C_4  and  C_6
REMARK    4  A    between atoms: C_17  and  C_18
REMARK                            x       y       z     vdW  Elec       q    Type
REMARK                         _______ _______ _______ _____ _____    ______ ____
ROOT
ATOM      1  C   UNL     1      27.026  24.139  23.464  0.00  0.00    +0.000 C 
ATOM      2  C   UNL     1      25.993  23.443  23.734  0.00  0.00    +0.000 C 
ATOM      3  N   UNL     1      25.329  22.735  22.627  0.00  0.00    +0.000 NA
ATOM      4  O   UNL     1      25.428  23.290  24.995  0.00  0.00    +0.000 OA
ATOM      5  C   UNL     1      26.091  23.977  25.993  0.00  0.00    +0.000 C 
ATOM      6  C   UNL     1      27.153  24.723  25.856  0.00  0.00    +0.000 C 
ATOM      7  C   UNL     1      27.722  25.376  27.018  0.00  0.00    +0.000 C 
ATOM      8  O   UNL     1      28.940  25.405  27.179  0.00  0.00    +0.000 OA
ATOM      9  C   UNL     1      26.802  25.994  27.975  0.00  0.00    +0.000 C 
ATOM     10  C   UNL     1      25.540  25.221  28.059  0.00  0.00    +0.000 C 
ATOM     11  C   UNL     1      25.564  23.884  27.425  0.00  0.00    +0.000 C 
ATOM     12  C   UNL     1      27.825  24.919  24.467  0.00  0.00    +0.000 C 
ENDROOT
BRANCH  12  13
ATOM     13  C   UNL     1      29.145  24.092  24.556  0.00  0.00    +0.000 A 
ATOM     14  C   UNL     1      29.347  22.832  24.910  0.00  0.00    +0.000 A 
ATOM     15  C   UNL     1      30.604  22.386  24.892  0.00  0.00    +0.000 A 
ATOM     16  C   UNL     1      31.589  23.257  24.510  0.00  0.00    +0.000 A 
ATOM     17  S   UNL     1      30.662  24.690  24.191  0.00  0.00    +0.000 S 
ENDBRANCH  12  13
BRANCH   1  18
ATOM     18  C   UNL     1      27.498  24.202  22.086  0.00  0.00    +0.000 C 
ATOM     19  O   UNL     1      28.174  23.276  21.573  0.00  0.00    +0.000 OA
BRANCH  18  20
ATOM     20  O   UNL     1      27.217  25.291  21.284  0.00  0.00    +0.000 OA
BRANCH  20  22
ATOM     21  C   UNL     1      29.373  26.284  20.746  0.00  0.00    +0.000 C 
ATOM     22  C   UNL     1      27.992  26.472  21.284  0.00  0.00    +0.000 C 
ENDBRANCH  20  22
ENDBRANCH  18  20
ENDBRANCH   1  18
TORSDOF 4
ENDMDL
MODEL 3
REMARK VINA RESULT:      -5.8     21.609     23.470
REMARK  Name = 
REMARK  4 active torsions:
REMARK  status: ('A' for Active; 'I' for Inactive)
REMARK    1  A    between atoms: C_2  and  O_3
REMARK    2  A    between atoms: O_3  and  C_4
REMARK    3  A    between atoms: C_4  and  C_6
REMARK    4  A    between atoms: C_17  and  C_18
REMARK                            x       y       z     vdW  Elec       q    Type
REMARK                         _______ _______ _______ _____ _____    ______ ____
ROOT
ATOM      1  C   UNL     1      18.653  -7.252  25.955  0.00  0.00    +0.000 C 
ATOM      2  C   UNL     1      19.227  -6.121  26.079  0.00  0.00    +0.000 C 
ATOM      3  N   UNL     1      18.463  -5.023  26.694  0.00  0.00    +0.000 NA
ATOM      4  O   UNL     1      20.525  -5.824  25.681  0.00  0.00    +0.000 OA
ATOM      5  C   UNL     1      21.193  -6.890  25.110  0.00  0.00    +0.000 C 
ATOM      6  C   UNL     1      20.728  -8.095  24.922  0.00  0.00    +0.000 C 
ATOM      7  C   UNL     1      21.570  -9.099  24.303  0.00  0.00    +0.000 C 
ATOM      8  O   UNL     1      21.589 -10.247  24.739  0.00  0.00    +0.000 OA
ATOM      9  C   UNL     1      22.383  -8.696  23.153  0.00  0.00    +0.000 C 
ATOM     10  C   UNL     1      22.827  -7.289  23.296  0.00  0.00    +0.000 C 
ATOM     11  C   UNL     1      22.632  -6.688  24.634  0.00  0.00    +0.000 C 
ATOM     12  C   UNL     1      19.283  -8.476  25.357  0.00  0.00    +0.000 C 
ENDROOT
BRANCH  12  13
ATOM     13  C   UNL     1      19.484  -9.390  26.606  0.00  0.00    +0.000 A 
ATOM     14  C   UNL     1      20.213  -9.208  27.695  0.00  0.00    +0.000 A 
ATOM     15  C   UNL     1      20.194 -10.175  28.613  0.00  0.00    +0.000 A 
ATOM     16  C   UNL     1      19.425 -11.280  28.364  0.00  0.00    +0.000 A 
ATOM     17  S   UNL     1      18.759 -10.881  26.812  0.00  0.00    +0.000 S 
ENDBRANCH  12  13
BRANCH   1  18
ATOM     18  C   UNL     1      17.281  -7.406  26.422  0.00  0.00    +0.000 C 
ATOM     19  O   UNL     1      17.009  -7.584  27.635  0.00  0.00    +0.000 OA
BRANCH  18  20
ATOM     20  O   UNL     1      16.217  -7.362  25.542  0.00  0.00    +0.000 OA
BRANCH  20  22
ATOM     21  C   UNL     1      14.187  -8.675  25.822  0.00  0.00    +0.000 C 
ATOM     22  C   UNL     1      15.503  -8.509  25.133  0.00  0.00    +0.000 C 
ENDBRANCH  20  22
ENDBRANCH  18  20
ENDBRANCH   1  18
TORSDOF 4
ENDMDL
MODEL 4
REMARK VINA RESULT:      -5.7     17.332     19.004
REMARK  Name = 
REMARK  4 active torsions:
REMARK  status: ('A' for Active; 'I' for Inactive)
REMARK    1  A    between atoms: C_2  and  O_3
REMARK    2  A    between atoms: O_3  and  C_4
REMARK    3  A    between atoms: C_4  and  C_6
REMARK    4  A    between atoms: C_17  and  C_18
REMARK                            x       y       z     vdW  Elec       q    Type
REMARK                         _______ _______ _______ _____ _____    ______ ____
ROOT
ATOM      1  C   UNL     1      26.942  23.097  28.759  0.00  0.00    +0.000 C 
ATOM      2  C   UNL     1      26.101  24.052  28.821  0.00  0.00    +0.000 C 
ATOM      3  N   UNL     1      25.593  24.438  30.148  0.00  0.00    +0.000 NA
ATOM      4  O   UNL     1      25.613  24.772  27.738  0.00  0.00    +0.000 OA
ATOM      5  C   UNL     1      26.123  24.366  26.520  0.00  0.00    +0.000 C 
ATOM      6  C   UNL     1      26.984  23.408  26.313  0.00  0.00    +0.000 C 
ATOM      7  C   UNL     1      27.415  23.112  24.961  0.00  0.00    +0.000 C 
ATOM      8  O   UNL     1      28.597  22.877  24.723  0.00  0.00    +0.000 OA
ATOM      9  C   UNL     1      26.399  23.102  23.906  0.00  0.00    +0.000 C 
ATOM     10  C   UNL     1      25.347  24.109  24.185  0.00  0.00    +0.000 C 
ATOM     11  C   UNL     1      25.662  25.085  25.252  0.00  0.00    +0.000 C 
ATOM     12  C   UNL     1      27.565  22.579  27.495  0.00  0.00    +0.000 C 
ENDROOT
BRANCH  12  13
ATOM     13  C   UNL     1      29.040  23.070  27.625  0.00  0.00    +0.000 A 
ATOM     14  C   UNL     1      30.175  22.390  27.614  0.00  0.00    +0.000 A 
ATOM     15  C   UNL     1      31.306  23.085  27.748  0.00  0.00    +0.000 A 
ATOM     16  C   UNL     1      31.211  24.444  27.883  0.00  0.00    +0.000 A 
ATOM     17  S   UNL     1      29.491  24.667  27.814  0.00  0.00    +0.000 S 
ENDBRANCH  12  13
BRANCH   1  18
ATOM     18  C   UNL     1      27.358  22.436  29.990  0.00  0.00    +0.000 C 
ATOM     19  O   UNL     1      26.883  21.328  30.342  0.00  0.00    +0.000 OA
BRANCH  18  20
ATOM     20  O   UNL     1      28.299  23.008  30.825  0.00  0.00    +0.000 OA
BRANCH  20  22
ATOM     21  C   UNL     1      30.611  23.311  31.520  0.00  0.00    +0.000 C 
ATOM     22  C   UNL     1      29.502  22.366  31.188  0.00  0.00    +0.000 C 
ENDBRANCH  20  22
ENDBRANCH  18  20
ENDBRANCH   1  18
TORSDOF 4
ENDMDL
MODEL 5
REMARK VINA RESULT:      -5.5     17.721     19.341
REMARK  Name = 
REMARK  4 active torsions:
REMARK  status: ('A' for Active; 'I' for Inactive)
REMARK    1  A    between atoms: C_2  and  O_3
REMARK    2  A    between atoms: O_3  and  C_4
REMARK    3  A    between atoms: C_4  and  C_6
REMARK    4  A    between atoms: C_17  and  C_18
REMARK                            x       y       z     vdW  Elec       q    Type
REMARK                         _______ _______ _______ _____ _____    ______ ____
ROOT
ATOM      1  C   UNL     1      10.664  21.580  21.062  0.00  0.00    +0.000 C 
ATOM      2  C   UNL     1      11.415  20.728  20.484  0.00  0.00    +0.000 C 
ATOM      3  N   UNL     1      10.796  19.489  19.985  0.00  0.00    +0.000 NA
ATOM      4  O   UNL     1      12.783  20.863  20.279  0.00  0.00    +0.000 OA
ATOM      5  C   UNL     1      13.309  22.043  20.769  0.00  0.00    +0.000 C 
ATOM      6  C   UNL     1      12.658  22.995  21.379  0.00  0.00    +0.000 C 
ATOM      7  C   UNL     1      13.372  24.173  21.830  0.00  0.00    +0.000 C 
ATOM      8  O   UNL     1      12.882  25.290  21.683  0.00  0.00    +0.000 OA
ATOM      9  C   UNL     1      14.678  23.981  22.463  0.00  0.00    +0.000 C 
ATOM     10  C   UNL     1      15.386  22.828  21.858  0.00  0.00    +0.000 C 
ATOM     11  C   UNL     1      14.806  22.307  20.601  0.00  0.00    +0.000 C 
ATOM     12  C   UNL     1      11.125  22.893  21.625  0.00  0.00    +0.000 C 
ENDROOT
BRANCH  12  13
ATOM     13  C   UNL     1      10.504  23.919  20.627  0.00  0.00    +0.000 A 
ATOM     14  C   UNL     1      10.725  24.102  19.335  0.00  0.00    +0.000 A 
ATOM     15  C   UNL     1      10.038  25.071  18.728  0.00  0.00    +0.000 A 
ATOM     16  C   UNL     1       9.158  25.801  19.481  0.00  0.00    +0.000 A 
ATOM     17  S   UNL     1       9.356  25.061  21.038  0.00  0.00    +0.000 S 
ENDBRANCH  12  13
BRANCH   1  18
ATOM     18  C   UNL     1       9.242  21.292  21.202  0.00  0.00    +0.000 C 
ATOM     19  O   UNL     1       8.791  20.631  22.171  0.00  0.00    +0.000 OA
BRANCH  18  20
ATOM     20  O   UNL     1       8.327  21.737  20.268  0.00  0.00    +0.000 OA
BRANCH  20  22
ATOM     21  C   UNL     1       8.055  21.937  17.858  0.00  0.00    +0.000 C 
ATOM     22  C   UNL     1       8.057  21.053  19.063  0.00  0.00    +0.000 C 
ENDBRANCH  20  22
ENDBRANCH  18  20
ENDBRANCH   1  18
TORSDOF 4
ENDMDL
MODEL 6
REMARK VINA RESULT:      -5.4      3.760      5.668
REMARK  Name = 
REMARK  4 active torsions:
REMARK  status: ('A' for Active; 'I' for Inactive)
REMARK    1  A    between atoms: C_2  and  O_3
REMARK    2  A    between atoms: O_3  and  C_4
REMARK    3  A    between atoms: C_4  and  C_6
REMARK    4  A    between atoms: C_17  and  C_18
REMARK                            x       y       z     vdW  Elec       q    Type
REMARK                         _______ _______ _______ _____ _____    ______ ____
ROOT
ATOM      1  C   UNL     1      20.354  10.179  38.186  0.00  0.00    +0.000 C 
ATOM      2  C   UNL     1      20.551   9.835  36.975  0.00  0.00    +0.000 C 
ATOM      3  N   UNL     1      21.931   9.541  36.556  0.00  0.00    +0.000 NA
ATOM      4  O   UNL     1      19.568   9.711  36.000  0.00  0.00    +0.000 OA
ATOM      5  C   UNL     1      18.294  10.001  36.449  0.00  0.00    +0.000 C 
ATOM      6  C   UNL     1      17.954  10.364  37.655  0.00  0.00    +0.000 C 
ATOM      7  C   UNL     1      16.561  10.630  37.956  0.00  0.00    +0.000 C 
ATOM      8  O   UNL     1      16.066  10.233  39.007  0.00  0.00    +0.000 OA
ATOM      9  C   UNL     1      15.781  11.385  36.973  0.00  0.00    +0.000 C 
ATOM     10  C   UNL     1      16.233  11.070  35.596  0.00  0.00    +0.000 C 
ATOM     11  C   UNL     1      17.126   9.897  35.467  0.00  0.00    +0.000 C 
ATOM     12  C   UNL     1      19.017  10.509  38.782  0.00  0.00    +0.000 C 
ENDROOT
BRANCH  12  13
ATOM     13  C   UNL     1      18.759   9.288  39.718  0.00  0.00    +0.000 A 
ATOM     14  C   UNL     1      18.650   7.999  39.437  0.00  0.00    +0.000 A 
ATOM     15  C   UNL     1      18.425   7.168  40.455  0.00  0.00    +0.000 A 
ATOM     16  C   UNL     1      18.326   7.704  41.711  0.00  0.00    +0.000 A 
ATOM     17  S   UNL     1      18.559   9.391  41.373  0.00  0.00    +0.000 S 
ENDBRANCH  12  13
BRANCH   1  18
ATOM     18  C   UNL     1      21.494  10.265  39.092  0.00  0.00    +0.000 C 
ATOM     19  O   UNL     1      22.089   9.241  39.509  0.00  0.00    +0.000 OA
BRANCH  18  20
ATOM     20  O   UNL     1      21.968  11.487  39.530  0.00  0.00    +0.000 OA
BRANCH  20  22
ATOM     21  C   UNL     1      21.378  13.696  38.698  0.00  0.00    +0.000 C 
ATOM     22  C   UNL     1      22.322  12.538  38.657  0.00  0.00    +0.000 C 
ENDBRANCH  20  22
ENDBRANCH  18  20
ENDBRANCH   1  18
TORSDOF 4
ENDMDL
MODEL 7
REMARK VINA RESULT:      -5.4     19.256     21.058
REMARK  Name = 
REMARK  4 active torsions:
REMARK  status: ('A' for Active; 'I' for Inactive)
REMARK    1  A    between atoms: C_2  and  O_3
REMARK    2  A    between atoms: O_3  and  C_4
REMARK    3  A    between atoms: C_4  and  C_6
REMARK    4  A    between atoms: C_17  and  C_18
REMARK                            x       y       z     vdW  Elec       q    Type
REMARK                         _______ _______ _______ _____ _____    ______ ____
ROOT
ATOM      1  C   UNL     1      28.632  23.307  24.682  0.00  0.00    +0.000 C 
ATOM      2  C   UNL     1      29.623  22.755  25.263  0.00  0.00    +0.000 C 
ATOM      3  N   UNL     1      30.723  22.253  24.423  0.00  0.00    +0.000 NA
ATOM      4  O   UNL     1      29.762  22.580  26.635  0.00  0.00    +0.000 OA
ATOM      5  C   UNL     1      28.700  23.068  27.371  0.00  0.00    +0.000 C 
ATOM      6  C   UNL     1      27.628  23.651  26.908  0.00  0.00    +0.000 C 
ATOM      7  C   UNL     1      26.606  24.105  27.829  0.00  0.00    +0.000 C 
ATOM      8  O   UNL     1      26.063  25.195  27.666  0.00  0.00    +0.000 OA
ATOM      9  C   UNL     1      26.248  23.224  28.942  0.00  0.00    +0.000 C 
ATOM     10  C   UNL     1      27.433  22.465  29.409  0.00  0.00    +0.000 C 
ATOM     11  C   UNL     1      28.738  22.936  28.894  0.00  0.00    +0.000 C 
ATOM     12  C   UNL     1      27.432  23.876  25.381  0.00  0.00    +0.000 C 
ENDROOT
BRANCH  12  13
ATOM     13  C   UNL     1      27.630  25.411  25.186  0.00  0.00    +0.000 A 
ATOM     14  C   UNL     1      28.618  26.204  25.569  0.00  0.00    +0.000 A 
ATOM     15  C   UNL     1      28.518  27.498  25.261  0.00  0.00    +0.000 A 
ATOM     16  C   UNL     1      27.409  27.909  24.572  0.00  0.00    +0.000 A 
ATOM     17  S   UNL     1      26.549  26.411  24.398  0.00  0.00    +0.000 S 
ENDBRANCH  12  13
BRANCH   1  18
ATOM     18  C   UNL     1      28.633  23.415  23.228  0.00  0.00    +0.000 C 
ATOM     19  O   UNL     1      27.734  22.892  22.523  0.00  0.00    +0.000 OA
BRANCH  18  20
ATOM     20  O   UNL     1      29.630  24.101  22.563  0.00  0.00    +0.000 OA
BRANCH  20  22
ATOM     21  C   UNL     1      29.272  26.335  21.668  0.00  0.00    +0.000 C 
ATOM     22  C   UNL     1      29.397  24.870  21.402  0.00  0.00    +0.000 C 
ENDBRANCH  20  22
ENDBRANCH  18  20
ENDBRANCH   1  18
TORSDOF 4
ENDMDL
MODEL 8
REMARK VINA RESULT:      -5.3     20.006     21.460
REMARK  Name = 
REMARK  4 active torsions:
REMARK  status: ('A' for Active; 'I' for Inactive)
REMARK    1  A    between atoms: C_2  and  O_3
REMARK    2  A    between atoms: O_3  and  C_4
REMARK    3  A    between atoms: C_4  and  C_6
REMARK    4  A    between atoms: C_17  and  C_18
REMARK                            x       y       z     vdW  Elec       q    Type
REMARK                         _______ _______ _______ _____ _____    ______ ____
ROOT
ATOM      1  C   UNL     1      29.917  24.486  25.200  0.00  0.00    +0.000 C 
ATOM      2  C   UNL     1      30.495  23.786  24.306  0.00  0.00    +0.000 C 
ATOM      3  N   UNL     1      31.430  22.738  24.748  0.00  0.00    +0.000 NA
ATOM      4  O   UNL     1      30.322  23.923  22.934  0.00  0.00    +0.000 OA
ATOM      5  C   UNL     1      29.436  24.922  22.579  0.00  0.00    +0.000 C 
ATOM      6  C   UNL     1      28.779  25.709  23.386  0.00  0.00    +0.000 C 
ATOM      7  C   UNL     1      27.885  26.710  22.840  0.00  0.00    +0.000 C 
ATOM      8  O   UNL     1      26.787  26.908  23.354  0.00  0.00    +0.000 OA
ATOM      9  C   UNL     1      28.336  27.466  21.670  0.00  0.00    +0.000 C 
ATOM     10  C   UNL     1      29.182  26.617  20.795  0.00  0.00    +0.000 C 
ATOM     11  C   UNL     1      29.161  25.168  21.095  0.00  0.00    +0.000 C 
ATOM     12  C   UNL     1      28.934  25.588  24.930  0.00  0.00    +0.000 C 
ENDROOT
BRANCH  12  13
ATOM     13  C   UNL     1      27.588  24.959  25.406  0.00  0.00    +0.000 A 
ATOM     14  C   UNL     1      26.958  23.869  24.996  0.00  0.00    +0.000 A 
ATOM     15  C   UNL     1      25.804  23.570  25.594  0.00  0.00    +0.000 A 
ATOM     16  C   UNL     1      25.359  24.405  26.584  0.00  0.00    +0.000 A 
ATOM     17  S   UNL     1      26.623  25.593  26.613  0.00  0.00    +0.000 S 
ENDBRANCH  12  13
BRANCH   1  18
ATOM     18  C   UNL     1      30.204  24.220  26.605  0.00  0.00    +0.000 C 
ATOM     19  O   UNL     1      30.957  24.965  27.280  0.00  0.00    +0.000 OA
BRANCH  18  20
ATOM     20  O   UNL     1      29.656  23.130  27.253  0.00  0.00    +0.000 OA
BRANCH  20  22
ATOM     21  C   UNL     1      27.760  22.398  28.591  0.00  0.00    +0.000 C 
ATOM     22  C   UNL     1      29.005  23.220  28.502  0.00  0.00    +0.000 C 
ENDBRANCH  20  22
ENDBRANCH  18  20
ENDBRANCH   1  18
TORSDOF 4
ENDMDL
MODEL 9
REMARK VINA RESULT:      -5.3      9.220     10.889
REMARK  Name = 
REMARK  4 active torsions:
REMARK  status: ('A' for Active; 'I' for Inactive)
REMARK    1  A    between atoms: C_2  and  O_3
REMARK    2  A    between atoms: O_3  and  C_4
REMARK    3  A    between atoms: C_4  and  C_6
REMARK    4  A    between atoms: C_17  and  C_18
REMARK                            x       y       z     vdW  Elec       q    Type
REMARK                         _______ _______ _______ _____ _____    ______ ____
ROOT
ATOM      1  C   UNL     1      18.042  21.456  38.201  0.00  0.00    +0.000 C 
ATOM      2  C   UNL     1      17.060  22.263  38.109  0.00  0.00    +0.000 C 
ATOM      3  N   UNL     1      16.427  22.724  39.356  0.00  0.00    +0.000 NA
ATOM      4  O   UNL     1      16.525  22.755  36.924  0.00  0.00    +0.000 OA
ATOM      5  C   UNL     1      17.157  22.287  35.788  0.00  0.00    +0.000 C 
ATOM      6  C   UNL     1      18.167  21.463  35.738  0.00  0.00    +0.000 C 
ATOM      7  C   UNL     1      18.711  21.075  34.452  0.00  0.00    +0.000 C 
ATOM      8  O   UNL     1      19.926  21.007  34.287  0.00  0.00    +0.000 OA
ATOM      9  C   UNL     1      17.767  20.769  33.374  0.00  0.00    +0.000 C 
ATOM     10  C   UNL     1      16.558  21.621  33.483  0.00  0.00    +0.000 C 
ATOM     11  C   UNL     1      16.659  22.760  34.422  0.00  0.00    +0.000 C 
ATOM     12  C   UNL     1      18.805  20.892  37.037  0.00  0.00    +0.000 C 
ENDROOT
BRANCH  12  13
ATOM     13  C   UNL     1      20.176  21.628  37.151  0.00  0.00    +0.000 A 
ATOM     14  C   UNL     1      20.470  22.916  37.063  0.00  0.00    +0.000 A 
ATOM     15  C   UNL     1      21.750  23.262  37.202  0.00  0.00    +0.000 A 
ATOM     16  C   UNL     1      22.663  22.266  37.427  0.00  0.00    +0.000 A 
ATOM     17  S   UNL     1      21.637  20.866  37.427  0.00  0.00    +0.000 S 
ENDBRANCH  12  13
BRANCH   1  18
ATOM     18  C   UNL     1      18.488  21.030  39.522  0.00  0.00    +0.000 C 
ATOM     19  O   UNL     1      19.206  21.762  40.248  0.00  0.00    +0.000 OA
BRANCH  18  20
ATOM     20  O   UNL     1      18.137  19.795  40.031  0.00  0.00    +0.000 OA
BRANCH  20  22
ATOM     21  C   UNL     1      19.503  17.989  39.140  0.00  0.00    +0.000 C 
ATOM     22  C   UNL     1      19.079  18.786  40.330  0.00  0.00    +0.000 C 
ENDBRANCH  20  22
ENDBRANCH  18  20
ENDBRANCH   1  18
TORSDOF 4
ENDMDL
MODEL 10
REMARK VINA RESULT:      -5.2     22.079     23.846
REMARK  Name = 
REMARK  4 active torsions:
REMARK  status: ('A' for Active; 'I' for Inactive)
REMARK    1  A    between atoms: C_2  and  O_3
REMARK    2  A    between atoms: O_3  and  C_4
REMARK    3  A    between atoms: C_4  and  C_6
REMARK    4  A    between atoms: C_17  and  C_18
REMARK                            x       y       z     vdW  Elec       q    Type
REMARK                         _______ _______ _______ _____ _____    ______ ____
ROOT
ATOM      1  C   UNL     1      16.582  -9.089  25.465  0.00  0.00    +0.000 C 
ATOM      2  C   UNL     1      15.905  -8.125  25.951  0.00  0.00    +0.000 C 
ATOM      3  N   UNL     1      14.439  -8.256  25.978  0.00  0.00    +0.000 NA
ATOM      4  O   UNL     1      16.432  -6.945  26.463  0.00  0.00    +0.000 OA
ATOM      5  C   UNL     1      17.810  -6.878  26.410  0.00  0.00    +0.000 C 
ATOM      6  C   UNL     1      18.620  -7.787  25.941  0.00  0.00    +0.000 C 
ATOM      7  C   UNL     1      20.050  -7.550  25.962  0.00  0.00    +0.000 C 
ATOM      8  O   UNL     1      20.823  -8.449  26.284  0.00  0.00    +0.000 OA
ATOM      9  C   UNL     1      20.529  -6.218  25.587  0.00  0.00    +0.000 C 
ATOM     10  C   UNL     1      19.562  -5.177  26.012  0.00  0.00    +0.000 C 
ATOM     11  C   UNL     1      18.507  -5.627  26.947  0.00  0.00    +0.000 C 
ATOM     12  C   UNL     1      18.079  -9.126  25.364  0.00  0.00    +0.000 C 
ENDROOT
BRANCH  12  13
ATOM     13  C   UNL     1      18.459 -10.192  26.438  0.00  0.00    +0.000 A 
ATOM     14  C   UNL     1      18.260 -10.201  27.747  0.00  0.00    +0.000 A 
ATOM     15  C   UNL     1      18.700 -11.262  28.425  0.00  0.00    +0.000 A 
ATOM     16  C   UNL     1      19.320 -12.260  27.722  0.00  0.00    +0.000 A 
ATOM     17  S   UNL     1      19.246 -11.628  26.108  0.00  0.00    +0.000 S 
ENDBRANCH  12  13
BRANCH   1  18
ATOM     18  C   UNL     1      15.881 -10.265  24.964  0.00  0.00    +0.000 C 
ATOM     19  O   UNL     1      15.307 -11.075  25.735  0.00  0.00    +0.000 OA
BRANCH  18  20
ATOM     20  O   UNL     1      15.820 -10.539  23.611  0.00  0.00    +0.000 OA
BRANCH  20  22
ATOM     21  C   UNL     1      13.709  -9.710  22.728  0.00  0.00    +0.000 C 
ATOM     22  C   UNL     1      15.203  -9.680  22.676  0.00  0.00    +0.000 C 
ENDBRANCH  20  22
ENDBRANCH  18  20
ENDBRANCH   1  18
TORSDOF 4
ENDMDL
