MODEL 1
REMARK VINA RESULT:      -8.0      0.000      0.000
REMARK  Name = 
REMARK  0 active torsions:
REMARK  status: ('A' for Active; 'I' for Inactive)
REMARK                            x       y       z     vdW  Elec       q    Type
REMARK                         _______ _______ _______ _____ _____    ______ ____
ROOT
ATOM      1  C   UNL     1      27.545  25.503  23.813  0.00  0.00    +0.000 C 
ATOM      2  C   UNL     1      27.306  24.174  23.494  0.00  0.00    +0.000 C 
ATOM      3  C   UNL     1      26.243  23.330  23.969  0.00  0.00    +0.000 C 
ATOM      4  C   UNL     1      26.346  23.271  25.480  0.00  0.00    +0.000 C 
ATOM      5  C   UNL     1      27.691  22.393  25.807  0.00  0.00    +0.000 C 
ATOM      6  C   UNL     1      27.809  22.771  27.320  0.00  0.00    +0.000 A 
ATOM      7  C   UNL     1      26.858  23.213  28.124  0.00  0.00    +0.000 A 
ATOM      8  C   UNL     1      27.095  23.518  29.448  0.00  0.00    +0.000 A 
ATOM      9  C   UNL     1      28.364  23.354  29.941  0.00  0.00    +0.000 A 
ATOM     10  O   UNL     1      28.662  23.653  31.296  0.00  0.00    +0.000 OA
ATOM     11  C   UNL     1      29.357  22.892  29.106  0.00  0.00    +0.000 A 
ATOM     12  C   UNL     1      29.091  22.589  27.760  0.00  0.00    +0.000 A 
ATOM     13  C   UNL     1      30.136  22.085  26.837  0.00  0.00    +0.000 C 
ATOM     14  C   UNL     1      30.087  22.768  25.538  0.00  0.00    +0.000 C 
ATOM     15  C   UNL     1      28.773  23.648  25.345  0.00  0.00    +0.000 C 
ATOM     16  C   UNL     1      28.651  23.245  23.700  0.00  0.00    +0.000 C 
ATOM     17  C   UNL     1      29.665  24.414  23.248  0.00  0.00    +0.000 C 
ATOM     18  C   UNL     1      28.911  25.015  21.927  0.00  0.00    +0.000 C 
ATOM     19  O   UNL     1      29.780  24.212  20.962  0.00  0.00    +0.000 OA
ATOM     20  C   UNL     1      27.645  23.820  21.927  0.00  0.00    +0.000 C 
ATOM     21  O   UNL     1      26.622  24.836  21.380  0.00  0.00    +0.000 OA
ENDROOT
TORSDOF 0
ENDMDL
MODEL 2
REMARK VINA RESULT:      -7.5      1.368      6.490
REMARK  Name = 
REMARK  0 active torsions:
REMARK  status: ('A' for Active; 'I' for Inactive)
REMARK                            x       y       z     vdW  Elec       q    Type
REMARK                         _______ _______ _______ _____ _____    ______ ____
ROOT
ATOM      1  C   UNL     1      28.613  25.277  29.153  0.00  0.00    +0.000 C 
ATOM      2  C   UNL     1      28.269  23.951  29.373  0.00  0.00    +0.000 C 
ATOM      3  C   UNL     1      29.064  22.778  29.122  0.00  0.00    +0.000 C 
ATOM      4  C   UNL     1      29.408  22.768  27.646  0.00  0.00    +0.000 C 
ATOM      5  C   UNL     1      28.007  22.441  26.859  0.00  0.00    +0.000 C 
ATOM      6  C   UNL     1      28.490  22.842  25.426  0.00  0.00    +0.000 A 
ATOM      7  C   UNL     1      29.731  22.910  24.975  0.00  0.00    +0.000 A 
ATOM      8  C   UNL     1      30.026  23.286  23.682  0.00  0.00    +0.000 A 
ATOM      9  C   UNL     1      28.990  23.598  22.838  0.00  0.00    +0.000 A 
ATOM     10  O   UNL     1      29.237  23.990  21.497  0.00  0.00    +0.000 OA
ATOM     11  C   UNL     1      27.696  23.526  23.304  0.00  0.00    +0.000 A 
ATOM     12  C   UNL     1      27.421  23.142  24.628  0.00  0.00    +0.000 A 
ATOM     13  C   UNL     1      26.040  23.050  25.158  0.00  0.00    +0.000 C 
ATOM     14  C   UNL     1      25.929  23.663  26.487  0.00  0.00    +0.000 C 
ATOM     15  C   UNL     1      27.342  24.003  27.139  0.00  0.00    +0.000 C 
ATOM     16  C   UNL     1      26.815  23.577  28.695  0.00  0.00    +0.000 C 
ATOM     17  C   UNL     1      26.183  25.033  28.976  0.00  0.00    +0.000 C 
ATOM     18  C   UNL     1      26.662  25.312  30.514  0.00  0.00    +0.000 C 
ATOM     19  O   UNL     1      25.320  24.878  31.100  0.00  0.00    +0.000 OA
ATOM     20  C   UNL     1      27.372  23.738  30.732  0.00  0.00    +0.000 C 
ATOM     21  O   UNL     1      28.468  24.310  31.655  0.00  0.00    +0.000 OA
ENDROOT
TORSDOF 0
ENDMDL
MODEL 3
REMARK VINA RESULT:      -7.1      2.191      3.018
REMARK  Name = 
REMARK  0 active torsions:
REMARK  status: ('A' for Active; 'I' for Inactive)
REMARK                            x       y       z     vdW  Elec       q    Type
REMARK                         _______ _______ _______ _____ _____    ______ ____
ROOT
ATOM      1  C   UNL     1      28.904  25.369  24.502  0.00  0.00    +0.000 C 
ATOM      2  C   UNL     1      28.316  24.143  24.231  0.00  0.00    +0.000 C 
ATOM      3  C   UNL     1      26.947  23.878  23.876  0.00  0.00    +0.000 C 
ATOM      4  C   UNL     1      26.075  24.397  25.001  0.00  0.00    +0.000 C 
ATOM      5  C   UNL     1      26.330  23.390  26.270  0.00  0.00    +0.000 C 
ATOM      6  C   UNL     1      25.671  24.288  27.369  0.00  0.00    +0.000 A 
ATOM      7  C   UNL     1      24.783  25.253  27.205  0.00  0.00    +0.000 A 
ATOM      8  C   UNL     1      24.281  25.980  28.264  0.00  0.00    +0.000 A 
ATOM      9  C   UNL     1      24.723  25.687  29.529  0.00  0.00    +0.000 A 
ATOM     10  O   UNL     1      24.239  26.404  30.653  0.00  0.00    +0.000 OA
ATOM     11  C   UNL     1      25.649  24.681  29.702  0.00  0.00    +0.000 A 
ATOM     12  C   UNL     1      26.146  23.954  28.607  0.00  0.00    +0.000 A 
ATOM     13  C   UNL     1      27.137  22.863  28.762  0.00  0.00    +0.000 C 
ATOM     14  C   UNL     1      28.211  22.962  27.764  0.00  0.00    +0.000 C 
ATOM     15  C   UNL     1      27.896  24.015  26.611  0.00  0.00    +0.000 C 
ATOM     16  C   UNL     1      28.619  23.044  25.420  0.00  0.00    +0.000 C 
ATOM     17  C   UNL     1      30.096  23.615  25.726  0.00  0.00    +0.000 C 
ATOM     18  C   UNL     1      30.690  23.824  24.217  0.00  0.00    +0.000 C 
ATOM     19  O   UNL     1      31.453  22.501  24.243  0.00  0.00    +0.000 OA
ATOM     20  C   UNL     1      29.312  23.119  23.420  0.00  0.00    +0.000 C 
ATOM     21  O   UNL     1      29.463  24.073  22.217  0.00  0.00    +0.000 OA
ENDROOT
TORSDOF 0
ENDMDL
MODEL 4
REMARK VINA RESULT:      -6.7      1.368      6.471
REMARK  Name = 
REMARK  0 active torsions:
REMARK  status: ('A' for Active; 'I' for Inactive)
REMARK                            x       y       z     vdW  Elec       q    Type
REMARK                         _______ _______ _______ _____ _____    ______ ____
ROOT
ATOM      1  C   UNL     1      30.905  24.492  28.275  0.00  0.00    +0.000 C 
ATOM      2  C   UNL     1      30.566  23.152  28.391  0.00  0.00    +0.000 C 
ATOM      3  C   UNL     1      30.955  22.065  27.532  0.00  0.00    +0.000 C 
ATOM      4  C   UNL     1      30.464  22.389  26.135  0.00  0.00    +0.000 C 
ATOM      5  C   UNL     1      28.830  22.253  26.189  0.00  0.00    +0.000 C 
ATOM      6  C   UNL     1      28.529  22.968  24.830  0.00  0.00    +0.000 A 
ATOM      7  C   UNL     1      29.342  23.134  23.801  0.00  0.00    +0.000 A 
ATOM      8  C   UNL     1      28.954  23.793  22.654  0.00  0.00    +0.000 A 
ATOM      9  C   UNL     1      27.677  24.291  22.584  0.00  0.00    +0.000 A 
ATOM     10  O   UNL     1      27.226  24.977  21.427  0.00  0.00    +0.000 OA
ATOM     11  C   UNL     1      26.828  24.118  23.655  0.00  0.00    +0.000 A 
ATOM     12  C   UNL     1      27.247  23.443  24.814  0.00  0.00    +0.000 A 
ATOM     13  C   UNL     1      26.355  23.237  25.980  0.00  0.00    +0.000 C 
ATOM     14  C   UNL     1      27.041  23.533  27.244  0.00  0.00    +0.000 C 
ATOM     15  C   UNL     1      28.614  23.712  27.075  0.00  0.00    +0.000 C 
ATOM     16  C   UNL     1      28.940  22.945  28.554  0.00  0.00    +0.000 C 
ATOM     17  C   UNL     1      28.740  24.301  29.402  0.00  0.00    +0.000 C 
ATOM     18  C   UNL     1      29.989  24.222  30.455  0.00  0.00    +0.000 C 
ATOM     19  O   UNL     1      29.117  23.669  31.580  0.00  0.00    +0.000 OA
ATOM     20  C   UNL     1      30.504  22.638  29.949  0.00  0.00    +0.000 C 
ATOM     21  O   UNL     1      31.983  22.983  30.218  0.00  0.00    +0.000 OA
ENDROOT
TORSDOF 0
ENDMDL
MODEL 5
REMARK VINA RESULT:      -6.6     20.633     23.910
REMARK  Name = 
REMARK  0 active torsions:
REMARK  status: ('A' for Active; 'I' for Inactive)
REMARK                            x       y       z     vdW  Elec       q    Type
REMARK                         _______ _______ _______ _____ _____    ______ ____
ROOT
ATOM      1  C   UNL     1      16.673   6.630  41.199  0.00  0.00    +0.000 C 
ATOM      2  C   UNL     1      17.039   7.779  41.885  0.00  0.00    +0.000 C 
ATOM      3  C   UNL     1      16.417   9.075  41.833  0.00  0.00    +0.000 C 
ATOM      4  C   UNL     1      16.463   9.546  40.393  0.00  0.00    +0.000 C 
ATOM      5  C   UNL     1      18.038   9.878  40.077  0.00  0.00    +0.000 C 
ATOM      6  C   UNL     1      17.911   9.966  38.520  0.00  0.00    +0.000 A 
ATOM      7  C   UNL     1      16.825  10.202  37.805  0.00  0.00    +0.000 A 
ATOM      8  C   UNL     1      16.846  10.247  36.427  0.00  0.00    +0.000 A 
ATOM      9  C   UNL     1      18.039  10.040  35.782  0.00  0.00    +0.000 A 
ATOM     10  O   UNL     1      18.117  10.077  34.366  0.00  0.00    +0.000 OA
ATOM     11  C   UNL     1      19.173   9.795  36.526  0.00  0.00    +0.000 A 
ATOM     12  C   UNL     1      19.126   9.752  37.929  0.00  0.00    +0.000 A 
ATOM     13  C   UNL     1      20.329   9.496  38.757  0.00  0.00    +0.000 C 
ATOM     14  C   UNL     1      20.054   8.527  39.825  0.00  0.00    +0.000 C 
ATOM     15  C   UNL     1      18.501   8.223  40.008  0.00  0.00    +0.000 C 
ATOM     16  C   UNL     1      18.640   8.118  41.697  0.00  0.00    +0.000 C 
ATOM     17  C   UNL     1      19.078   6.567  41.653  0.00  0.00    +0.000 C 
ATOM     18  C   UNL     1      18.204   5.940  42.885  0.00  0.00    +0.000 C 
ATOM     19  O   UNL     1      19.378   6.000  43.860  0.00  0.00    +0.000 OA
ATOM     20  C   UNL     1      17.571   7.475  43.408  0.00  0.00    +0.000 C 
ATOM     21  O   UNL     1      16.239   6.829  43.843  0.00  0.00    +0.000 OA
ENDROOT
TORSDOF 0
ENDMDL
MODEL 6
REMARK VINA RESULT:      -6.6      2.980      5.208
REMARK  Name = 
REMARK  0 active torsions:
REMARK  status: ('A' for Active; 'I' for Inactive)
REMARK                            x       y       z     vdW  Elec       q    Type
REMARK                         _______ _______ _______ _____ _____    ______ ____
ROOT
ATOM      1  C   UNL     1      26.081  26.656  27.361  0.00  0.00    +0.000 C 
ATOM      2  C   UNL     1      25.284  25.521  27.303  0.00  0.00    +0.000 C 
ATOM      3  C   UNL     1      25.481  24.268  27.982  0.00  0.00    +0.000 C 
ATOM      4  C   UNL     1      26.828  23.723  27.553  0.00  0.00    +0.000 C 
ATOM      5  C   UNL     1      26.653  23.272  25.985  0.00  0.00    +0.000 C 
ATOM      6  C   UNL     1      28.174  23.113  25.657  0.00  0.00    +0.000 A 
ATOM      7  C   UNL     1      29.172  22.913  26.500  0.00  0.00    +0.000 A 
ATOM      8  C   UNL     1      30.480  22.796  26.080  0.00  0.00    +0.000 A 
ATOM      9  C   UNL     1      30.748  22.891  24.737  0.00  0.00    +0.000 A 
ATOM     10  O   UNL     1      32.076  22.777  24.251  0.00  0.00    +0.000 OA
ATOM     11  C   UNL     1      29.710  23.098  23.856  0.00  0.00    +0.000 A 
ATOM     12  C   UNL     1      28.385  23.215  24.309  0.00  0.00    +0.000 A 
ATOM     13  C   UNL     1      27.246  23.433  23.386  0.00  0.00    +0.000 C 
ATOM     14  C   UNL     1      26.336  24.472  23.885  0.00  0.00    +0.000 C 
ATOM     15  C   UNL     1      26.630  24.887  25.394  0.00  0.00    +0.000 C 
ATOM     16  C   UNL     1      24.979  25.068  25.749  0.00  0.00    +0.000 C 
ATOM     17  C   UNL     1      24.937  26.582  25.197  0.00  0.00    +0.000 C 
ATOM     18  C   UNL     1      24.038  27.328  26.343  0.00  0.00    +0.000 C 
ATOM     19  O   UNL     1      22.757  27.241  25.515  0.00  0.00    +0.000 OA
ATOM     20  C   UNL     1      23.681  25.867  27.219  0.00  0.00    +0.000 C 
ATOM     21  O   UNL     1      23.680  26.621  28.565  0.00  0.00    +0.000 OA
ENDROOT
TORSDOF 0
ENDMDL
MODEL 7
REMARK VINA RESULT:      -6.4     21.524     22.776
REMARK  Name = 
REMARK  0 active torsions:
REMARK  status: ('A' for Active; 'I' for Inactive)
REMARK                            x       y       z     vdW  Elec       q    Type
REMARK                         _______ _______ _______ _____ _____    ______ ____
ROOT
ATOM      1  C   UNL     1      22.371   2.781  16.038  0.00  0.00    +0.000 C 
ATOM      2  C   UNL     1      22.835   2.355  17.274  0.00  0.00    +0.000 C 
ATOM      3  C   UNL     1      22.992   3.133  18.474  0.00  0.00    +0.000 C 
ATOM      4  C   UNL     1      23.946   4.268  18.160  0.00  0.00    +0.000 C 
ATOM      5  C   UNL     1      25.422   3.577  17.970  0.00  0.00    +0.000 C 
ATOM      6  C   UNL     1      26.129   4.806  17.309  0.00  0.00    +0.000 A 
ATOM      7  C   UNL     1      25.781   6.079  17.379  0.00  0.00    +0.000 A 
ATOM      8  C   UNL     1      26.491   7.074  16.740  0.00  0.00    +0.000 A 
ATOM      9  C   UNL     1      27.597   6.722  16.008  0.00  0.00    +0.000 A 
ATOM     10  O   UNL     1      28.364   7.706  15.331  0.00  0.00    +0.000 OA
ATOM     11  C   UNL     1      27.963   5.396  15.934  0.00  0.00    +0.000 A 
ATOM     12  C   UNL     1      27.222   4.401  16.593  0.00  0.00    +0.000 A 
ATOM     13  C   UNL     1      27.593   2.967  16.538  0.00  0.00    +0.000 C 
ATOM     14  C   UNL     1      26.422   2.114  16.293  0.00  0.00    +0.000 C 
ATOM     15  C   UNL     1      25.041   2.894  16.438  0.00  0.00    +0.000 C 
ATOM     16  C   UNL     1      24.270   1.557  17.147  0.00  0.00    +0.000 C 
ATOM     17  C   UNL     1      23.906   0.899  15.720  0.00  0.00    +0.000 C 
ATOM     18  C   UNL     1      22.367   0.403  15.967  0.00  0.00    +0.000 C 
ATOM     19  O   UNL     1      22.789  -1.036  16.257  0.00  0.00    +0.000 OA
ATOM     20  C   UNL     1      22.346   0.834  17.653  0.00  0.00    +0.000 C 
ATOM     21  O   UNL     1      20.848   1.201  17.587  0.00  0.00    +0.000 OA
ENDROOT
TORSDOF 0
ENDMDL
MODEL 8
REMARK VINA RESULT:      -6.2     21.023     22.393
REMARK  Name = 
REMARK  0 active torsions:
REMARK  status: ('A' for Active; 'I' for Inactive)
REMARK                            x       y       z     vdW  Elec       q    Type
REMARK                         _______ _______ _______ _____ _____    ______ ____
ROOT
ATOM      1  C   UNL     1      27.011   5.466  15.569  0.00  0.00    +0.000 C 
ATOM      2  C   UNL     1      27.404   4.637  16.610  0.00  0.00    +0.000 C 
ATOM      3  C   UNL     1      27.685   3.227  16.558  0.00  0.00    +0.000 C 
ATOM      4  C   UNL     1      26.432   2.531  16.064  0.00  0.00    +0.000 C 
ATOM      5  C   UNL     1      25.341   2.647  17.283  0.00  0.00    +0.000 C 
ATOM      6  C   UNL     1      24.079   2.233  16.456  0.00  0.00    +0.000 A 
ATOM      7  C   UNL     1      24.035   1.543  15.330  0.00  0.00    +0.000 A 
ATOM      8  C   UNL     1      22.849   1.246  14.692  0.00  0.00    +0.000 A 
ATOM      9  C   UNL     1      21.677   1.686  15.253  0.00  0.00    +0.000 A 
ATOM     10  O   UNL     1      20.428   1.409  14.639  0.00  0.00    +0.000 OA
ATOM     11  C   UNL     1      21.719   2.405  16.428  0.00  0.00    +0.000 A 
ATOM     12  C   UNL     1      22.941   2.695  17.058  0.00  0.00    +0.000 A 
ATOM     13  C   UNL     1      23.020   3.461  18.324  0.00  0.00    +0.000 C 
ATOM     14  C   UNL     1      24.074   4.481  18.275  0.00  0.00    +0.000 C 
ATOM     15  C   UNL     1      25.041   4.321  17.019  0.00  0.00    +0.000 C 
ATOM     16  C   UNL     1      26.409   4.779  17.914  0.00  0.00    +0.000 C 
ATOM     17  C   UNL     1      26.143   6.352  17.681  0.00  0.00    +0.000 C 
ATOM     18  C   UNL     1      27.650   6.899  17.358  0.00  0.00    +0.000 C 
ATOM     19  O   UNL     1      27.869   7.390  18.788  0.00  0.00    +0.000 OA
ATOM     20  C   UNL     1      28.426   5.372  17.664  0.00  0.00    +0.000 C 
ATOM     21  O   UNL     1      29.492   5.645  16.583  0.00  0.00    +0.000 OA
ENDROOT
TORSDOF 0
ENDMDL
MODEL 9
REMARK VINA RESULT:      -6.0     19.872     21.116
REMARK  Name = 
REMARK  0 active torsions:
REMARK  status: ('A' for Active; 'I' for Inactive)
REMARK                            x       y       z     vdW  Elec       q    Type
REMARK                         _______ _______ _______ _____ _____    ______ ____
ROOT
ATOM      1  C   UNL     1      28.043   4.886  13.305  0.00  0.00    +0.000 C 
ATOM      2  C   UNL     1      28.940   5.170  14.324  0.00  0.00    +0.000 C 
ATOM      3  C   UNL     1      29.487   4.264  15.299  0.00  0.00    +0.000 C 
ATOM      4  C   UNL     1      28.325   3.667  16.068  0.00  0.00    +0.000 C 
ATOM      5  C   UNL     1      27.721   4.883  16.989  0.00  0.00    +0.000 C 
ATOM      6  C   UNL     1      26.375   4.185  17.375  0.00  0.00    +0.000 A 
ATOM      7  C   UNL     1      26.099   2.892  17.374  0.00  0.00    +0.000 A 
ATOM      8  C   UNL     1      24.861   2.402  17.733  0.00  0.00    +0.000 A 
ATOM      9  C   UNL     1      23.887   3.293  18.104  0.00  0.00    +0.000 A 
ATOM     10  O   UNL     1      22.596   2.843  18.484  0.00  0.00    +0.000 OA
ATOM     11  C   UNL     1      24.172   4.641  18.108  0.00  0.00    +0.000 A 
ATOM     12  C   UNL     1      25.441   5.116  17.737  0.00  0.00    +0.000 A 
ATOM     13  C   UNL     1      25.780   6.559  17.735  0.00  0.00    +0.000 C 
ATOM     14  C   UNL     1      26.504   6.944  16.517  0.00  0.00    +0.000 C 
ATOM     15  C   UNL     1      26.991   5.693  15.659  0.00  0.00    +0.000 C 
ATOM     16  C   UNL     1      28.447   6.454  15.232  0.00  0.00    +0.000 C 
ATOM     17  C   UNL     1      27.781   7.224  13.982  0.00  0.00    +0.000 C 
ATOM     18  C   UNL     1      28.928   7.043  12.830  0.00  0.00    +0.000 C 
ATOM     19  O   UNL     1      29.511   8.433  13.073  0.00  0.00    +0.000 OA
ATOM     20  C   UNL     1      30.075   6.275  13.889  0.00  0.00    +0.000 C 
ATOM     21  O   UNL     1      30.618   5.400  12.741  0.00  0.00    +0.000 OA
ENDROOT
TORSDOF 0
ENDMDL
MODEL 10
REMARK VINA RESULT:      -5.9     32.118     33.099
REMARK  Name = 
REMARK  0 active torsions:
REMARK  status: ('A' for Active; 'I' for Inactive)
REMARK                            x       y       z     vdW  Elec       q    Type
REMARK                         _______ _______ _______ _____ _____    ______ ____
ROOT
ATOM      1  C   UNL     1      21.571 -10.620  22.097  0.00  0.00    +0.000 C 
ATOM      2  C   UNL     1      22.687 -10.591  22.921  0.00  0.00    +0.000 C 
ATOM      3  C   UNL     1      22.785 -11.019  24.291  0.00  0.00    +0.000 C 
ATOM      4  C   UNL     1      21.787 -10.210  25.094  0.00  0.00    +0.000 C 
ATOM      5  C   UNL     1      22.379  -8.681  25.140  0.00  0.00    +0.000 C 
ATOM      6  C   UNL     1      21.076  -7.982  25.652  0.00  0.00    +0.000 A 
ATOM      7  C   UNL     1      20.060  -8.527  26.298  0.00  0.00    +0.000 A 
ATOM      8  C   UNL     1      18.959  -7.797  26.691  0.00  0.00    +0.000 A 
ATOM      9  C   UNL     1      18.923  -6.457  26.399  0.00  0.00    +0.000 A 
ATOM     10  O   UNL     1      17.814  -5.659  26.781  0.00  0.00    +0.000 OA
ATOM     11  C   UNL     1      19.981  -5.886  25.726  0.00  0.00    +0.000 A 
ATOM     12  C   UNL     1      21.092  -6.651  25.335  0.00  0.00    +0.000 A 
ATOM     13  C   UNL     1      22.248  -6.065  24.615  0.00  0.00    +0.000 C 
ATOM     14  C   UNL     1      22.668  -6.908  23.489  0.00  0.00    +0.000 C 
ATOM     15  C   UNL     1      21.987  -8.348  23.498  0.00  0.00    +0.000 C 
ATOM     16  C   UNL     1      23.398  -9.106  22.935  0.00  0.00    +0.000 C 
ATOM     17  C   UNL     1      23.050  -8.801  21.390  0.00  0.00    +0.000 C 
ATOM     18  C   UNL     1      23.437 -10.221  20.676  0.00  0.00    +0.000 C 
ATOM     19  O   UNL     1      24.806  -9.716  20.222  0.00  0.00    +0.000 OA
ATOM     20  C   UNL     1      24.081 -10.939  22.125  0.00  0.00    +0.000 C 
ATOM     21  O   UNL     1      23.595 -12.341  21.700  0.00  0.00    +0.000 OA
ENDROOT
TORSDOF 0
ENDMDL
