MODEL 1
REMARK VINA RESULT:      -8.3      0.000      0.000
REMARK  Name = 
REMARK  6 active torsions:
REMARK  status: ('A' for Active; 'I' for Inactive)
REMARK    1  A    between atoms: C_2  and  C_3
REMARK    2  A    between atoms: C_3  and  C_4
REMARK    3  A    between atoms: C_4  and  C_5
REMARK    4  A    between atoms: C_5  and  C_6
REMARK    5  A    between atoms: C_6  and  C_7
REMARK    6  A    between atoms: C_11  and  C_12
REMARK                            x       y       z     vdW  Elec       q    Type
REMARK                         _______ _______ _______ _____ _____    ______ ____
ROOT
ATOM      1  C   UNL     1      37.989   3.057  15.507  0.00  0.00    +0.000 A 
ATOM      2  C   UNL     1      39.011   2.388  14.870  0.00  0.00    +0.000 A 
ATOM      3  C   UNL     1      38.930   1.010  14.638  0.00  0.00    +0.000 A 
ATOM      4  C   UNL     1      39.950   0.333  13.999  0.00  0.00    +0.000 A 
ATOM      5  C   UNL     1      39.855  -1.022  13.778  0.00  0.00    +0.000 A 
ATOM      6  C   UNL     1      38.716  -1.691  14.209  0.00  0.00    +0.000 A 
ATOM      7  N   UNL     1      38.392  -3.000  14.108  0.00  0.00    +0.000 NA
ATOM      8  C   UNL     1      37.178  -3.214  14.666  0.00  0.00    +0.000 A 
ATOM      9  C   UNL     1      36.384  -4.345  14.833  0.00  0.00    +0.000 A 
ATOM     10  C   UNL     1      35.165  -4.251  15.453  0.00  0.00    +0.000 A 
ATOM     11  C   UNL     1      34.746  -3.031  15.903  0.00  0.00    +0.000 A 
ATOM     12  C   UNL     1      35.543  -1.901  15.733  0.00  0.00    +0.000 A 
ATOM     13  C   UNL     1      36.772  -1.974  15.112  0.00  0.00    +0.000 A 
ATOM     14  N   UNL     1      37.711  -1.052  14.832  0.00  0.00    +0.000 N 
ATOM     15  C   UNL     1      37.834   0.277  15.034  0.00  0.00    +0.000 A 
ATOM     16  C   UNL     1      36.808   0.948  15.673  0.00  0.00    +0.000 A 
ATOM     17  C   UNL     1      36.896   2.307  15.898  0.00  0.00    +0.000 A 
ATOM     18  O   UNL     1      35.865   3.005  16.545  0.00  0.00    +0.000 OA
ENDROOT
BRANCH   5  19
ATOM     19  C   UNL     1      40.920  -1.774  13.103  0.00  0.00    +0.000 A 
ATOM     20  N   UNL     1      42.092  -2.123  13.650  0.00  0.00    +0.000 NA
ATOM     21  C   UNL     1      42.845  -2.805  12.772  0.00  0.00    +0.000 A 
ATOM     22  C   UNL     1      44.093  -3.389  12.779  0.00  0.00    +0.000 A 
ATOM     23  C   UNL     1      44.607  -4.040  11.682  0.00  0.00    +0.000 A 
ATOM     24  C   UNL     1      43.866  -4.119  10.531  0.00  0.00    +0.000 A 
ATOM     25  C   UNL     1      42.623  -3.543  10.503  0.00  0.00    +0.000 A 
ATOM     26  C   UNL     1      42.108  -2.896  11.592  0.00  0.00    +0.000 A 
ATOM     27  N   UNL     1      40.936  -2.248  11.850  0.00  0.00    +0.000 NA
ENDBRANCH   5  19
BRANCH   1  28
ATOM     28  C   UNL     1      38.030   4.521  15.772  0.00  0.00    +0.000 C 
BRANCH  28  29
ATOM     29  C   UNL     1      39.173   4.962  16.616  0.00  0.00    +0.000 C 
BRANCH  29  30
ATOM     30  C   UNL     1      38.875   4.975  18.103  0.00  0.00    +0.000 C 
BRANCH  30  31
ATOM     31  C   UNL     1      38.680   6.438  18.474  0.00  0.00    +0.000 C 
BRANCH  31  33
ATOM     32  C   UNL     1      40.805   6.225  19.811  0.00  0.00    +0.000 C 
ATOM     33  C   UNL     1      39.407   6.754  19.779  0.00  0.00    +0.000 C 
ENDBRANCH  31  33
ENDBRANCH  30  31
ENDBRANCH  29  30
ENDBRANCH  28  29
ENDBRANCH   1  28
TORSDOF 6
ENDMDL
MODEL 2
REMARK VINA RESULT:      -8.3      4.456      7.476
REMARK  Name = 
REMARK  6 active torsions:
REMARK  status: ('A' for Active; 'I' for Inactive)
REMARK    1  A    between atoms: C_2  and  C_3
REMARK    2  A    between atoms: C_3  and  C_4
REMARK    3  A    between atoms: C_4  and  C_5
REMARK    4  A    between atoms: C_5  and  C_6
REMARK    5  A    between atoms: C_6  and  C_7
REMARK    6  A    between atoms: C_11  and  C_12
REMARK                            x       y       z     vdW  Elec       q    Type
REMARK                         _______ _______ _______ _____ _____    ______ ____
ROOT
ATOM      1  C   UNL     1      39.523   6.698  18.858  0.00  0.00    +0.000 A 
ATOM      2  C   UNL     1      39.053   5.404  18.794  0.00  0.00    +0.000 A 
ATOM      3  C   UNL     1      38.355   4.951  17.668  0.00  0.00    +0.000 A 
ATOM      4  C   UNL     1      37.882   3.655  17.597  0.00  0.00    +0.000 A 
ATOM      5  C   UNL     1      37.198   3.224  16.483  0.00  0.00    +0.000 A 
ATOM      6  C   UNL     1      36.994   4.117  15.438  0.00  0.00    +0.000 A 
ATOM      7  N   UNL     1      36.363   3.933  14.256  0.00  0.00    +0.000 NA
ATOM      8  C   UNL     1      36.402   5.077  13.535  0.00  0.00    +0.000 A 
ATOM      9  C   UNL     1      35.920   5.439  12.280  0.00  0.00    +0.000 A 
ATOM     10  C   UNL     1      36.118   6.708  11.800  0.00  0.00    +0.000 A 
ATOM     11  C   UNL     1      36.796   7.607  12.574  0.00  0.00    +0.000 A 
ATOM     12  C   UNL     1      37.278   7.241  13.830  0.00  0.00    +0.000 A 
ATOM     13  C   UNL     1      37.088   5.971  14.330  0.00  0.00    +0.000 A 
ATOM     14  N   UNL     1      37.446   5.381  15.486  0.00  0.00    +0.000 N 
ATOM     15  C   UNL     1      38.113   5.774  16.591  0.00  0.00    +0.000 A 
ATOM     16  C   UNL     1      38.585   7.072  16.655  0.00  0.00    +0.000 A 
ATOM     17  C   UNL     1      39.272   7.511  17.768  0.00  0.00    +0.000 A 
ATOM     18  O   UNL     1      39.758   8.826  17.851  0.00  0.00    +0.000 OA
ENDROOT
BRANCH   5  19
ATOM     19  C   UNL     1      36.680   1.855  16.373  0.00  0.00    +0.000 A 
ATOM     20  N   UNL     1      35.647   1.356  17.065  0.00  0.00    +0.000 NA
ATOM     21  C   UNL     1      35.425   0.074  16.732  0.00  0.00    +0.000 A 
ATOM     22  C   UNL     1      34.531  -0.907  17.107  0.00  0.00    +0.000 A 
ATOM     23  C   UNL     1      34.558  -2.171  16.567  0.00  0.00    +0.000 A 
ATOM     24  C   UNL     1      35.501  -2.485  15.622  0.00  0.00    +0.000 A 
ATOM     25  C   UNL     1      36.400  -1.525  15.238  0.00  0.00    +0.000 A 
ATOM     26  C   UNL     1      36.376  -0.266  15.772  0.00  0.00    +0.000 A 
ATOM     27  N   UNL     1      37.120   0.861  15.588  0.00  0.00    +0.000 NA
ENDBRANCH   5  19
BRANCH   1  28
ATOM     28  C   UNL     1      40.272   7.224  20.031  0.00  0.00    +0.000 C 
BRANCH  28  29
ATOM     29  C   UNL     1      41.548   6.513  20.316  0.00  0.00    +0.000 C 
BRANCH  29  30
ATOM     30  C   UNL     1      42.780   7.393  20.219  0.00  0.00    +0.000 C 
BRANCH  30  31
ATOM     31  C   UNL     1      43.597   6.838  19.061  0.00  0.00    +0.000 C 
BRANCH  31  33
ATOM     32  C   UNL     1      42.619   6.516  16.761  0.00  0.00    +0.000 C 
ATOM     33  C   UNL     1      43.170   7.493  17.750  0.00  0.00    +0.000 C 
ENDBRANCH  31  33
ENDBRANCH  30  31
ENDBRANCH  29  30
ENDBRANCH  28  29
ENDBRANCH   1  28
TORSDOF 6
ENDMDL
MODEL 3
REMARK VINA RESULT:      -7.9      3.512      7.723
REMARK  Name = 
REMARK  6 active torsions:
REMARK  status: ('A' for Active; 'I' for Inactive)
REMARK    1  A    between atoms: C_2  and  C_3
REMARK    2  A    between atoms: C_3  and  C_4
REMARK    3  A    between atoms: C_4  and  C_5
REMARK    4  A    between atoms: C_5  and  C_6
REMARK    5  A    between atoms: C_6  and  C_7
REMARK    6  A    between atoms: C_11  and  C_12
REMARK                            x       y       z     vdW  Elec       q    Type
REMARK                         _______ _______ _______ _____ _____    ______ ____
ROOT
ATOM      1  C   UNL     1      41.451  -0.379  14.050  0.00  0.00    +0.000 A 
ATOM      2  C   UNL     1      40.849   0.851  13.894  0.00  0.00    +0.000 A 
ATOM      3  C   UNL     1      39.554   1.081  14.370  0.00  0.00    +0.000 A 
ATOM      4  C   UNL     1      38.946   2.311  14.219  0.00  0.00    +0.000 A 
ATOM      5  C   UNL     1      37.670   2.522  14.692  0.00  0.00    +0.000 A 
ATOM      6  C   UNL     1      37.012   1.473  15.324  0.00  0.00    +0.000 A 
ATOM      7  N   UNL     1      35.773   1.433  15.867  0.00  0.00    +0.000 NA
ATOM      8  C   UNL     1      35.539   0.202  16.378  0.00  0.00    +0.000 A 
ATOM      9  C   UNL     1      34.456  -0.375  17.035  0.00  0.00    +0.000 A 
ATOM     10  C   UNL     1      34.511  -1.681  17.448  0.00  0.00    +0.000 A 
ATOM     11  C   UNL     1      35.645  -2.403  17.204  0.00  0.00    +0.000 A 
ATOM     12  C   UNL     1      36.728  -1.821  16.548  0.00  0.00    +0.000 A 
ATOM     13  C   UNL     1      36.692  -0.510  16.123  0.00  0.00    +0.000 A 
ATOM     14  N   UNL     1      37.584   0.268  15.482  0.00  0.00    +0.000 N 
ATOM     15  C   UNL     1      38.835   0.093  15.007  0.00  0.00    +0.000 A 
ATOM     16  C   UNL     1      39.438  -1.141  15.163  0.00  0.00    +0.000 A 
ATOM     17  C   UNL     1      40.716  -1.359  14.691  0.00  0.00    +0.000 A 
ATOM     18  O   UNL     1      41.344  -2.606  14.840  0.00  0.00    +0.000 OA
ENDROOT
BRANCH   5  19
ATOM     19  C   UNL     1      36.993   3.816  14.548  0.00  0.00    +0.000 A 
ATOM     20  N   UNL     1      37.511   5.006  14.881  0.00  0.00    +0.000 NA
ATOM     21  C   UNL     1      36.639   5.994  14.625  0.00  0.00    +0.000 A 
ATOM     22  C   UNL     1      36.627   7.366  14.761  0.00  0.00    +0.000 A 
ATOM     23  C   UNL     1      35.545   8.132  14.396  0.00  0.00    +0.000 A 
ATOM     24  C   UNL     1      34.430   7.526  13.878  0.00  0.00    +0.000 A 
ATOM     25  C   UNL     1      34.421   6.164  13.736  0.00  0.00    +0.000 A 
ATOM     26  C   UNL     1      35.495   5.398  14.097  0.00  0.00    +0.000 A 
ATOM     27  N   UNL     1      35.765   4.062  14.071  0.00  0.00    +0.000 NA
ENDBRANCH   5  19
BRANCH   1  28
ATOM     28  C   UNL     1      42.827  -0.668  13.563  0.00  0.00    +0.000 C 
BRANCH  28  29
ATOM     29  C   UNL     1      43.909  -0.041  14.369  0.00  0.00    +0.000 C 
BRANCH  29  30
ATOM     30  C   UNL     1      44.617  -1.000  15.306  0.00  0.00    +0.000 C 
BRANCH  30  31
ATOM     31  C   UNL     1      45.763  -0.209  15.921  0.00  0.00    +0.000 C 
BRANCH  31  33
ATOM     32  C   UNL     1      46.747   0.548  18.114  0.00  0.00    +0.000 C 
ATOM     33  C   UNL     1      45.602  -0.136  17.437  0.00  0.00    +0.000 C 
ENDBRANCH  31  33
ENDBRANCH  30  31
ENDBRANCH  29  30
ENDBRANCH  28  29
ENDBRANCH   1  28
TORSDOF 6
ENDMDL
MODEL 4
REMARK VINA RESULT:      -7.9      4.618      7.784
REMARK  Name = 
REMARK  6 active torsions:
REMARK  status: ('A' for Active; 'I' for Inactive)
REMARK    1  A    between atoms: C_2  and  C_3
REMARK    2  A    between atoms: C_3  and  C_4
REMARK    3  A    between atoms: C_4  and  C_5
REMARK    4  A    between atoms: C_5  and  C_6
REMARK    5  A    between atoms: C_6  and  C_7
REMARK    6  A    between atoms: C_11  and  C_12
REMARK                            x       y       z     vdW  Elec       q    Type
REMARK                         _______ _______ _______ _____ _____    ______ ____
ROOT
ATOM      1  C   UNL     1      41.084   7.146  16.276  0.00  0.00    +0.000 A 
ATOM      2  C   UNL     1      40.572   5.881  16.462  0.00  0.00    +0.000 A 
ATOM      3  C   UNL     1      39.296   5.548  15.994  0.00  0.00    +0.000 A 
ATOM      4  C   UNL     1      38.777   4.281  16.177  0.00  0.00    +0.000 A 
ATOM      5  C   UNL     1      37.520   3.969  15.711  0.00  0.00    +0.000 A 
ATOM      6  C   UNL     1      36.788   4.952  15.056  0.00  0.00    +0.000 A 
ATOM      7  N   UNL     1      35.550   4.891  14.514  0.00  0.00    +0.000 NA
ATOM      8  C   UNL     1      35.228   6.089  13.974  0.00  0.00    +0.000 A 
ATOM      9  C   UNL     1      34.107   6.571  13.305  0.00  0.00    +0.000 A 
ATOM     10  C   UNL     1      34.068   7.868  12.861  0.00  0.00    +0.000 A 
ATOM     11  C   UNL     1      35.148   8.674  13.085  0.00  0.00    +0.000 A 
ATOM     12  C   UNL     1      36.270   8.187  13.753  0.00  0.00    +0.000 A 
ATOM     13  C   UNL     1      36.328   6.887  14.209  0.00  0.00    +0.000 A 
ATOM     14  N   UNL     1      37.273   6.191  14.867  0.00  0.00    +0.000 N 
ATOM     15  C   UNL     1      38.508   6.466  15.335  0.00  0.00    +0.000 A 
ATOM     16  C   UNL     1      39.021   7.736  15.148  0.00  0.00    +0.000 A 
ATOM     17  C   UNL     1      40.281   8.056  15.612  0.00  0.00    +0.000 A 
ATOM     18  O   UNL     1      40.818   9.340  15.432  0.00  0.00    +0.000 OA
ENDROOT
BRANCH   5  19
ATOM     19  C   UNL     1      36.937   2.634  15.888  0.00  0.00    +0.000 A 
ATOM     20  N   UNL     1      37.224   1.556  15.146  0.00  0.00    +0.000 NA
ATOM     21  C   UNL     1      36.523   0.489  15.564  0.00  0.00    +0.000 A 
ATOM     22  C   UNL     1      36.415  -0.833  15.191  0.00  0.00    +0.000 A 
ATOM     23  C   UNL     1      35.579  -1.714  15.837  0.00  0.00    +0.000 A 
ATOM     24  C   UNL     1      34.818  -1.277  16.891  0.00  0.00    +0.000 A 
ATOM     25  C   UNL     1      34.910   0.035  17.276  0.00  0.00    +0.000 A 
ATOM     26  C   UNL     1      35.741   0.913  16.637  0.00  0.00    +0.000 A 
ATOM     27  N   UNL     1      36.033   2.235  16.794  0.00  0.00    +0.000 NA
ENDBRANCH   5  19
BRANCH   1  28
ATOM     28  C   UNL     1      42.436   7.545  16.752  0.00  0.00    +0.000 C 
BRANCH  28  29
ATOM     29  C   UNL     1      42.513   7.842  18.208  0.00  0.00    +0.000 C 
BRANCH  29  30
ATOM     30  C   UNL     1      42.713   6.617  19.079  0.00  0.00    +0.000 C 
BRANCH  30  31
ATOM     31  C   UNL     1      41.743   6.773  20.243  0.00  0.00    +0.000 C 
BRANCH  31  33
ATOM     32  C   UNL     1      39.294   7.302  19.971  0.00  0.00    +0.000 C 
ATOM     33  C   UNL     1      40.360   6.260  19.851  0.00  0.00    +0.000 C 
ENDBRANCH  31  33
ENDBRANCH  30  31
ENDBRANCH  29  30
ENDBRANCH  28  29
ENDBRANCH   1  28
TORSDOF 6
ENDMDL
MODEL 5
REMARK VINA RESULT:      -7.8      3.124      8.063
REMARK  Name = 
REMARK  6 active torsions:
REMARK  status: ('A' for Active; 'I' for Inactive)
REMARK    1  A    between atoms: C_2  and  C_3
REMARK    2  A    between atoms: C_3  and  C_4
REMARK    3  A    between atoms: C_4  and  C_5
REMARK    4  A    between atoms: C_5  and  C_6
REMARK    5  A    between atoms: C_6  and  C_7
REMARK    6  A    between atoms: C_11  and  C_12
REMARK                            x       y       z     vdW  Elec       q    Type
REMARK                         _______ _______ _______ _____ _____    ______ ____
ROOT
ATOM      1  C   UNL     1      41.520  -0.678  14.145  0.00  0.00    +0.000 A 
ATOM      2  C   UNL     1      40.981   0.580  13.982  0.00  0.00    +0.000 A 
ATOM      3  C   UNL     1      39.688   0.869  14.430  0.00  0.00    +0.000 A 
ATOM      4  C   UNL     1      39.142   2.128  14.271  0.00  0.00    +0.000 A 
ATOM      5  C   UNL     1      37.868   2.397  14.717  0.00  0.00    +0.000 A 
ATOM      6  C   UNL     1      37.146   1.378  15.328  0.00  0.00    +0.000 A 
ATOM      7  N   UNL     1      35.895   1.395  15.843  0.00  0.00    +0.000 NA
ATOM      8  C   UNL     1      35.591   0.175  16.343  0.00  0.00    +0.000 A 
ATOM      9  C   UNL     1      34.467  -0.353  16.971  0.00  0.00    +0.000 A 
ATOM     10  C   UNL     1      34.451  -1.662  17.379  0.00  0.00    +0.000 A 
ATOM     11  C   UNL     1      35.554  -2.435  17.157  0.00  0.00    +0.000 A 
ATOM     12  C   UNL     1      36.679  -1.904  16.528  0.00  0.00    +0.000 A 
ATOM     13  C   UNL     1      36.715  -0.590  16.110  0.00  0.00    +0.000 A 
ATOM     14  N   UNL     1      37.657   0.147  15.493  0.00  0.00    +0.000 N 
ATOM     15  C   UNL     1      38.908  -0.086  15.045  0.00  0.00    +0.000 A 
ATOM     16  C   UNL     1      39.448  -1.347  15.209  0.00  0.00    +0.000 A 
ATOM     17  C   UNL     1      40.725  -1.624  14.765  0.00  0.00    +0.000 A 
ATOM     18  O   UNL     1      41.289  -2.900  14.922  0.00  0.00    +0.000 OA
ENDROOT
BRANCH   5  19
ATOM     19  C   UNL     1      37.257   3.722  14.564  0.00  0.00    +0.000 A 
ATOM     20  N   UNL     1      36.124   3.984  13.898  0.00  0.00    +0.000 NA
ATOM     21  C   UNL     1      35.835   5.295  13.946  0.00  0.00    +0.000 A 
ATOM     22  C   UNL     1      34.834   6.107  13.459  0.00  0.00    +0.000 A 
ATOM     23  C   UNL     1      34.812   7.464  13.684  0.00  0.00    +0.000 A 
ATOM     24  C   UNL     1      35.815   8.045  14.416  0.00  0.00    +0.000 A 
ATOM     25  C   UNL     1      36.820   7.255  14.909  0.00  0.00    +0.000 A 
ATOM     26  C   UNL     1      36.844   5.906  14.688  0.00  0.00    +0.000 A 
ATOM     27  N   UNL     1      37.690   4.897  15.043  0.00  0.00    +0.000 NA
ENDBRANCH   5  19
BRANCH   1  28
ATOM     28  C   UNL     1      42.891  -1.030  13.688  0.00  0.00    +0.000 C 
BRANCH  28  29
ATOM     29  C   UNL     1      43.062  -1.050  12.210  0.00  0.00    +0.000 C 
BRANCH  29  30
ATOM     30  C   UNL     1      42.381  -2.219  11.525  0.00  0.00    +0.000 C 
BRANCH  30  31
ATOM     31  C   UNL     1      41.471  -1.607  10.469  0.00  0.00    +0.000 C 
BRANCH  31  33
ATOM     32  C   UNL     1      39.389  -0.239  10.848  0.00  0.00    +0.000 C 
ATOM     33  C   UNL     1      40.027  -1.587  10.963  0.00  0.00    +0.000 C 
ENDBRANCH  31  33
ENDBRANCH  30  31
ENDBRANCH  29  30
ENDBRANCH  28  29
ENDBRANCH   1  28
TORSDOF 6
ENDMDL
MODEL 6
REMARK VINA RESULT:      -7.7      4.590      8.121
REMARK  Name = 
REMARK  6 active torsions:
REMARK  status: ('A' for Active; 'I' for Inactive)
REMARK    1  A    between atoms: C_2  and  C_3
REMARK    2  A    between atoms: C_3  and  C_4
REMARK    3  A    between atoms: C_4  and  C_5
REMARK    4  A    between atoms: C_5  and  C_6
REMARK    5  A    between atoms: C_6  and  C_7
REMARK    6  A    between atoms: C_11  and  C_12
REMARK                            x       y       z     vdW  Elec       q    Type
REMARK                         _______ _______ _______ _____ _____    ______ ____
ROOT
ATOM      1  C   UNL     1      36.546   6.577  11.836  0.00  0.00    +0.000 A 
ATOM      2  C   UNL     1      36.236   5.306  12.269  0.00  0.00    +0.000 A 
ATOM      3  C   UNL     1      36.630   4.865  13.537  0.00  0.00    +0.000 A 
ATOM      4  C   UNL     1      36.322   3.593  13.977  0.00  0.00    +0.000 A 
ATOM      5  C   UNL     1      36.717   3.173  15.227  0.00  0.00    +0.000 A 
ATOM      6  C   UNL     1      37.430   4.054  16.032  0.00  0.00    +0.000 A 
ATOM      7  N   UNL     1      37.920   3.879  17.281  0.00  0.00    +0.000 NA
ATOM      8  C   UNL     1      38.550   5.007  17.686  0.00  0.00    +0.000 A 
ATOM      9  C   UNL     1      39.217   5.368  18.853  0.00  0.00    +0.000 A 
ATOM     10  C   UNL     1      39.769   6.617  18.978  0.00  0.00    +0.000 A 
ATOM     11  C   UNL     1      39.653   7.496  17.939  0.00  0.00    +0.000 A 
ATOM     12  C   UNL     1      38.984   7.131  16.772  0.00  0.00    +0.000 A 
ATOM     13  C   UNL     1      38.422   5.880  16.626  0.00  0.00    +0.000 A 
ATOM     14  N   UNL     1      37.740   5.296  15.624  0.00  0.00    +0.000 N 
ATOM     15  C   UNL     1      37.339   5.678  14.394  0.00  0.00    +0.000 A 
ATOM     16  C   UNL     1      37.650   6.953  13.960  0.00  0.00    +0.000 A 
ATOM     17  C   UNL     1      37.257   7.380  12.708  0.00  0.00    +0.000 A 
ATOM     18  O   UNL     1      37.564   8.671  12.250  0.00  0.00    +0.000 OA
ENDROOT
BRANCH   5  19
ATOM     19  C   UNL     1      36.408   1.829  15.728  0.00  0.00    +0.000 A 
ATOM     20  N   UNL     1      37.275   0.810  15.808  0.00  0.00    +0.000 NA
ATOM     21  C   UNL     1      36.680  -0.284  16.310  0.00  0.00    +0.000 A 
ATOM     22  C   UNL     1      37.064  -1.574  16.605  0.00  0.00    +0.000 A 
ATOM     23  C   UNL     1      36.193  -2.500  17.130  0.00  0.00    +0.000 A 
ATOM     24  C   UNL     1      34.891  -2.144  17.373  0.00  0.00    +0.000 A 
ATOM     25  C   UNL     1      34.489  -0.866  17.085  0.00  0.00    +0.000 A 
ATOM     26  C   UNL     1      35.352   0.057  16.564  0.00  0.00    +0.000 A 
ATOM     27  N   UNL     1      35.239   1.363  16.190  0.00  0.00    +0.000 NA
ENDBRANCH   5  19
BRANCH   1  28
ATOM     28  C   UNL     1      36.145   7.091  10.498  0.00  0.00    +0.000 C 
BRANCH  28  29
ATOM     29  C   UNL     1      34.683   7.318  10.339  0.00  0.00    +0.000 C 
BRANCH  29  30
ATOM     30  C   UNL     1      33.988   7.778  11.606  0.00  0.00    +0.000 C 
BRANCH  30  31
ATOM     31  C   UNL     1      34.240   9.276  11.697  0.00  0.00    +0.000 C 
BRANCH  31  33
ATOM     32  C   UNL     1      34.178   8.570  14.116  0.00  0.00    +0.000 C 
ATOM     33  C   UNL     1      34.334   9.708  13.159  0.00  0.00    +0.000 C 
ENDBRANCH  31  33
ENDBRANCH  30  31
ENDBRANCH  29  30
ENDBRANCH  28  29
ENDBRANCH   1  28
TORSDOF 6
ENDMDL
MODEL 7
REMARK VINA RESULT:      -7.6      4.763      8.880
REMARK  Name = 
REMARK  6 active torsions:
REMARK  status: ('A' for Active; 'I' for Inactive)
REMARK    1  A    between atoms: C_2  and  C_3
REMARK    2  A    between atoms: C_3  and  C_4
REMARK    3  A    between atoms: C_4  and  C_5
REMARK    4  A    between atoms: C_5  and  C_6
REMARK    5  A    between atoms: C_6  and  C_7
REMARK    6  A    between atoms: C_11  and  C_12
REMARK                            x       y       z     vdW  Elec       q    Type
REMARK                         _______ _______ _______ _____ _____    ______ ____
ROOT
ATOM      1  C   UNL     1      35.813   7.129  12.135  0.00  0.00    +0.000 A 
ATOM      2  C   UNL     1      35.518   5.821  12.450  0.00  0.00    +0.000 A 
ATOM      3  C   UNL     1      36.039   5.227  13.605  0.00  0.00    +0.000 A 
ATOM      4  C   UNL     1      35.746   3.917  13.927  0.00  0.00    +0.000 A 
ATOM      5  C   UNL     1      36.266   3.347  15.068  0.00  0.00    +0.000 A 
ATOM      6  C   UNL     1      37.088   4.116  15.883  0.00  0.00    +0.000 A 
ATOM      7  N   UNL     1      37.708   3.788  17.040  0.00  0.00    +0.000 NA
ATOM      8  C   UNL     1      38.410   4.850  17.498  0.00  0.00    +0.000 A 
ATOM      9  C   UNL     1      39.212   5.061  18.616  0.00  0.00    +0.000 A 
ATOM     10  C   UNL     1      39.809   6.278  18.821  0.00  0.00    +0.000 A 
ATOM     11  C   UNL     1      39.603   7.276  17.911  0.00  0.00    +0.000 A 
ATOM     12  C   UNL     1      38.799   7.061  16.793  0.00  0.00    +0.000 A 
ATOM     13  C   UNL     1      38.190   5.844  16.568  0.00  0.00    +0.000 A 
ATOM     14  N   UNL     1      37.385   5.393  15.589  0.00  0.00    +0.000 N 
ATOM     15  C   UNL     1      36.860   5.923  14.465  0.00  0.00    +0.000 A 
ATOM     16  C   UNL     1      37.157   7.235  14.149  0.00  0.00    +0.000 A 
ATOM     17  C   UNL     1      36.639   7.813  13.008  0.00  0.00    +0.000 A 
ATOM     18  O   UNL     1      36.929   9.145  12.671  0.00  0.00    +0.000 OA
ENDROOT
BRANCH   5  19
ATOM     19  C   UNL     1      35.977   1.957  15.441  0.00  0.00    +0.000 A 
ATOM     20  N   UNL     1      36.505   0.870  14.862  0.00  0.00    +0.000 NA
ATOM     21  C   UNL     1      36.038  -0.250  15.436  0.00  0.00    +0.000 A 
ATOM     22  C   UNL     1      36.222  -1.605  15.261  0.00  0.00    +0.000 A 
ATOM     23  C   UNL     1      35.577  -2.542  16.034  0.00  0.00    +0.000 A 
ATOM     24  C   UNL     1      34.715  -2.131  17.018  0.00  0.00    +0.000 A 
ATOM     25  C   UNL     1      34.517  -0.789  17.207  0.00  0.00    +0.000 A 
ATOM     26  C   UNL     1      35.157   0.146  16.441  0.00  0.00    +0.000 A 
ATOM     27  N   UNL     1      35.157   1.509  16.402  0.00  0.00    +0.000 NA
ENDBRANCH   5  19
BRANCH   1  28
ATOM     28  C   UNL     1      35.281   7.803  10.920  0.00  0.00    +0.000 C 
BRANCH  28  29
ATOM     29  C   UNL     1      35.110   6.908   9.744  0.00  0.00    +0.000 C 
BRANCH  29  30
ATOM     30  C   UNL     1      34.480   7.582   8.541  0.00  0.00    +0.000 C 
BRANCH  30  31
ATOM     31  C   UNL     1      33.538   6.551   7.934  0.00  0.00    +0.000 C 
BRANCH  31  33
ATOM     32  C   UNL     1      34.805   7.368   5.914  0.00  0.00    +0.000 C 
ATOM     33  C   UNL     1      33.638   6.575   6.411  0.00  0.00    +0.000 C 
ENDBRANCH  31  33
ENDBRANCH  30  31
ENDBRANCH  29  30
ENDBRANCH  28  29
ENDBRANCH   1  28
TORSDOF 6
ENDMDL
MODEL 8
REMARK VINA RESULT:      -7.5      4.585      7.305
REMARK  Name = 
REMARK  6 active torsions:
REMARK  status: ('A' for Active; 'I' for Inactive)
REMARK    1  A    between atoms: C_2  and  C_3
REMARK    2  A    between atoms: C_3  and  C_4
REMARK    3  A    between atoms: C_4  and  C_5
REMARK    4  A    between atoms: C_5  and  C_6
REMARK    5  A    between atoms: C_6  and  C_7
REMARK    6  A    between atoms: C_11  and  C_12
REMARK                            x       y       z     vdW  Elec       q    Type
REMARK                         _______ _______ _______ _____ _____    ______ ____
ROOT
ATOM      1  C   UNL     1      37.010  -1.175  15.441  0.00  0.00    +0.000 A 
ATOM      2  C   UNL     1      36.507  -0.627  14.281  0.00  0.00    +0.000 A 
ATOM      3  C   UNL     1      37.353  -0.002  13.358  0.00  0.00    +0.000 A 
ATOM      4  C   UNL     1      36.854   0.547  12.194  0.00  0.00    +0.000 A 
ATOM      5  C   UNL     1      37.699   1.159  11.295  0.00  0.00    +0.000 A 
ATOM      6  C   UNL     1      39.058   1.210  11.584  0.00  0.00    +0.000 A 
ATOM      7  N   UNL     1      40.073   1.747  10.870  0.00  0.00    +0.000 NA
ATOM      8  C   UNL     1      41.240   1.568  11.532  0.00  0.00    +0.000 A 
ATOM      9  C   UNL     1      42.561   1.914  11.260  0.00  0.00    +0.000 A 
ATOM     10  C   UNL     1      43.558   1.590  12.143  0.00  0.00    +0.000 A 
ATOM     11  C   UNL     1      43.233   0.925  13.291  0.00  0.00    +0.000 A 
ATOM     12  C   UNL     1      41.909   0.580  13.559  0.00  0.00    +0.000 A 
ATOM     13  C   UNL     1      40.892   0.897  12.684  0.00  0.00    +0.000 A 
ATOM     14  N   UNL     1      39.563   0.681  12.711  0.00  0.00    +0.000 N 
ATOM     15  C   UNL     1      38.710   0.089  13.572  0.00  0.00    +0.000 A 
ATOM     16  C   UNL     1      39.216  -0.460  14.735  0.00  0.00    +0.000 A 
ATOM     17  C   UNL     1      38.375  -1.075  15.641  0.00  0.00    +0.000 A 
ATOM     18  O   UNL     1      38.871  -1.638  16.828  0.00  0.00    +0.000 OA
ENDROOT
BRANCH   5  19
ATOM     19  C   UNL     1      37.205   1.754  10.048  0.00  0.00    +0.000 A 
ATOM     20  N   UNL     1      36.657   2.971   9.931  0.00  0.00    +0.000 NA
ATOM     21  C   UNL     1      36.310   3.218   8.657  0.00  0.00    +0.000 A 
ATOM     22  C   UNL     1      35.728   4.263   7.973  0.00  0.00    +0.000 A 
ATOM     23  C   UNL     1      35.492   4.216   6.619  0.00  0.00    +0.000 A 
ATOM     24  C   UNL     1      35.842   3.096   5.909  0.00  0.00    +0.000 A 
ATOM     25  C   UNL     1      36.420   2.045   6.571  0.00  0.00    +0.000 A 
ATOM     26  C   UNL     1      36.657   2.089   7.917  0.00  0.00    +0.000 A 
ATOM     27  N   UNL     1      37.202   1.222   8.817  0.00  0.00    +0.000 NA
ENDBRANCH   5  19
BRANCH   1  28
ATOM     28  C   UNL     1      36.151  -1.852  16.450  0.00  0.00    +0.000 C 
BRANCH  28  29
ATOM     29  C   UNL     1      35.106  -0.981  17.052  0.00  0.00    +0.000 C 
BRANCH  29  30
ATOM     30  C   UNL     1      35.607  -0.107  18.185  0.00  0.00    +0.000 C 
BRANCH  30  31
ATOM     31  C   UNL     1      35.934   1.240  17.556  0.00  0.00    +0.000 C 
BRANCH  31  33
ATOM     32  C   UNL     1      35.247   2.644  15.579  0.00  0.00    +0.000 C 
ATOM     33  C   UNL     1      34.801   1.683  16.634  0.00  0.00    +0.000 C 
ENDBRANCH  31  33
ENDBRANCH  30  31
ENDBRANCH  29  30
ENDBRANCH  28  29
ENDBRANCH   1  28
TORSDOF 6
ENDMDL
MODEL 9
REMARK VINA RESULT:      -7.4      3.885      7.031
REMARK  Name = 
REMARK  6 active torsions:
REMARK  status: ('A' for Active; 'I' for Inactive)
REMARK    1  A    between atoms: C_2  and  C_3
REMARK    2  A    between atoms: C_3  and  C_4
REMARK    3  A    between atoms: C_4  and  C_5
REMARK    4  A    between atoms: C_5  and  C_6
REMARK    5  A    between atoms: C_6  and  C_7
REMARK    6  A    between atoms: C_11  and  C_12
REMARK                            x       y       z     vdW  Elec       q    Type
REMARK                         _______ _______ _______ _____ _____    ______ ____
ROOT
ATOM      1  C   UNL     1      36.735  -2.195  15.760  0.00  0.00    +0.000 A 
ATOM      2  C   UNL     1      36.407  -1.156  14.917  0.00  0.00    +0.000 A 
ATOM      3  C   UNL     1      37.180  -0.883  13.782  0.00  0.00    +0.000 A 
ATOM      4  C   UNL     1      36.856   0.156  12.932  0.00  0.00    +0.000 A 
ATOM      5  C   UNL     1      37.626   0.412  11.820  0.00  0.00    +0.000 A 
ATOM      6  C   UNL     1      38.730  -0.394  11.573  0.00  0.00    +0.000 A 
ATOM      7  N   UNL     1      39.627  -0.345  10.561  0.00  0.00    +0.000 NA
ATOM      8  C   UNL     1      40.544  -1.328  10.716  0.00  0.00    +0.000 A 
ATOM      9  C   UNL     1      41.660  -1.724   9.984  0.00  0.00    +0.000 A 
ATOM     10  C   UNL     1      42.419  -2.788  10.399  0.00  0.00    +0.000 A 
ATOM     11  C   UNL     1      42.062  -3.448  11.540  0.00  0.00    +0.000 A 
ATOM     12  C   UNL     1      40.943  -3.049  12.270  0.00  0.00    +0.000 A 
ATOM     13  C   UNL     1      40.167  -1.982  11.870  0.00  0.00    +0.000 A 
ATOM     14  N   UNL     1      39.064  -1.410  12.387  0.00  0.00    +0.000 N 
ATOM     15  C   UNL     1      38.290  -1.636  13.468  0.00  0.00    +0.000 A 
ATOM     16  C   UNL     1      38.619  -2.678  14.314  0.00  0.00    +0.000 A 
ATOM     17  C   UNL     1      37.852  -2.941  15.431  0.00  0.00    +0.000 A 
ATOM     18  O   UNL     1      38.172  -3.995  16.302  0.00  0.00    +0.000 OA
ENDROOT
BRANCH   5  19
ATOM     19  C   UNL     1      37.311   1.508  10.895  0.00  0.00    +0.000 A 
ATOM     20  N   UNL     1      37.618   2.798  11.086  0.00  0.00    +0.000 NA
ATOM     21  C   UNL     1      37.194   3.546  10.054  0.00  0.00    +0.000 A 
ATOM     22  C   UNL     1      37.229   4.882   9.718  0.00  0.00    +0.000 A 
ATOM     23  C   UNL     1      36.688   5.361   8.548  0.00  0.00    +0.000 A 
ATOM     24  C   UNL     1      36.088   4.493   7.673  0.00  0.00    +0.000 A 
ATOM     25  C   UNL     1      36.041   3.161   7.989  0.00  0.00    +0.000 A 
ATOM     26  C   UNL     1      36.578   2.680   9.151  0.00  0.00    +0.000 A 
ATOM     27  N   UNL     1      36.678   1.443   9.715  0.00  0.00    +0.000 NA
ENDBRANCH   5  19
BRANCH   1  28
ATOM     28  C   UNL     1      35.942  -2.525  16.975  0.00  0.00    +0.000 C 
BRANCH  28  29
ATOM     29  C   UNL     1      35.147  -1.391  17.519  0.00  0.00    +0.000 C 
BRANCH  29  30
ATOM     30  C   UNL     1      35.876  -0.571  18.566  0.00  0.00    +0.000 C 
BRANCH  30  31
ATOM     31  C   UNL     1      35.962   0.840  18.003  0.00  0.00    +0.000 C 
BRANCH  31  33
ATOM     32  C   UNL     1      35.085   2.166  16.047  0.00  0.00    +0.000 C 
ATOM     33  C   UNL     1      34.791   1.106  17.061  0.00  0.00    +0.000 C 
ENDBRANCH  31  33
ENDBRANCH  30  31
ENDBRANCH  29  30
ENDBRANCH  28  29
ENDBRANCH   1  28
TORSDOF 6
ENDMDL
MODEL 10
REMARK VINA RESULT:      -7.4      3.301      5.564
REMARK  Name = 
REMARK  6 active torsions:
REMARK  status: ('A' for Active; 'I' for Inactive)
REMARK    1  A    between atoms: C_2  and  C_3
REMARK    2  A    between atoms: C_3  and  C_4
REMARK    3  A    between atoms: C_4  and  C_5
REMARK    4  A    between atoms: C_5  and  C_6
REMARK    5  A    between atoms: C_6  and  C_7
REMARK    6  A    between atoms: C_11  and  C_12
REMARK                            x       y       z     vdW  Elec       q    Type
REMARK                         _______ _______ _______ _____ _____    ______ ____
ROOT
ATOM      1  C   UNL     1      37.710   7.189  15.853  0.00  0.00    +0.000 A 
ATOM      2  C   UNL     1      38.209   5.926  16.085  0.00  0.00    +0.000 A 
ATOM      3  C   UNL     1      38.183   4.951  15.081  0.00  0.00    +0.000 A 
ATOM      4  C   UNL     1      38.681   3.683  15.306  0.00  0.00    +0.000 A 
ATOM      5  C   UNL     1      38.649   2.734  14.309  0.00  0.00    +0.000 A 
ATOM      6  C   UNL     1      38.106   3.079  13.077  0.00  0.00    +0.000 A 
ATOM      7  N   UNL     1      37.965   2.335  11.956  0.00  0.00    +0.000 NA
ATOM      8  C   UNL     1      37.382   3.077  10.987  0.00  0.00    +0.000 A 
ATOM      9  C   UNL     1      37.011   2.817   9.670  0.00  0.00    +0.000 A 
ATOM     10  C   UNL     1      36.423   3.794   8.909  0.00  0.00    +0.000 A 
ATOM     11  C   UNL     1      36.208   5.023   9.466  0.00  0.00    +0.000 A 
ATOM     12  C   UNL     1      36.581   5.280  10.784  0.00  0.00    +0.000 A 
ATOM     13  C   UNL     1      37.173   4.311  11.566  0.00  0.00    +0.000 A 
ATOM     14  N   UNL     1      37.615   4.307  12.837  0.00  0.00    +0.000 N 
ATOM     15  C   UNL     1      37.662   5.214  13.834  0.00  0.00    +0.000 A 
ATOM     16  C   UNL     1      37.162   6.482  13.602  0.00  0.00    +0.000 A 
ATOM     17  C   UNL     1      37.191   7.438  14.596  0.00  0.00    +0.000 A 
ATOM     18  O   UNL     1      36.687   8.730  14.378  0.00  0.00    +0.000 OA
ENDROOT
BRANCH   5  19
ATOM     19  C   UNL     1      39.170   1.377  14.513  0.00  0.00    +0.000 A 
ATOM     20  N   UNL     1      40.370   0.937  14.113  0.00  0.00    +0.000 NA
ATOM     21  C   UNL     1      40.543  -0.351  14.453  0.00  0.00    +0.000 A 
ATOM     22  C   UNL     1      41.541  -1.290  14.305  0.00  0.00    +0.000 A 
ATOM     23  C   UNL     1      41.418  -2.575  14.778  0.00  0.00    +0.000 A 
ATOM     24  C   UNL     1      40.268  -2.954  15.421  0.00  0.00    +0.000 A 
ATOM     25  C   UNL     1      39.263  -2.036  15.577  0.00  0.00    +0.000 A 
ATOM     26  C   UNL     1      39.382  -0.757  15.109  0.00  0.00    +0.000 A 
ATOM     27  N   UNL     1      38.573   0.341  15.119  0.00  0.00    +0.000 NA
ENDBRANCH   5  19
BRANCH   1  28
ATOM     28  C   UNL     1      37.719   8.259  16.888  0.00  0.00    +0.000 C 
BRANCH  28  29
ATOM     29  C   UNL     1      38.718   8.058  17.972  0.00  0.00    +0.000 C 
BRANCH  29  30
ATOM     30  C   UNL     1      38.160   8.253  19.369  0.00  0.00    +0.000 C 
BRANCH  30  31
ATOM     31  C   UNL     1      39.168   7.608  20.311  0.00  0.00    +0.000 C 
BRANCH  31  33
ATOM     32  C   UNL     1      41.264   6.222  20.119  0.00  0.00    +0.000 C 
ATOM     33  C   UNL     1      39.873   6.446  19.616  0.00  0.00    +0.000 C 
ENDBRANCH  31  33
ENDBRANCH  30  31
ENDBRANCH  29  30
ENDBRANCH  28  29
ENDBRANCH   1  28
TORSDOF 6
ENDMDL
