MODEL 1
REMARK VINA RESULT:      -6.5      0.000      0.000
REMARK  Name = 
REMARK  5 active torsions:
REMARK  status: ('A' for Active; 'I' for Inactive)
REMARK    1  A    between atoms: O_2  and  C_3
REMARK    2  A    between atoms: C_6  and  C_7
REMARK    3  A    between atoms: C_7  and  C_8
REMARK    4  A    between atoms: C_7  and  C_12
REMARK    5  A    between atoms: C_8  and  N_9
REMARK                            x       y       z     vdW  Elec       q    Type
REMARK                         _______ _______ _______ _____ _____    ______ ____
ROOT
ATOM      1  C   UNL     1      26.830  23.075  25.117  0.00  0.00    +0.000 C 
ENDROOT
BRANCH   1   2
ATOM      2  C   UNL     1      26.195  23.853  26.355  0.00  0.00    +0.000 A 
ATOM      3  C   UNL     1      25.371  24.894  26.366  0.00  0.00    +0.000 A 
ATOM      4  C   UNL     1      24.839  25.579  25.145  0.00  0.00    +0.000 C 
ATOM      5  N   UNL     1      25.114  25.200  27.651  0.00  0.00    +0.000 NA
ATOM      6  C   UNL     1      25.770  24.360  28.473  0.00  0.00    +0.000 A 
ATOM      7  C   UNL     1      25.844  24.247  29.848  0.00  0.00    +0.000 A 
ATOM      8  C   UNL     1      26.608  23.274  30.436  0.00  0.00    +0.000 A 
ATOM      9  C   UNL     1      27.309  22.402  29.599  0.00  0.00    +0.000 A 
ATOM     10  C   UNL     1      27.234  22.514  28.238  0.00  0.00    +0.000 A 
ATOM     11  C   UNL     1      26.470  23.487  27.653  0.00  0.00    +0.000 A 
ENDBRANCH   1   2
BRANCH   1  15
ATOM     12  C   UNL     1      30.986  24.209  25.498  0.00  0.00    +0.000 A 
ATOM     13  C   UNL     1      30.642  22.857  25.485  0.00  0.00    +0.000 A 
ATOM     14  C   UNL     1      29.273  22.523  25.360  0.00  0.00    +0.000 A 
ATOM     15  C   UNL     1      28.327  23.480  25.256  0.00  0.00    +0.000 A 
ATOM     16  C   UNL     1      28.710  24.789  25.274  0.00  0.00    +0.000 A 
ATOM     17  C   UNL     1      30.039  25.170  25.395  0.00  0.00    +0.000 A 
BRANCH  12  19
ATOM     18  C   UNL     1      32.900  24.394  26.915  0.00  0.00    +0.000 C 
ATOM     19  O   UNL     1      32.336  24.495  25.623  0.00  0.00    +0.000 OA
ENDBRANCH  12  19
ENDBRANCH   1  15
BRANCH   1  20
ATOM     20  C   UNL     1      26.392  24.151  23.981  0.00  0.00    +0.000 C 
BRANCH  20  21
ATOM     21  N   UNL     1      26.424  23.408  22.747  0.00  0.00    +0.000 N 
ATOM     22  O   UNL     1      27.398  23.333  21.982  0.00  0.00    +0.000 OA
ATOM     23  O   UNL     1      25.289  22.732  22.400  0.00  0.00    +0.000 OA
ENDBRANCH  20  21
ENDBRANCH   1  20
TORSDOF 5
ENDMDL
MODEL 2
REMARK VINA RESULT:      -6.3      2.343      4.536
REMARK  Name = 
REMARK  5 active torsions:
REMARK  status: ('A' for Active; 'I' for Inactive)
REMARK    1  A    between atoms: O_2  and  C_3
REMARK    2  A    between atoms: C_6  and  C_7
REMARK    3  A    between atoms: C_7  and  C_8
REMARK    4  A    between atoms: C_7  and  C_12
REMARK    5  A    between atoms: C_8  and  N_9
REMARK                            x       y       z     vdW  Elec       q    Type
REMARK                         _______ _______ _______ _____ _____    ______ ____
ROOT
ATOM      1  C   UNL     1      25.510  24.018  24.629  0.00  0.00    +0.000 C 
ENDROOT
BRANCH   1   2
ATOM      2  C   UNL     1      25.961  25.547  24.580  0.00  0.00    +0.000 A 
ATOM      3  C   UNL     1      25.258  26.644  24.839  0.00  0.00    +0.000 A 
ATOM      4  C   UNL     1      23.822  26.662  25.261  0.00  0.00    +0.000 C 
ATOM      5  N   UNL     1      26.070  27.702  24.658  0.00  0.00    +0.000 NA
ATOM      6  C   UNL     1      27.295  27.293  24.281  0.00  0.00    +0.000 A 
ATOM      7  C   UNL     1      28.464  27.965  23.975  0.00  0.00    +0.000 A 
ATOM      8  C   UNL     1      29.595  27.282  23.612  0.00  0.00    +0.000 A 
ATOM      9  C   UNL     1      29.526  25.888  23.561  0.00  0.00    +0.000 A 
ATOM     10  C   UNL     1      28.369  25.225  23.864  0.00  0.00    +0.000 A 
ATOM     11  C   UNL     1      27.241  25.909  24.227  0.00  0.00    +0.000 A 
ENDBRANCH   1   2
BRANCH   1  15
ATOM     12  C   UNL     1      27.496  22.698  28.237  0.00  0.00    +0.000 A 
ATOM     13  C   UNL     1      26.405  23.563  28.331  0.00  0.00    +0.000 A 
ATOM     14  C   UNL     1      25.780  23.975  27.131  0.00  0.00    +0.000 A 
ATOM     15  C   UNL     1      26.224  23.546  25.929  0.00  0.00    +0.000 A 
ATOM     16  C   UNL     1      27.294  22.702  25.885  0.00  0.00    +0.000 A 
ATOM     17  C   UNL     1      27.943  22.268  27.034  0.00  0.00    +0.000 A 
BRANCH  12  19
ATOM     18  C   UNL     1      27.213  21.910  30.473  0.00  0.00    +0.000 C 
ATOM     19  O   UNL     1      28.080  22.319  29.434  0.00  0.00    +0.000 OA
ENDBRANCH  12  19
ENDBRANCH   1  15
BRANCH   1  20
ATOM     20  C   UNL     1      26.592  23.474  23.546  0.00  0.00    +0.000 C 
BRANCH  20  21
ATOM     21  N   UNL     1      25.806  23.137  22.387  0.00  0.00    +0.000 N 
ATOM     22  O   UNL     1      26.054  23.497  21.225  0.00  0.00    +0.000 OA
ATOM     23  O   UNL     1      24.703  22.357  22.590  0.00  0.00    +0.000 OA
ENDBRANCH  20  21
ENDBRANCH   1  20
TORSDOF 5
ENDMDL
MODEL 3
REMARK VINA RESULT:      -6.3     17.367     19.849
REMARK  Name = 
REMARK  5 active torsions:
REMARK  status: ('A' for Active; 'I' for Inactive)
REMARK    1  A    between atoms: O_2  and  C_3
REMARK    2  A    between atoms: C_6  and  C_7
REMARK    3  A    between atoms: C_7  and  C_8
REMARK    4  A    between atoms: C_7  and  C_12
REMARK    5  A    between atoms: C_8  and  N_9
REMARK                            x       y       z     vdW  Elec       q    Type
REMARK                         _______ _______ _______ _____ _____    ______ ____
ROOT
ATOM      1  C   UNL     1      19.744   9.575  38.118  0.00  0.00    +0.000 C 
ENDROOT
BRANCH   1   2
ATOM      2  C   UNL     1      20.953  10.597  37.924  0.00  0.00    +0.000 A 
ATOM      3  C   UNL     1      21.064  11.858  38.323  0.00  0.00    +0.000 A 
ATOM      4  C   UNL     1      20.018  12.613  39.085  0.00  0.00    +0.000 C 
ATOM      5  N   UNL     1      22.268  12.309  37.924  0.00  0.00    +0.000 NA
ATOM      6  C   UNL     1      22.935  11.343  37.266  0.00  0.00    +0.000 A 
ATOM      7  C   UNL     1      24.180  11.293  36.667  0.00  0.00    +0.000 A 
ATOM      8  C   UNL     1      24.621  10.151  36.053  0.00  0.00    +0.000 A 
ATOM      9  C   UNL     1      23.771   9.042  36.052  0.00  0.00    +0.000 A 
ATOM     10  C   UNL     1      22.540   9.094  36.646  0.00  0.00    +0.000 A 
ATOM     11  C   UNL     1      22.102  10.235  37.259  0.00  0.00    +0.000 A 
ENDBRANCH   1   2
BRANCH   1  15
ATOM     12  C   UNL     1      17.051  10.905  35.006  0.00  0.00    +0.000 A 
ATOM     13  C   UNL     1      18.027   9.955  34.709  0.00  0.00    +0.000 A 
ATOM     14  C   UNL     1      18.892   9.544  35.750  0.00  0.00    +0.000 A 
ATOM     15  C   UNL     1      18.777  10.053  36.995  0.00  0.00    +0.000 A 
ATOM     16  C   UNL     1      17.807  10.981  37.241  0.00  0.00    +0.000 A 
ATOM     17  C   UNL     1      16.934  11.418  36.253  0.00  0.00    +0.000 A 
BRANCH  12  19
ATOM     18  C   UNL     1      16.475  10.696  32.698  0.00  0.00    +0.000 C 
ATOM     19  O   UNL     1      16.225  11.282  33.960  0.00  0.00    +0.000 OA
ENDBRANCH  12  19
ENDBRANCH   1  15
BRANCH   1  20
ATOM     20  C   UNL     1      19.056  10.342  39.375  0.00  0.00    +0.000 C 
BRANCH  20  21
ATOM     21  N   UNL     1      18.477   9.288  40.169  0.00  0.00    +0.000 N 
ATOM     22  O   UNL     1      18.773   8.086  40.087  0.00  0.00    +0.000 OA
ATOM     23  O   UNL     1      17.531   9.650  41.086  0.00  0.00    +0.000 OA
ENDBRANCH  20  21
ENDBRANCH   1  20
TORSDOF 5
ENDMDL
MODEL 4
REMARK VINA RESULT:      -6.3      2.336      4.408
REMARK  Name = 
REMARK  5 active torsions:
REMARK  status: ('A' for Active; 'I' for Inactive)
REMARK    1  A    between atoms: O_2  and  C_3
REMARK    2  A    between atoms: C_6  and  C_7
REMARK    3  A    between atoms: C_7  and  C_8
REMARK    4  A    between atoms: C_7  and  C_12
REMARK    5  A    between atoms: C_8  and  N_9
REMARK                            x       y       z     vdW  Elec       q    Type
REMARK                         _______ _______ _______ _____ _____    ______ ____
ROOT
ATOM      1  C   UNL     1      25.603  23.853  24.864  0.00  0.00    +0.000 C 
ENDROOT
BRANCH   1   2
ATOM      2  C   UNL     1      25.863  25.426  24.831  0.00  0.00    +0.000 A 
ATOM      3  C   UNL     1      27.004  26.090  24.694  0.00  0.00    +0.000 A 
ATOM      4  C   UNL     1      28.350  25.457  24.524  0.00  0.00    +0.000 C 
ATOM      5  N   UNL     1      26.719  27.405  24.732  0.00  0.00    +0.000 NA
ATOM      6  C   UNL     1      25.397  27.593  24.894  0.00  0.00    +0.000 A 
ATOM      7  C   UNL     1      24.607  28.724  24.994  0.00  0.00    +0.000 A 
ATOM      8  C   UNL     1      23.251  28.624  25.160  0.00  0.00    +0.000 A 
ATOM      9  C   UNL     1      22.695  27.344  25.225  0.00  0.00    +0.000 A 
ATOM     10  C   UNL     1      23.478  26.227  25.125  0.00  0.00    +0.000 A 
ATOM     11  C   UNL     1      24.832  26.329  24.960  0.00  0.00    +0.000 A 
ENDBRANCH   1   2
BRANCH   1  15
ATOM     12  C   UNL     1      27.494  22.805  28.609  0.00  0.00    +0.000 A 
ATOM     13  C   UNL     1      28.000  22.288  27.416  0.00  0.00    +0.000 A 
ATOM     14  C   UNL     1      27.356  22.651  26.210  0.00  0.00    +0.000 A 
ATOM     15  C   UNL     1      26.285  23.473  26.210  0.00  0.00    +0.000 A 
ATOM     16  C   UNL     1      25.824  23.954  27.401  0.00  0.00    +0.000 A 
ATOM     17  C   UNL     1      26.420  23.628  28.612  0.00  0.00    +0.000 A 
BRANCH  12  19
ATOM     18  C   UNL     1      29.506  22.812  29.896  0.00  0.00    +0.000 C 
ATOM     19  O   UNL     1      28.152  22.426  29.767  0.00  0.00    +0.000 OA
ENDBRANCH  12  19
ENDBRANCH   1  15
BRANCH   1  20
ATOM     20  C   UNL     1      26.812  23.447  23.856  0.00  0.00    +0.000 C 
BRANCH  20  21
ATOM     21  N   UNL     1      26.175  23.281  22.575  0.00  0.00    +0.000 N 
ATOM     22  O   UNL     1      26.619  23.700  21.494  0.00  0.00    +0.000 OA
ATOM     23  O   UNL     1      24.989  22.602  22.555  0.00  0.00    +0.000 OA
ENDBRANCH  20  21
ENDBRANCH   1  20
TORSDOF 5
ENDMDL
MODEL 5
REMARK VINA RESULT:      -6.2      1.888      3.492
REMARK  Name = 
REMARK  5 active torsions:
REMARK  status: ('A' for Active; 'I' for Inactive)
REMARK    1  A    between atoms: O_2  and  C_3
REMARK    2  A    between atoms: C_6  and  C_7
REMARK    3  A    between atoms: C_7  and  C_8
REMARK    4  A    between atoms: C_7  and  C_12
REMARK    5  A    between atoms: C_8  and  N_9
REMARK                            x       y       z     vdW  Elec       q    Type
REMARK                         _______ _______ _______ _____ _____    ______ ____
ROOT
ATOM      1  C   UNL     1      29.681  23.194  24.110  0.00  0.00    +0.000 C 
ENDROOT
BRANCH   1   2
ATOM      2  C   UNL     1      28.882  23.162  25.489  0.00  0.00    +0.000 A 
ATOM      3  C   UNL     1      29.225  22.621  26.652  0.00  0.00    +0.000 A 
ATOM      4  C   UNL     1      30.510  21.900  26.916  0.00  0.00    +0.000 C 
ATOM      5  N   UNL     1      28.222  22.847  27.520  0.00  0.00    +0.000 NA
ATOM      6  C   UNL     1      27.230  23.532  26.922  0.00  0.00    +0.000 A 
ATOM      7  C   UNL     1      26.007  24.003  27.362  0.00  0.00    +0.000 A 
ATOM      8  C   UNL     1      25.171  24.688  26.519  0.00  0.00    +0.000 A 
ATOM      9  C   UNL     1      25.596  24.892  25.204  0.00  0.00    +0.000 A 
ATOM     10  C   UNL     1      26.806  24.425  24.772  0.00  0.00    +0.000 A 
ATOM     11  C   UNL     1      27.640  23.742  25.615  0.00  0.00    +0.000 A 
ENDBRANCH   1   2
BRANCH   1  15
ATOM     12  C   UNL     1      33.013  25.740  25.167  0.00  0.00    +0.000 A 
ATOM     13  C   UNL     1      33.245  24.401  24.852  0.00  0.00    +0.000 A 
ATOM     14  C   UNL     1      32.132  23.597  24.512  0.00  0.00    +0.000 A 
ATOM     15  C   UNL     1      30.882  24.108  24.491  0.00  0.00    +0.000 A 
ATOM     16  C   UNL     1      30.703  25.423  24.807  0.00  0.00    +0.000 A 
ATOM     17  C   UNL     1      31.762  26.254  25.148  0.00  0.00    +0.000 A 
BRANCH  12  19
ATOM     18  C   UNL     1      35.347  26.150  24.865  0.00  0.00    +0.000 C 
ATOM     19  O   UNL     1      34.129  26.493  25.495  0.00  0.00    +0.000 OA
ENDBRANCH  12  19
ENDBRANCH   1  15
BRANCH   1  20
ATOM     20  C   UNL     1      28.748  24.310  23.384  0.00  0.00    +0.000 C 
BRANCH  20  21
ATOM     21  N   UNL     1      28.655  23.869  22.016  0.00  0.00    +0.000 N 
ATOM     22  O   UNL     1      27.740  23.172  21.549  0.00  0.00    +0.000 OA
ATOM     23  O   UNL     1      29.654  24.257  21.169  0.00  0.00    +0.000 OA
ENDBRANCH  20  21
ENDBRANCH   1  20
TORSDOF 5
ENDMDL
MODEL 6
REMARK VINA RESULT:      -6.2      1.224      2.652
REMARK  Name = 
REMARK  5 active torsions:
REMARK  status: ('A' for Active; 'I' for Inactive)
REMARK    1  A    between atoms: O_2  and  C_3
REMARK    2  A    between atoms: C_6  and  C_7
REMARK    3  A    between atoms: C_7  and  C_8
REMARK    4  A    between atoms: C_7  and  C_12
REMARK    5  A    between atoms: C_8  and  N_9
REMARK                            x       y       z     vdW  Elec       q    Type
REMARK                         _______ _______ _______ _____ _____    ______ ____
ROOT
ATOM      1  C   UNL     1      27.154  22.938  24.809  0.00  0.00    +0.000 C 
ENDROOT
BRANCH   1   2
ATOM      2  C   UNL     1      26.632  23.535  26.192  0.00  0.00    +0.000 A 
ATOM      3  C   UNL     1      26.978  23.215  27.434  0.00  0.00    +0.000 A 
ATOM      4  C   UNL     1      27.990  22.175  27.801  0.00  0.00    +0.000 C 
ATOM      5  N   UNL     1      26.262  23.990  28.270  0.00  0.00    +0.000 NA
ATOM      6  C   UNL     1      25.454  24.810  27.573  0.00  0.00    +0.000 A 
ATOM      7  C   UNL     1      24.539  25.777  27.945  0.00  0.00    +0.000 A 
ATOM      8  C   UNL     1      23.835  26.481  27.004  0.00  0.00    +0.000 A 
ATOM      9  C   UNL     1      24.073  26.187  25.659  0.00  0.00    +0.000 A 
ATOM     10  C   UNL     1      24.979  25.231  25.293  0.00  0.00    +0.000 A 
ATOM     11  C   UNL     1      25.681  24.529  26.235  0.00  0.00    +0.000 A 
ENDBRANCH   1   2
BRANCH   1  15
ATOM     12  C   UNL     1      31.230  24.383  24.793  0.00  0.00    +0.000 A 
ATOM     13  C   UNL     1      30.987  23.013  24.691  0.00  0.00    +0.000 A 
ATOM     14  C   UNL     1      29.642  22.576  24.701  0.00  0.00    +0.000 A 
ATOM     15  C   UNL     1      28.622  23.455  24.804  0.00  0.00    +0.000 A 
ATOM     16  C   UNL     1      28.907  24.786  24.902  0.00  0.00    +0.000 A 
ATOM     17  C   UNL     1      30.210  25.266  24.897  0.00  0.00    +0.000 A 
BRANCH  12  19
ATOM     18  C   UNL     1      32.856  26.074  25.239  0.00  0.00    +0.000 C 
ATOM     19  O   UNL     1      32.560  24.770  24.780  0.00  0.00    +0.000 OA
ENDBRANCH  12  19
ENDBRANCH   1  15
BRANCH   1  20
ATOM     20  C   UNL     1      26.492  24.078  23.857  0.00  0.00    +0.000 C 
BRANCH  20  21
ATOM     21  N   UNL     1      26.263  23.412  22.601  0.00  0.00    +0.000 N 
ATOM     22  O   UNL     1      25.268  22.723  22.326  0.00  0.00    +0.000 OA
ATOM     23  O   UNL     1      27.221  23.558  21.637  0.00  0.00    +0.000 OA
ENDBRANCH  20  21
ENDBRANCH   1  20
TORSDOF 5
ENDMDL
MODEL 7
REMARK VINA RESULT:      -6.2     18.854     21.160
REMARK  Name = 
REMARK  5 active torsions:
REMARK  status: ('A' for Active; 'I' for Inactive)
REMARK    1  A    between atoms: O_2  and  C_3
REMARK    2  A    between atoms: C_6  and  C_7
REMARK    3  A    between atoms: C_7  and  C_8
REMARK    4  A    between atoms: C_7  and  C_12
REMARK    5  A    between atoms: C_8  and  N_9
REMARK                            x       y       z     vdW  Elec       q    Type
REMARK                         _______ _______ _______ _____ _____    ______ ____
ROOT
ATOM      1  C   UNL     1      19.034  11.153  38.781  0.00  0.00    +0.000 C 
ENDROOT
BRANCH   1   2
ATOM      2  C   UNL     1      18.968   9.743  39.523  0.00  0.00    +0.000 A 
ATOM      3  C   UNL     1      19.921   8.836  39.699  0.00  0.00    +0.000 A 
ATOM      4  C   UNL     1      21.331   8.968  39.214  0.00  0.00    +0.000 C 
ATOM      5  N   UNL     1      19.385   7.807  40.383  0.00  0.00    +0.000 NA
ATOM      6  C   UNL     1      18.088   8.046  40.648  0.00  0.00    +0.000 A 
ATOM      7  C   UNL     1      17.109   7.326  41.306  0.00  0.00    +0.000 A 
ATOM      8  C   UNL     1      15.837   7.819  41.435  0.00  0.00    +0.000 A 
ATOM      9  C   UNL     1      15.565   9.071  40.879  0.00  0.00    +0.000 A 
ATOM     10  C   UNL     1      16.535   9.782  40.229  0.00  0.00    +0.000 A 
ATOM     11  C   UNL     1      17.805   9.288  40.102  0.00  0.00    +0.000 A 
ENDBRANCH   1   2
BRANCH   1  15
ATOM     12  C   UNL     1      17.088  10.190  35.041  0.00  0.00    +0.000 A 
ATOM     13  C   UNL     1      16.556  11.192  35.853  0.00  0.00    +0.000 A 
ATOM     14  C   UNL     1      17.218  11.479  37.070  0.00  0.00    +0.000 A 
ATOM     15  C   UNL     1      18.331  10.807  37.436  0.00  0.00    +0.000 A 
ATOM     16  C   UNL     1      18.814   9.835  36.610  0.00  0.00    +0.000 A 
ATOM     17  C   UNL     1      18.202   9.514  35.406  0.00  0.00    +0.000 A 
BRANCH  12  19
ATOM     18  C   UNL     1      15.725  11.022  33.265  0.00  0.00    +0.000 C 
ATOM     19  O   UNL     1      16.411   9.938  33.859  0.00  0.00    +0.000 OA
ENDBRANCH  12  19
ENDBRANCH   1  15
BRANCH   1  20
ATOM     20  C   UNL     1      20.578  11.027  38.287  0.00  0.00    +0.000 C 
BRANCH  20  21
ATOM     21  N   UNL     1      21.080  12.377  38.320  0.00  0.00    +0.000 N 
ATOM     22  O   UNL     1      22.279  12.695  38.318  0.00  0.00    +0.000 OA
ATOM     23  O   UNL     1      20.155  13.382  38.351  0.00  0.00    +0.000 OA
ENDBRANCH  20  21
ENDBRANCH   1  20
TORSDOF 5
ENDMDL
MODEL 8
REMARK VINA RESULT:      -6.2      2.321      4.698
REMARK  Name = 
REMARK  5 active torsions:
REMARK  status: ('A' for Active; 'I' for Inactive)
REMARK    1  A    between atoms: O_2  and  C_3
REMARK    2  A    between atoms: C_6  and  C_7
REMARK    3  A    between atoms: C_7  and  C_8
REMARK    4  A    between atoms: C_7  and  C_12
REMARK    5  A    between atoms: C_8  and  N_9
REMARK                            x       y       z     vdW  Elec       q    Type
REMARK                         _______ _______ _______ _____ _____    ______ ____
ROOT
ATOM      1  C   UNL     1      26.950  25.005  24.129  0.00  0.00    +0.000 C 
ENDROOT
BRANCH   1   2
ATOM      2  C   UNL     1      28.492  24.745  24.442  0.00  0.00    +0.000 A 
ATOM      3  C   UNL     1      29.568  25.342  23.943  0.00  0.00    +0.000 A 
ATOM      4  C   UNL     1      29.545  26.447  22.934  0.00  0.00    +0.000 C 
ATOM      5  N   UNL     1      30.650  24.776  24.510  0.00  0.00    +0.000 NA
ATOM      6  C   UNL     1      30.276  23.815  25.374  0.00  0.00    +0.000 A 
ATOM      7  C   UNL     1      30.982  22.954  26.194  0.00  0.00    +0.000 A 
ATOM      8  C   UNL     1      30.333  22.050  26.993  0.00  0.00    +0.000 A 
ATOM      9  C   UNL     1      28.937  22.028  26.950  0.00  0.00    +0.000 A 
ATOM     10  C   UNL     1      28.241  22.881  26.139  0.00  0.00    +0.000 A 
ATOM     11  C   UNL     1      28.891  23.783  25.342  0.00  0.00    +0.000 A 
ENDBRANCH   1   2
BRANCH   1  15
ATOM     12  C   UNL     1      25.473  25.922  28.088  0.00  0.00    +0.000 A 
ATOM     13  C   UNL     1      24.873  24.901  27.351  0.00  0.00    +0.000 A 
ATOM     14  C   UNL     1      25.381  24.629  26.059  0.00  0.00    +0.000 A 
ATOM     15  C   UNL     1      26.416  25.334  25.553  0.00  0.00    +0.000 A 
ATOM     16  C   UNL     1      26.971  26.325  26.309  0.00  0.00    +0.000 A 
ATOM     17  C   UNL     1      26.509  26.631  27.582  0.00  0.00    +0.000 A 
BRANCH  12  19
ATOM     18  C   UNL     1      25.427  25.356  30.408  0.00  0.00    +0.000 C 
ATOM     19  O   UNL     1      24.946  26.158  29.347  0.00  0.00    +0.000 OA
ENDBRANCH  12  19
ENDBRANCH   1  15
BRANCH   1  20
ATOM     20  C   UNL     1      26.512  23.442  24.059  0.00  0.00    +0.000 C 
BRANCH  20  21
ATOM     21  N   UNL     1      26.140  23.231  22.683  0.00  0.00    +0.000 N 
ATOM     22  O   UNL     1      26.811  23.579  21.699  0.00  0.00    +0.000 OA
ATOM     23  O   UNL     1      24.955  22.592  22.452  0.00  0.00    +0.000 OA
ENDBRANCH  20  21
ENDBRANCH   1  20
TORSDOF 5
ENDMDL
MODEL 9
REMARK VINA RESULT:      -6.1      2.711      3.563
REMARK  Name = 
REMARK  5 active torsions:
REMARK  status: ('A' for Active; 'I' for Inactive)
REMARK    1  A    between atoms: O_2  and  C_3
REMARK    2  A    between atoms: C_6  and  C_7
REMARK    3  A    between atoms: C_7  and  C_8
REMARK    4  A    between atoms: C_7  and  C_12
REMARK    5  A    between atoms: C_8  and  N_9
REMARK                            x       y       z     vdW  Elec       q    Type
REMARK                         _______ _______ _______ _____ _____    ______ ____
ROOT
ATOM      1  C   UNL     1      28.417  23.603  23.434  0.00  0.00    +0.000 C 
ENDROOT
BRANCH   1   2
ATOM      2  C   UNL     1      27.226  24.414  24.116  0.00  0.00    +0.000 A 
ATOM      3  C   UNL     1      25.920  24.175  24.094  0.00  0.00    +0.000 A 
ATOM      4  C   UNL     1      25.271  23.024  23.391  0.00  0.00    +0.000 C 
ATOM      5  N   UNL     1      25.315  25.140  24.811  0.00  0.00    +0.000 NA
ATOM      6  C   UNL     1      26.227  26.004  25.296  0.00  0.00    +0.000 A 
ATOM      7  C   UNL     1      26.130  27.142  26.075  0.00  0.00    +0.000 A 
ATOM      8  C   UNL     1      27.248  27.849  26.431  0.00  0.00    +0.000 A 
ATOM      9  C   UNL     1      28.486  27.381  25.982  0.00  0.00    +0.000 A 
ATOM     10  C   UNL     1      28.579  26.254  25.212  0.00  0.00    +0.000 A 
ATOM     11  C   UNL     1      27.461  25.550  24.857  0.00  0.00    +0.000 A 
ENDBRANCH   1   2
BRANCH   1  15
ATOM     12  C   UNL     1      30.653  22.380  26.928  0.00  0.00    +0.000 A 
ATOM     13  C   UNL     1      31.323  22.969  25.856  0.00  0.00    +0.000 A 
ATOM     14  C   UNL     1      30.561  23.355  24.729  0.00  0.00    +0.000 A 
ATOM     15  C   UNL     1      29.225  23.162  24.690  0.00  0.00    +0.000 A 
ATOM     16  C   UNL     1      28.612  22.582  25.762  0.00  0.00    +0.000 A 
ATOM     17  C   UNL     1      29.314  22.185  26.891  0.00  0.00    +0.000 A 
BRANCH  12  19
ATOM     18  C   UNL     1      31.067  22.533  29.275  0.00  0.00    +0.000 C 
ATOM     19  O   UNL     1      31.435  22.016  28.012  0.00  0.00    +0.000 OA
ENDBRANCH  12  19
ENDBRANCH   1  15
BRANCH   1  20
ATOM     20  C   UNL     1      29.306  24.898  23.016  0.00  0.00    +0.000 C 
BRANCH  20  21
ATOM     21  N   UNL     1      29.009  25.106  21.622  0.00  0.00    +0.000 N 
ATOM     22  O   UNL     1      28.164  25.902  21.181  0.00  0.00    +0.000 OA
ATOM     23  O   UNL     1      29.720  24.368  20.719  0.00  0.00    +0.000 OA
ENDBRANCH  20  21
ENDBRANCH   1  20
TORSDOF 5
ENDMDL
MODEL 10
REMARK VINA RESULT:      -6.1      2.517      5.111
REMARK  Name = 
REMARK  5 active torsions:
REMARK  status: ('A' for Active; 'I' for Inactive)
REMARK    1  A    between atoms: O_2  and  C_3
REMARK    2  A    between atoms: C_6  and  C_7
REMARK    3  A    between atoms: C_7  and  C_8
REMARK    4  A    between atoms: C_7  and  C_12
REMARK    5  A    between atoms: C_8  and  N_9
REMARK                            x       y       z     vdW  Elec       q    Type
REMARK                         _______ _______ _______ _____ _____    ______ ____
ROOT
ATOM      1  C   UNL     1      28.325  24.811  24.301  0.00  0.00    +0.000 C 
ENDROOT
BRANCH   1   2
ATOM      2  C   UNL     1      29.596  25.727  24.598  0.00  0.00    +0.000 A 
ATOM      3  C   UNL     1      29.665  27.038  24.796  0.00  0.00    +0.000 A 
ATOM      4  C   UNL     1      28.492  27.969  24.787  0.00  0.00    +0.000 C 
ATOM      5  N   UNL     1      30.956  27.354  25.004  0.00  0.00    +0.000 NA
ATOM      6  C   UNL     1      31.724  26.250  24.940  0.00  0.00    +0.000 A 
ATOM      7  C   UNL     1      33.082  26.034  25.079  0.00  0.00    +0.000 A 
ATOM      8  C   UNL     1      33.611  24.776  24.963  0.00  0.00    +0.000 A 
ATOM      9  C   UNL     1      32.733  23.722  24.700  0.00  0.00    +0.000 A 
ATOM     10  C   UNL     1      31.389  23.938  24.564  0.00  0.00    +0.000 A 
ATOM     11  C   UNL     1      30.863  25.196  24.680  0.00  0.00    +0.000 A 
ENDBRANCH   1   2
BRANCH   1  15
ATOM     12  C   UNL     1      27.839  22.855  28.127  0.00  0.00    +0.000 A 
ATOM     13  C   UNL     1      28.140  22.091  26.999  0.00  0.00    +0.000 A 
ATOM     14  C   UNL     1      28.291  22.764  25.764  0.00  0.00    +0.000 A 
ATOM     15  C   UNL     1      28.149  24.104  25.677  0.00  0.00    +0.000 A 
ATOM     16  C   UNL     1      27.854  24.810  26.806  0.00  0.00    +0.000 A 
ATOM     17  C   UNL     1      27.696  24.198  28.042  0.00  0.00    +0.000 A 
BRANCH  12  19
ATOM     18  C   UNL     1      28.473  22.598  30.415  0.00  0.00    +0.000 C 
ATOM     19  O   UNL     1      27.699  22.159  29.317  0.00  0.00    +0.000 OA
ENDBRANCH  12  19
ENDBRANCH   1  15
BRANCH   1  20
ATOM     20  C   UNL     1      29.128  23.631  23.523  0.00  0.00    +0.000 C 
BRANCH  20  21
ATOM     21  N   UNL     1      28.631  23.686  22.172  0.00  0.00    +0.000 N 
ATOM     22  O   UNL     1      27.499  23.327  21.810  0.00  0.00    +0.000 OA
ATOM     23  O   UNL     1      29.477  24.177  21.218  0.00  0.00    +0.000 OA
ENDBRANCH  20  21
ENDBRANCH   1  20
TORSDOF 5
ENDMDL
