MODEL 1
REMARK VINA RESULT:      -5.9      0.000      0.000
REMARK  Name = 
REMARK  4 active torsions:
REMARK  status: ('A' for Active; 'I' for Inactive)
REMARK    1  A    between atoms: C_2  and  O_3
REMARK    2  A    between atoms: O_3  and  C_4
REMARK    3  A    between atoms: C_4  and  C_6
REMARK    4  A    between atoms: C_7  and  C_8
REMARK                            x       y       z     vdW  Elec       q    Type
REMARK                         _______ _______ _______ _____ _____    ______ ____
ROOT
ATOM      1  C   UNL     1      19.520   9.024  38.966  0.00  0.00    +0.000 A 
ATOM      2  C   UNL     1      19.279   9.691  37.795  0.00  0.00    +0.000 A 
ATOM      3  C   UNL     1      20.340  10.297  37.201  0.00  0.00    +0.000 A 
ATOM      4  S   UNL     1      21.681   9.976  38.199  0.00  0.00    +0.000 S 
ATOM      5  C   UNL     1      20.853   9.079  39.370  0.00  0.00    +0.000 A 
ATOM      6  N   UNL     1      21.423   8.492  40.564  0.00  0.00    +0.000 NA
ENDROOT
BRANCH   2   7
ATOM      7  C   UNL     1      17.864   9.579  37.112  0.00  0.00    +0.000 C 
ATOM      8  C   UNL     1      17.517  11.250  37.371  0.00  0.00    +0.000 C 
ATOM      9  O   UNL     1      16.148  11.199  36.774  0.00  0.00    +0.000 OA
ATOM     10  C   UNL     1      16.205  11.106  35.347  0.00  0.00    +0.000 A 
ATOM     11  C   UNL     1      15.228  11.615  34.577  0.00  0.00    +0.000 A 
ATOM     12  C   UNL     1      15.323  11.506  33.185  0.00  0.00    +0.000 A 
ATOM     13  C   UNL     1      16.405  10.892  32.621  0.00  0.00    +0.000 A 
ATOM     14  C   UNL     1      17.396  10.373  33.432  0.00  0.00    +0.000 A 
ATOM     15  C   UNL     1      17.304  10.476  34.841  0.00  0.00    +0.000 A 
ATOM     16  O   UNL     1      18.276   9.969  35.634  0.00  0.00    +0.000 OA
ENDBRANCH   2   7
BRANCH   1  17
ATOM     17  C   UNL     1      18.568   8.415  39.911  0.00  0.00    +0.000 C 
ATOM     18  O   UNL     1      18.286   7.227  39.992  0.00  0.00    +0.000 OA
BRANCH  17  19
ATOM     19  O   UNL     1      17.925   9.296  40.834  0.00  0.00    +0.000 OA
BRANCH  19  21
ATOM     20  C   UNL     1      15.548   8.875  41.385  0.00  0.00    +0.000 C 
ATOM     21  C   UNL     1      16.530   9.553  40.525  0.00  0.00    +0.000 C 
ENDBRANCH  19  21
ENDBRANCH  17  19
ENDBRANCH   1  17
TORSDOF 4
ENDMDL
MODEL 2
REMARK VINA RESULT:      -5.6     20.906     22.160
REMARK  Name = 
REMARK  4 active torsions:
REMARK  status: ('A' for Active; 'I' for Inactive)
REMARK    1  A    between atoms: C_2  and  O_3
REMARK    2  A    between atoms: O_3  and  C_4
REMARK    3  A    between atoms: C_4  and  C_6
REMARK    4  A    between atoms: C_7  and  C_8
REMARK                            x       y       z     vdW  Elec       q    Type
REMARK                         _______ _______ _______ _____ _____    ______ ____
ROOT
ATOM      1  C   UNL     1      19.274  -7.649  26.516  0.00  0.00    +0.000 A 
ATOM      2  C   UNL     1      20.381  -7.166  25.872  0.00  0.00    +0.000 A 
ATOM      3  C   UNL     1      20.416  -5.831  25.622  0.00  0.00    +0.000 A 
ATOM      4  S   UNL     1      18.967  -5.199  26.253  0.00  0.00    +0.000 S 
ATOM      5  C   UNL     1      18.335  -6.664  26.817  0.00  0.00    +0.000 A 
ATOM      6  N   UNL     1      17.060  -6.853  27.476  0.00  0.00    +0.000 NA
ENDROOT
BRANCH   2   7
ATOM      7  C   UNL     1      21.612  -8.117  25.618  0.00  0.00    +0.000 C 
ATOM      8  C   UNL     1      21.117  -8.457  23.999  0.00  0.00    +0.000 C 
ATOM      9  O   UNL     1      22.237  -9.403  23.709  0.00  0.00    +0.000 OA
ATOM     10  C   UNL     1      23.473  -8.706  23.523  0.00  0.00    +0.000 A 
ATOM     11  C   UNL     1      24.434  -9.196  22.721  0.00  0.00    +0.000 A 
ATOM     12  C   UNL     1      25.626  -8.482  22.562  0.00  0.00    +0.000 A 
ATOM     13  C   UNL     1      25.804  -7.295  23.216  0.00  0.00    +0.000 A 
ATOM     14  C   UNL     1      24.804  -6.813  24.038  0.00  0.00    +0.000 A 
ATOM     15  C   UNL     1      23.596  -7.532  24.206  0.00  0.00    +0.000 A 
ATOM     16  O   UNL     1      22.617  -7.056  25.010  0.00  0.00    +0.000 OA
ENDBRANCH   2   7
BRANCH   1  17
ATOM     17  C   UNL     1      18.877  -9.043  26.781  0.00  0.00    +0.000 C 
ATOM     18  O   UNL     1      18.161  -9.740  26.075  0.00  0.00    +0.000 OA
BRANCH  17  19
ATOM     19  O   UNL     1      19.396  -9.646  27.968  0.00  0.00    +0.000 OA
BRANCH  19  21
ATOM     20  C   UNL     1      19.042  -9.540  30.416  0.00  0.00    +0.000 C 
ATOM     21  C   UNL     1      18.455  -9.668  29.073  0.00  0.00    +0.000 C 
ENDBRANCH  19  21
ENDBRANCH  17  19
ENDBRANCH   1  17
TORSDOF 4
ENDMDL
MODEL 3
REMARK VINA RESULT:      -5.5     18.179     19.831
REMARK  Name = 
REMARK  4 active torsions:
REMARK  status: ('A' for Active; 'I' for Inactive)
REMARK    1  A    between atoms: C_2  and  O_3
REMARK    2  A    between atoms: O_3  and  C_4
REMARK    3  A    between atoms: C_4  and  C_6
REMARK    4  A    between atoms: C_7  and  C_8
REMARK                            x       y       z     vdW  Elec       q    Type
REMARK                         _______ _______ _______ _____ _____    ______ ____
ROOT
ATOM      1  C   UNL     1      25.981  24.148  29.447  0.00  0.00    +0.000 A 
ATOM      2  C   UNL     1      25.969  24.108  28.078  0.00  0.00    +0.000 A 
ATOM      3  C   UNL     1      25.269  25.081  27.439  0.00  0.00    +0.000 A 
ATOM      4  S   UNL     1      24.621  26.071  28.662  0.00  0.00    +0.000 S 
ATOM      5  C   UNL     1      25.250  25.210  29.975  0.00  0.00    +0.000 A 
ATOM      6  N   UNL     1      25.055  25.517  31.377  0.00  0.00    +0.000 NA
ENDROOT
BRANCH   2   7
ATOM      7  C   UNL     1      26.888  23.075  27.321  0.00  0.00    +0.000 C 
ATOM      8  C   UNL     1      26.632  23.843  25.796  0.00  0.00    +0.000 C 
ATOM      9  O   UNL     1      27.455  22.872  25.014  0.00  0.00    +0.000 OA
ATOM     10  C   UNL     1      28.853  23.076  25.239  0.00  0.00    +0.000 A 
ATOM     11  C   UNL     1      29.760  22.784  24.290  0.00  0.00    +0.000 A 
ATOM     12  C   UNL     1      31.118  23.001  24.548  0.00  0.00    +0.000 A 
ATOM     13  C   UNL     1      31.511  23.510  25.753  0.00  0.00    +0.000 A 
ATOM     14  C   UNL     1      30.562  23.798  26.714  0.00  0.00    +0.000 A 
ATOM     15  C   UNL     1      29.187  23.577  26.462  0.00  0.00    +0.000 A 
ATOM     16  O   UNL     1      28.259  23.863  27.404  0.00  0.00    +0.000 OA
ENDBRANCH   2   7
BRANCH   1  17
ATOM     17  C   UNL     1      26.506  23.163  30.408  0.00  0.00    +0.000 C 
ATOM     18  O   UNL     1      25.958  22.126  30.757  0.00  0.00    +0.000 OA
BRANCH  17  19
ATOM     19  O   UNL     1      27.790  23.437  30.974  0.00  0.00    +0.000 OA
BRANCH  19  21
ATOM     20  C   UNL     1      30.139  22.989  30.332  0.00  0.00    +0.000 C 
ATOM     21  C   UNL     1      28.802  22.454  30.634  0.00  0.00    +0.000 C 
ENDBRANCH  19  21
ENDBRANCH  17  19
ENDBRANCH   1  17
TORSDOF 4
ENDMDL
MODEL 4
REMARK VINA RESULT:      -5.4     21.454     23.365
REMARK  Name = 
REMARK  4 active torsions:
REMARK  status: ('A' for Active; 'I' for Inactive)
REMARK    1  A    between atoms: C_2  and  O_3
REMARK    2  A    between atoms: O_3  and  C_4
REMARK    3  A    between atoms: C_4  and  C_6
REMARK    4  A    between atoms: C_7  and  C_8
REMARK                            x       y       z     vdW  Elec       q    Type
REMARK                         _______ _______ _______ _____ _____    ______ ____
ROOT
ATOM      1  C   UNL     1      28.575  23.395  25.002  0.00  0.00    +0.000 A 
ATOM      2  C   UNL     1      28.162  24.139  23.929  0.00  0.00    +0.000 A 
ATOM      3  C   UNL     1      26.822  24.275  23.752  0.00  0.00    +0.000 A 
ATOM      4  S   UNL     1      26.092  23.413  25.025  0.00  0.00    +0.000 S 
ATOM      5  C   UNL     1      27.522  22.882  25.757  0.00  0.00    +0.000 A 
ATOM      6  N   UNL     1      27.625  22.047  26.935  0.00  0.00    +0.000 NA
ENDROOT
BRANCH   2   7
ATOM      7  C   UNL     1      29.223  24.933  23.077  0.00  0.00    +0.000 C 
ATOM      8  C   UNL     1      28.780  24.120  21.619  0.00  0.00    +0.000 C 
ATOM      9  O   UNL     1      29.795  24.808  20.765  0.00  0.00    +0.000 OA
ATOM     10  C   UNL     1      29.420  26.163  20.499  0.00  0.00    +0.000 A 
ATOM     11  C   UNL     1      29.794  26.777  19.363  0.00  0.00    +0.000 A 
ATOM     12  C   UNL     1      29.403  28.101  19.138  0.00  0.00    +0.000 A 
ATOM     13  C   UNL     1      28.644  28.757  20.066  0.00  0.00    +0.000 A 
ATOM     14  C   UNL     1      28.275  28.106  21.227  0.00  0.00    +0.000 A 
ATOM     15  C   UNL     1      28.670  26.767  21.464  0.00  0.00    +0.000 A 
ATOM     16  O   UNL     1      28.305  26.132  22.601  0.00  0.00    +0.000 OA
ENDBRANCH   2   7
BRANCH   1  17
ATOM     17  C   UNL     1      29.929  22.941  25.361  0.00  0.00    +0.000 C 
ATOM     18  O   UNL     1      30.572  22.062  24.803  0.00  0.00    +0.000 OA
BRANCH  17  19
ATOM     19  O   UNL     1      30.561  23.606  26.458  0.00  0.00    +0.000 OA
BRANCH  19  21
ATOM     20  C   UNL     1      30.782  22.615  28.716  0.00  0.00    +0.000 C 
ATOM     21  C   UNL     1      31.293  22.715  27.339  0.00  0.00    +0.000 C 
ENDBRANCH  19  21
ENDBRANCH  17  19
ENDBRANCH   1  17
TORSDOF 4
ENDMDL
MODEL 5
REMARK VINA RESULT:      -5.3     21.610     22.981
REMARK  Name = 
REMARK  4 active torsions:
REMARK  status: ('A' for Active; 'I' for Inactive)
REMARK    1  A    between atoms: C_2  and  O_3
REMARK    2  A    between atoms: O_3  and  C_4
REMARK    3  A    between atoms: C_4  and  C_6
REMARK    4  A    between atoms: C_7  and  C_8
REMARK                            x       y       z     vdW  Elec       q    Type
REMARK                         _______ _______ _______ _____ _____    ______ ____
ROOT
ATOM      1  C   UNL     1      22.729   2.319  15.865  0.00  0.00    +0.000 A 
ATOM      2  C   UNL     1      23.819   3.144  15.794  0.00  0.00    +0.000 A 
ATOM      3  C   UNL     1      24.487   3.185  14.611  0.00  0.00    +0.000 A 
ATOM      4  S   UNL     1      23.660   2.122  13.571  0.00  0.00    +0.000 S 
ATOM      5  C   UNL     1      22.477   1.633  14.678  0.00  0.00    +0.000 A 
ATOM      6  N   UNL     1      21.415   0.679  14.436  0.00  0.00    +0.000 NA
ENDROOT
BRANCH   2   7
ATOM      7  C   UNL     1      24.136   4.121  16.990  0.00  0.00    +0.000 C 
ATOM      8  C   UNL     1      25.357   3.077  17.624  0.00  0.00    +0.000 C 
ATOM      9  O   UNL     1      25.674   3.937  18.803  0.00  0.00    +0.000 OA
ATOM     10  C   UNL     1      26.419   5.096  18.417  0.00  0.00    +0.000 A 
ATOM     11  C   UNL     1      27.289   5.678  19.261  0.00  0.00    +0.000 A 
ATOM     12  C   UNL     1      28.001   6.807  18.843  0.00  0.00    +0.000 A 
ATOM     13  C   UNL     1      27.813   7.307  17.586  0.00  0.00    +0.000 A 
ATOM     14  C   UNL     1      26.911   6.695  16.737  0.00  0.00    +0.000 A 
ATOM     15  C   UNL     1      26.184   5.554  17.154  0.00  0.00    +0.000 A 
ATOM     16  O   UNL     1      25.302   4.956  16.320  0.00  0.00    +0.000 OA
ENDBRANCH   2   7
BRANCH   1  17
ATOM     17  C   UNL     1      21.912   1.945  17.032  0.00  0.00    +0.000 C 
ATOM     18  O   UNL     1      22.092   0.981  17.764  0.00  0.00    +0.000 OA
BRANCH  17  19
ATOM     19  O   UNL     1      20.812   2.801  17.350  0.00  0.00    +0.000 OA
BRANCH  19  21
ATOM     20  C   UNL     1      18.808   1.539  16.629  0.00  0.00    +0.000 C 
ATOM     21  C   UNL     1      19.608   2.089  17.735  0.00  0.00    +0.000 C 
ENDBRANCH  19  21
ENDBRANCH  17  19
ENDBRANCH   1  17
TORSDOF 4
ENDMDL
MODEL 6
REMARK VINA RESULT:      -5.2     18.378     20.066
REMARK  Name = 
REMARK  4 active torsions:
REMARK  status: ('A' for Active; 'I' for Inactive)
REMARK    1  A    between atoms: C_2  and  O_3
REMARK    2  A    between atoms: O_3  and  C_4
REMARK    3  A    between atoms: C_4  and  C_6
REMARK    4  A    between atoms: C_7  and  C_8
REMARK                            x       y       z     vdW  Elec       q    Type
REMARK                         _______ _______ _______ _____ _____    ______ ____
ROOT
ATOM      1  C   UNL     1      26.387  23.788  28.909  0.00  0.00    +0.000 A 
ATOM      2  C   UNL     1      26.144  24.068  27.591  0.00  0.00    +0.000 A 
ATOM      3  C   UNL     1      25.284  25.085  27.325  0.00  0.00    +0.000 A 
ATOM      4  S   UNL     1      24.791  25.689  28.838  0.00  0.00    +0.000 S 
ATOM      5  C   UNL     1      25.689  24.615  29.788  0.00  0.00    +0.000 A 
ATOM      6  N   UNL     1      25.717  24.564  31.235  0.00  0.00    +0.000 NA
ENDROOT
BRANCH   2   7
ATOM      7  C   UNL     1      26.985  23.343  26.473  0.00  0.00    +0.000 C 
ATOM      8  C   UNL     1      25.708  23.468  25.318  0.00  0.00    +0.000 C 
ATOM      9  O   UNL     1      26.437  22.749  24.230  0.00  0.00    +0.000 OA
ATOM     10  C   UNL     1      27.461  23.569  23.659  0.00  0.00    +0.000 A 
ATOM     11  C   UNL     1      27.833  23.425  22.375  0.00  0.00    +0.000 A 
ATOM     12  C   UNL     1      28.835  24.250  21.854  0.00  0.00    +0.000 A 
ATOM     13  C   UNL     1      29.424  25.194  22.646  0.00  0.00    +0.000 A 
ATOM     14  C   UNL     1      29.028  25.322  23.963  0.00  0.00    +0.000 A 
ATOM     15  C   UNL     1      28.017  24.488  24.499  0.00  0.00    +0.000 A 
ATOM     16  O   UNL     1      27.630  24.616  25.789  0.00  0.00    +0.000 OA
ENDBRANCH   2   7
BRANCH   1  17
ATOM     17  C   UNL     1      27.131  22.666  29.507  0.00  0.00    +0.000 C 
ATOM     18  O   UNL     1      26.650  21.633  29.953  0.00  0.00    +0.000 OA
BRANCH  17  19
ATOM     19  O   UNL     1      28.554  22.789  29.554  0.00  0.00    +0.000 OA
BRANCH  19  21
ATOM     20  C   UNL     1      29.959  22.187  31.502  0.00  0.00    +0.000 C 
ATOM     21  C   UNL     1      29.067  23.165  30.859  0.00  0.00    +0.000 C 
ENDBRANCH  19  21
ENDBRANCH  17  19
ENDBRANCH   1  17
TORSDOF 4
ENDMDL
MODEL 7
REMARK VINA RESULT:      -5.2     18.801     20.951
REMARK  Name = 
REMARK  4 active torsions:
REMARK  status: ('A' for Active; 'I' for Inactive)
REMARK    1  A    between atoms: C_2  and  O_3
REMARK    2  A    between atoms: O_3  and  C_4
REMARK    3  A    between atoms: C_4  and  C_6
REMARK    4  A    between atoms: C_7  and  C_8
REMARK                            x       y       z     vdW  Elec       q    Type
REMARK                         _______ _______ _______ _____ _____    ______ ____
ROOT
ATOM      1  C   UNL     1      27.328  23.691  23.561  0.00  0.00    +0.000 A 
ATOM      2  C   UNL     1      28.124  23.169  24.545  0.00  0.00    +0.000 A 
ATOM      3  C   UNL     1      29.454  23.437  24.470  0.00  0.00    +0.000 A 
ATOM      4  S   UNL     1      29.659  24.400  23.082  0.00  0.00    +0.000 S 
ATOM      5  C   UNL     1      28.033  24.432  22.614  0.00  0.00    +0.000 A 
ATOM      6  N   UNL     1      27.487  25.094  21.449  0.00  0.00    +0.000 NA
ENDROOT
BRANCH   2   7
ATOM      7  C   UNL     1      27.464  22.455  25.785  0.00  0.00    +0.000 C 
ATOM      8  C   UNL     1      28.937  22.478  26.685  0.00  0.00    +0.000 C 
ATOM      9  O   UNL     1      28.381  21.765  27.875  0.00  0.00    +0.000 OA
ATOM     10  C   UNL     1      27.528  22.620  28.643  0.00  0.00    +0.000 A 
ATOM     11  C   UNL     1      27.392  22.456  29.970  0.00  0.00    +0.000 A 
ATOM     12  C   UNL     1      26.551  23.316  30.685  0.00  0.00    +0.000 A 
ATOM     13  C   UNL     1      25.881  24.313  30.035  0.00  0.00    +0.000 A 
ATOM     14  C   UNL     1      26.034  24.460  28.670  0.00  0.00    +0.000 A 
ATOM     15  C   UNL     1      26.880  23.591  27.939  0.00  0.00    +0.000 A 
ATOM     16  O   UNL     1      27.029  23.739  26.602  0.00  0.00    +0.000 OA
ENDBRANCH   2   7
BRANCH   1  17
ATOM     17  C   UNL     1      25.902  23.449  23.284  0.00  0.00    +0.000 C 
ATOM     18  O   UNL     1      25.444  22.782  22.366  0.00  0.00    +0.000 OA
BRANCH  17  19
ATOM     19  O   UNL     1      24.962  24.037  24.187  0.00  0.00    +0.000 OA
BRANCH  19  21
ATOM     20  C   UNL     1      24.440  26.014  25.583  0.00  0.00    +0.000 C 
ATOM     21  C   UNL     1      25.233  25.430  24.490  0.00  0.00    +0.000 C 
ENDBRANCH  19  21
ENDBRANCH  17  19
ENDBRANCH   1  17
TORSDOF 4
ENDMDL
MODEL 8
REMARK VINA RESULT:      -5.1     21.141     22.389
REMARK  Name = 
REMARK  4 active torsions:
REMARK  status: ('A' for Active; 'I' for Inactive)
REMARK    1  A    between atoms: C_2  and  O_3
REMARK    2  A    between atoms: O_3  and  C_4
REMARK    3  A    between atoms: C_4  and  C_6
REMARK    4  A    between atoms: C_7  and  C_8
REMARK                            x       y       z     vdW  Elec       q    Type
REMARK                         _______ _______ _______ _____ _____    ______ ____
ROOT
ATOM      1  C   UNL     1      16.927  -8.636  26.921  0.00  0.00    +0.000 A 
ATOM      2  C   UNL     1      15.760  -9.223  26.511  0.00  0.00    +0.000 A 
ATOM      3  C   UNL     1      15.615 -10.550  26.766  0.00  0.00    +0.000 A 
ATOM      4  S   UNL     1      17.039 -11.031  27.565  0.00  0.00    +0.000 S 
ATOM      5  C   UNL     1      17.802  -9.521  27.548  0.00  0.00    +0.000 A 
ATOM      6  N   UNL     1      19.115  -9.216  28.075  0.00  0.00    +0.000 NA
ENDROOT
BRANCH   2   7
ATOM      7  C   UNL     1      14.594  -8.327  25.944  0.00  0.00    +0.000 C 
ATOM      8  C   UNL     1      14.742  -8.997  24.359  0.00  0.00    +0.000 C 
ATOM      9  O   UNL     1      13.676  -8.146  23.751  0.00  0.00    +0.000 OA
ATOM     10  C   UNL     1      12.372  -8.576  24.155  0.00  0.00    +0.000 A 
ATOM     11  C   UNL     1      11.304  -8.404  23.358  0.00  0.00    +0.000 A 
ATOM     12  C   UNL     1      10.047  -8.842  23.788  0.00  0.00    +0.000 A 
ATOM     13  C   UNL     1       9.915  -9.443  25.008  0.00  0.00    +0.000 A 
ATOM     14  C   UNL     1      11.026  -9.607  25.812  0.00  0.00    +0.000 A 
ATOM     15  C   UNL     1      12.300  -9.162  25.384  0.00  0.00    +0.000 A 
ATOM     16  O   UNL     1      13.387  -9.325  26.173  0.00  0.00    +0.000 OA
ENDBRANCH   2   7
BRANCH   1  17
ATOM     17  C   UNL     1      17.437  -7.280  26.653  0.00  0.00    +0.000 C 
ATOM     18  O   UNL     1      17.116  -6.255  27.240  0.00  0.00    +0.000 OA
BRANCH  17  19
ATOM     19  O   UNL     1      18.418  -7.153  25.620  0.00  0.00    +0.000 OA
BRANCH  19  21
ATOM     20  C   UNL     1      20.830  -6.621  25.454  0.00  0.00    +0.000 C 
ATOM     21  C   UNL     1      19.497  -6.239  25.946  0.00  0.00    +0.000 C 
ENDBRANCH  19  21
ENDBRANCH  17  19
ENDBRANCH   1  17
TORSDOF 4
ENDMDL
MODEL 9
REMARK VINA RESULT:      -5.1     20.859     22.106
REMARK  Name = 
REMARK  4 active torsions:
REMARK  status: ('A' for Active; 'I' for Inactive)
REMARK    1  A    between atoms: C_2  and  O_3
REMARK    2  A    between atoms: O_3  and  C_4
REMARK    3  A    between atoms: C_4  and  C_6
REMARK    4  A    between atoms: C_7  and  C_8
REMARK                            x       y       z     vdW  Elec       q    Type
REMARK                         _______ _______ _______ _____ _____    ______ ____
ROOT
ATOM      1  C   UNL     1       7.847 -10.411  38.508  0.00  0.00    +0.000 A 
ATOM      2  C   UNL     1       8.507 -10.600  37.324  0.00  0.00    +0.000 A 
ATOM      3  C   UNL     1       8.044 -11.584  36.510  0.00  0.00    +0.000 A 
ATOM      4  S   UNL     1       6.710 -12.269  37.315  0.00  0.00    +0.000 S 
ATOM      5  C   UNL     1       6.777 -11.287  38.691  0.00  0.00    +0.000 A 
ATOM      6  N   UNL     1       5.897 -11.354  39.839  0.00  0.00    +0.000 NA
ENDROOT
BRANCH   2   7
ATOM      7  C   UNL     1       9.627  -9.581  36.885  0.00  0.00    +0.000 C 
ATOM      8  C   UNL     1      10.896 -10.688  37.268  0.00  0.00    +0.000 C 
ATOM      9  O   UNL     1      12.005  -9.753  36.909  0.00  0.00    +0.000 OA
ATOM     10  C   UNL     1      12.127  -9.610  35.490  0.00  0.00    +0.000 A 
ATOM     11  C   UNL     1      13.313  -9.342  34.918  0.00  0.00    +0.000 A 
ATOM     12  C   UNL     1      13.391  -9.213  33.527  0.00  0.00    +0.000 A 
ATOM     13  C   UNL     1      12.269  -9.365  32.763  0.00  0.00    +0.000 A 
ATOM     14  C   UNL     1      11.060  -9.637  33.374  0.00  0.00    +0.000 A 
ATOM     15  C   UNL     1      10.973  -9.764  34.781  0.00  0.00    +0.000 A 
ATOM     16  O   UNL     1       9.788 -10.032  35.377  0.00  0.00    +0.000 OA
ENDBRANCH   2   7
BRANCH   1  17
ATOM     17  C   UNL     1       8.198  -9.549  39.650  0.00  0.00    +0.000 C 
ATOM     18  O   UNL     1       7.769  -8.425  39.869  0.00  0.00    +0.000 OA
BRANCH  17  19
ATOM     19  O   UNL     1       9.117 -10.088  40.604  0.00  0.00    +0.000 OA
BRANCH  19  21
ATOM     20  C   UNL     1       8.012 -10.338  42.806  0.00  0.00    +0.000 C 
ATOM     21  C   UNL     1       8.932  -9.574  41.949  0.00  0.00    +0.000 C 
ENDBRANCH  19  21
ENDBRANCH  17  19
ENDBRANCH   1  17
TORSDOF 4
ENDMDL
MODEL 10
REMARK VINA RESULT:      -5.0     21.271     23.420
REMARK  Name = 
REMARK  4 active torsions:
REMARK  status: ('A' for Active; 'I' for Inactive)
REMARK    1  A    between atoms: C_2  and  O_3
REMARK    2  A    between atoms: O_3  and  C_4
REMARK    3  A    between atoms: C_4  and  C_6
REMARK    4  A    between atoms: C_7  and  C_8
REMARK                            x       y       z     vdW  Elec       q    Type
REMARK                         _______ _______ _______ _____ _____    ______ ____
ROOT
ATOM      1  C   UNL     1      28.596  25.963  21.864  0.00  0.00    +0.000 A 
ATOM      2  C   UNL     1      27.614  26.447  22.686  0.00  0.00    +0.000 A 
ATOM      3  C   UNL     1      27.202  27.723  22.469  0.00  0.00    +0.000 A 
ATOM      4  S   UNL     1      28.120  28.294  21.155  0.00  0.00    +0.000 S 
ATOM      5  C   UNL     1      29.027  26.887  20.913  0.00  0.00    +0.000 A 
ATOM      6  N   UNL     1      30.058  26.689  19.916  0.00  0.00    +0.000 NA
ENDROOT
BRANCH   2   7
ATOM      7  C   UNL     1      26.896  25.475  23.698  0.00  0.00    +0.000 C 
ATOM      8  C   UNL     1      27.705  26.164  25.058  0.00  0.00    +0.000 C 
ATOM      9  O   UNL     1      27.091  25.245  26.063  0.00  0.00    +0.000 OA
ATOM     10  C   UNL     1      25.721  25.579  26.306  0.00  0.00    +0.000 A 
ATOM     11  C   UNL     1      25.147  25.337  27.498  0.00  0.00    +0.000 A 
ATOM     12  C   UNL     1      23.806  25.683  27.697  0.00  0.00    +0.000 A 
ATOM     13  C   UNL     1      23.094  26.265  26.687  0.00  0.00    +0.000 A 
ATOM     14  C   UNL     1      23.704  26.501  25.470  0.00  0.00    +0.000 A 
ATOM     15  C   UNL     1      25.059  26.150  25.260  0.00  0.00    +0.000 A 
ATOM     16  O   UNL     1      25.654  26.384  24.068  0.00  0.00    +0.000 OA
ENDBRANCH   2   7
BRANCH   1  17
ATOM     17  C   UNL     1      29.350  24.700  21.948  0.00  0.00    +0.000 C 
ATOM     18  O   UNL     1      29.366  23.808  21.110  0.00  0.00    +0.000 OA
BRANCH  17  19
ATOM     19  O   UNL     1      30.156  24.507  23.112  0.00  0.00    +0.000 OA
BRANCH  19  21
ATOM     20  C   UNL     1      30.926  22.688  24.606  0.00  0.00    +0.000 C 
ATOM     21  C   UNL     1      29.817  23.315  23.868  0.00  0.00    +0.000 C 
ENDBRANCH  19  21
ENDBRANCH  17  19
ENDBRANCH   1  17
TORSDOF 4
ENDMDL
