MODEL 1
REMARK VINA RESULT:      -7.5      0.000      0.000
REMARK  Name = 
REMARK  3 active torsions:
REMARK  status: ('A' for Active; 'I' for Inactive)
REMARK    1  A    between atoms: C_2  and  C_14
REMARK    2  A    between atoms: N_3  and  C_4
REMARK    3  A    between atoms: C_6  and  N_7
REMARK                            x       y       z     vdW  Elec       q    Type
REMARK                         _______ _______ _______ _____ _____    ______ ____
ROOT
ATOM      1  O   UNL     1      15.694  10.678  33.701  0.00  0.00    +0.000 OA
ATOM      2  C   UNL     1      15.475  11.890  33.574  0.00  0.00    +0.000 C 
ATOM      3  N   UNL     1      15.090  12.638  34.622  0.00  0.00    +0.000 NA
ENDROOT
BRANCH   3   4
ATOM      4  C   UNL     1      14.911  12.096  35.921  0.00  0.00    +0.000 A 
ATOM      5  C   UNL     1      13.658  11.731  36.327  0.00  0.00    +0.000 A 
ATOM      6  C   UNL     1      13.381  11.194  37.571  0.00  0.00    +0.000 A 
ATOM      7  C   UNL     1      14.457  11.037  38.417  0.00  0.00    +0.000 A 
ATOM      8  C   UNL     1      15.752  11.391  38.060  0.00  0.00    +0.000 A 
ATOM      9  C   UNL     1      15.966  11.927  36.791  0.00  0.00    +0.000 A 
ATOM     10 CL   UNL     1      17.572  12.382  36.306  0.00  0.00    +0.000 Cl
BRANCH   6  11
ATOM     11  N   UNL     1      12.065  10.820  37.972  0.00  0.00    +0.000 N 
ATOM     12  O   UNL     1      11.824  10.000  38.852  0.00  0.00    +0.000 OA
ATOM     13  O   UNL     1      10.995  11.408  37.340  0.00  0.00    +0.000 OA
ENDBRANCH   6  11
ENDBRANCH   3   4
BRANCH   2  14
ATOM     14  C   UNL     1      15.713  12.337  32.102  0.00  0.00    +0.000 C 
ATOM     15  C   UNL     1      14.739  11.284  31.409  0.00  0.00    +0.000 C 
ATOM     16  C   UNL     1      14.313  12.173  30.123  0.00  0.00    +0.000 C 
ATOM     17  C   UNL     1      15.615  13.115  29.932  0.00  0.00    +0.000 C 
ATOM     18  C   UNL     1      15.407  14.290  30.757  0.00  0.00    +0.000 C 
ATOM     19  C   UNL     1      14.688  13.671  32.057  0.00  0.00    +0.000 C 
ATOM     20  C   UNL     1      13.515  13.110  31.152  0.00  0.00    +0.000 C 
ENDBRANCH   2  14
TORSDOF 3
ENDMDL
MODEL 2
REMARK VINA RESULT:      -6.5     17.603     19.687
REMARK  Name = 
REMARK  3 active torsions:
REMARK  status: ('A' for Active; 'I' for Inactive)
REMARK    1  A    between atoms: C_2  and  C_14
REMARK    2  A    between atoms: N_3  and  C_4
REMARK    3  A    between atoms: C_6  and  N_7
REMARK                            x       y       z     vdW  Elec       q    Type
REMARK                         _______ _______ _______ _____ _____    ______ ____
ROOT
ATOM      1  O   UNL     1      29.069  24.697  26.022  0.00  0.00    +0.000 OA
ATOM      2  C   UNL     1      29.005  23.563  25.531  0.00  0.00    +0.000 C 
ATOM      3  N   UNL     1      28.938  22.471  26.313  0.00  0.00    +0.000 NA
ENDROOT
BRANCH   3   4
ATOM      4  C   UNL     1      28.937  22.548  27.730  0.00  0.00    +0.000 A 
ATOM      5  C   UNL     1      27.746  22.521  28.401  0.00  0.00    +0.000 A 
ATOM      6  C   UNL     1      27.641  22.590  29.778  0.00  0.00    +0.000 A 
ATOM      7  C   UNL     1      28.826  22.690  30.473  0.00  0.00    +0.000 A 
ATOM      8  C   UNL     1      30.065  22.721  29.845  0.00  0.00    +0.000 A 
ATOM      9  C   UNL     1      30.104  22.648  28.454  0.00  0.00    +0.000 A 
ATOM     10 CL   UNL     1      31.635  22.685  27.631  0.00  0.00    +0.000 Cl
BRANCH   6  11
ATOM     11  N   UNL     1      26.386  22.561  30.456  0.00  0.00    +0.000 N 
ATOM     12  O   UNL     1      25.845  21.533  30.850  0.00  0.00    +0.000 OA
ATOM     13  O   UNL     1      25.737  23.751  30.686  0.00  0.00    +0.000 OA
ENDBRANCH   6  11
ENDBRANCH   3   4
BRANCH   2  14
ATOM     14  C   UNL     1      29.015  23.639  23.977  0.00  0.00    +0.000 C 
ATOM     15  C   UNL     1      27.502  23.199  23.740  0.00  0.00    +0.000 C 
ATOM     16  C   UNL     1      27.233  24.022  22.370  0.00  0.00    +0.000 C 
ATOM     17  C   UNL     1      28.719  24.091  21.733  0.00  0.00    +0.000 C 
ATOM     18  C   UNL     1      29.351  25.280  22.270  0.00  0.00    +0.000 C 
ATOM     19  C   UNL     1      28.811  25.298  23.787  0.00  0.00    +0.000 C 
ATOM     20  C   UNL     1      27.318  25.353  23.263  0.00  0.00    +0.000 C 
ENDBRANCH   2  14
TORSDOF 3
ENDMDL
MODEL 3
REMARK VINA RESULT:      -6.4      5.739      7.898
REMARK  Name = 
REMARK  3 active torsions:
REMARK  status: ('A' for Active; 'I' for Inactive)
REMARK    1  A    between atoms: C_2  and  C_14
REMARK    2  A    between atoms: N_3  and  C_4
REMARK    3  A    between atoms: C_6  and  N_7
REMARK                            x       y       z     vdW  Elec       q    Type
REMARK                         _______ _______ _______ _____ _____    ______ ____
ROOT
ATOM      1  O   UNL     1      20.903  12.083  37.935  0.00  0.00    +0.000 OA
ATOM      2  C   UNL     1      21.281  10.923  37.728  0.00  0.00    +0.000 C 
ATOM      3  N   UNL     1      20.396   9.934  37.514  0.00  0.00    +0.000 NA
ENDROOT
BRANCH   3   4
ATOM      4  C   UNL     1      18.994  10.152  37.512  0.00  0.00    +0.000 A 
ATOM      5  C   UNL     1      18.358  10.402  36.329  0.00  0.00    +0.000 A 
ATOM      6  C   UNL     1      16.997  10.627  36.223  0.00  0.00    +0.000 A 
ATOM      7  C   UNL     1      16.283  10.588  37.400  0.00  0.00    +0.000 A 
ATOM      8  C   UNL     1      16.876  10.338  38.631  0.00  0.00    +0.000 A 
ATOM      9  C   UNL     1      18.252  10.120  38.672  0.00  0.00    +0.000 A 
ATOM     10 CL   UNL     1      19.031   9.805  40.193  0.00  0.00    +0.000 Cl
BRANCH   6  11
ATOM     11  N   UNL     1      16.355  10.885  34.976  0.00  0.00    +0.000 N 
ATOM     12  O   UNL     1      16.810  10.547  33.888  0.00  0.00    +0.000 OA
ATOM     13  O   UNL     1      15.153  11.553  34.984  0.00  0.00    +0.000 OA
ENDBRANCH   6  11
ENDBRANCH   3   4
BRANCH   2  14
ATOM     14  C   UNL     1      22.835  10.840  37.761  0.00  0.00    +0.000 C 
ATOM     15  C   UNL     1      22.949   9.389  38.409  0.00  0.00    +0.000 C 
ATOM     16  C   UNL     1      24.348   8.939  37.727  0.00  0.00    +0.000 C 
ATOM     17  C   UNL     1      25.079  10.366  37.509  0.00  0.00    +0.000 C 
ATOM     18  C   UNL     1      24.658  10.861  36.213  0.00  0.00    +0.000 C 
ATOM     19  C   UNL     1      23.115  10.405  36.159  0.00  0.00    +0.000 C 
ATOM     20  C   UNL     1      23.547   8.892  36.337  0.00  0.00    +0.000 C 
ENDBRANCH   2  14
TORSDOF 3
ENDMDL
MODEL 4
REMARK VINA RESULT:      -6.2     20.926     21.980
REMARK  Name = 
REMARK  3 active torsions:
REMARK  status: ('A' for Active; 'I' for Inactive)
REMARK    1  A    between atoms: C_2  and  C_14
REMARK    2  A    between atoms: N_3  and  C_4
REMARK    3  A    between atoms: C_6  and  N_7
REMARK                            x       y       z     vdW  Elec       q    Type
REMARK                         _______ _______ _______ _____ _____    ______ ____
ROOT
ATOM      1  O   UNL     1      25.496   3.467  15.925  0.00  0.00    +0.000 OA
ATOM      2  C   UNL     1      25.831   3.640  17.104  0.00  0.00    +0.000 C 
ATOM      3  N   UNL     1      25.192   3.010  18.105  0.00  0.00    +0.000 NA
ENDROOT
BRANCH   3   4
ATOM      4  C   UNL     1      24.109   2.122  17.878  0.00  0.00    +0.000 A 
ATOM      5  C   UNL     1      22.829   2.591  17.969  0.00  0.00    +0.000 A 
ATOM      6  C   UNL     1      21.708   1.805  17.766  0.00  0.00    +0.000 A 
ATOM      7  C   UNL     1      21.942   0.483  17.458  0.00  0.00    +0.000 A 
ATOM      8  C   UNL     1      23.221  -0.049  17.353  0.00  0.00    +0.000 A 
ATOM      9  C   UNL     1      24.310   0.794  17.569  0.00  0.00    +0.000 A 
ATOM     10 CL   UNL     1      25.926   0.166  17.447  0.00  0.00    +0.000 Cl
BRANCH   6  11
ATOM     11  N   UNL     1      20.381   2.318  17.866  0.00  0.00    +0.000 N 
ATOM     12  O   UNL     1      20.099   3.389  18.392  0.00  0.00    +0.000 OA
ATOM     13  O   UNL     1      19.350   1.574  17.344  0.00  0.00    +0.000 OA
ENDBRANCH   6  11
ENDBRANCH   3   4
BRANCH   2  14
ATOM     14  C   UNL     1      27.025   4.634  17.193  0.00  0.00    +0.000 C 
ATOM     15  C   UNL     1      26.684   5.482  15.888  0.00  0.00    +0.000 C 
ATOM     16  C   UNL     1      27.299   6.903  16.367  0.00  0.00    +0.000 C 
ATOM     17  C   UNL     1      28.464   6.428  17.385  0.00  0.00    +0.000 C 
ATOM     18  C   UNL     1      27.853   6.302  18.694  0.00  0.00    +0.000 C 
ATOM     19  C   UNL     1      26.404   5.700  18.337  0.00  0.00    +0.000 C 
ATOM     20  C   UNL     1      26.096   6.960  17.427  0.00  0.00    +0.000 C 
ENDBRANCH   2  14
TORSDOF 3
ENDMDL
MODEL 5
REMARK VINA RESULT:      -6.1     17.288     19.403
REMARK  Name = 
REMARK  3 active torsions:
REMARK  status: ('A' for Active; 'I' for Inactive)
REMARK    1  A    between atoms: C_2  and  C_14
REMARK    2  A    between atoms: N_3  and  C_4
REMARK    3  A    between atoms: C_6  and  N_7
REMARK                            x       y       z     vdW  Elec       q    Type
REMARK                         _______ _______ _______ _____ _____    ______ ____
ROOT
ATOM      1  O   UNL     1      27.817  25.675  26.000  0.00  0.00    +0.000 OA
ATOM      2  C   UNL     1      26.858  25.169  25.404  0.00  0.00    +0.000 C 
ATOM      3  N   UNL     1      25.807  24.673  26.079  0.00  0.00    +0.000 NA
ENDROOT
BRANCH   3   4
ATOM      4  C   UNL     1      25.730  24.697  27.496  0.00  0.00    +0.000 A 
ATOM      5  C   UNL     1      26.161  23.613  28.207  0.00  0.00    +0.000 A 
ATOM      6  C   UNL     1      26.127  23.540  29.588  0.00  0.00    +0.000 A 
ATOM      7  C   UNL     1      25.624  24.643  30.242  0.00  0.00    +0.000 A 
ATOM      8  C   UNL     1      25.172  25.772  29.571  0.00  0.00    +0.000 A 
ATOM      9  C   UNL     1      25.231  25.785  28.179  0.00  0.00    +0.000 A 
ATOM     10 CL   UNL     1      24.675  27.179  27.303  0.00  0.00    +0.000 Cl
BRANCH   6  11
ATOM     11  N   UNL     1      26.583  22.397  30.310  0.00  0.00    +0.000 N 
ATOM     12  O   UNL     1      25.839  21.598  30.868  0.00  0.00    +0.000 OA
ATOM     13  O   UNL     1      27.937  22.169  30.389  0.00  0.00    +0.000 OA
ENDBRANCH   6  11
ENDBRANCH   3   4
BRANCH   2  14
ATOM     14  C   UNL     1      27.084  25.215  23.865  0.00  0.00    +0.000 C 
ATOM     15  C   UNL     1      28.666  25.401  23.896  0.00  0.00    +0.000 C 
ATOM     16  C   UNL     1      29.016  24.651  22.503  0.00  0.00    +0.000 C 
ATOM     17  C   UNL     1      27.659  24.890  21.654  0.00  0.00    +0.000 C 
ATOM     18  C   UNL     1      26.767  23.791  21.969  0.00  0.00    +0.000 C 
ATOM     19  C   UNL     1      27.048  23.564  23.538  0.00  0.00    +0.000 C 
ATOM     20  C   UNL     1      28.578  23.291  23.233  0.00  0.00    +0.000 C 
ENDBRANCH   2  14
TORSDOF 3
ENDMDL
MODEL 6
REMARK VINA RESULT:      -6.0     19.667     21.657
REMARK  Name = 
REMARK  3 active torsions:
REMARK  status: ('A' for Active; 'I' for Inactive)
REMARK    1  A    between atoms: C_2  and  C_14
REMARK    2  A    between atoms: N_3  and  C_4
REMARK    3  A    between atoms: C_6  and  N_7
REMARK                            x       y       z     vdW  Elec       q    Type
REMARK                         _______ _______ _______ _____ _____    ______ ____
ROOT
ATOM      1  O   UNL     1      30.650  24.451  27.425  0.00  0.00    +0.000 OA
ATOM      2  C   UNL     1      31.081  23.292  27.376  0.00  0.00    +0.000 C 
ATOM      3  N   UNL     1      30.449  22.348  26.658  0.00  0.00    +0.000 NA
ENDROOT
BRANCH   3   4
ATOM      4  C   UNL     1      29.266  22.615  25.921  0.00  0.00    +0.000 A 
ATOM      5  C   UNL     1      29.362  22.946  24.599  0.00  0.00    +0.000 A 
ATOM      6  C   UNL     1      28.269  23.224  23.797  0.00  0.00    +0.000 A 
ATOM      7  C   UNL     1      27.036  23.151  24.406  0.00  0.00    +0.000 A 
ATOM      8  C   UNL     1      26.878  22.819  25.746  0.00  0.00    +0.000 A 
ATOM      9  C   UNL     1      28.018  22.551  26.501  0.00  0.00    +0.000 A 
ATOM     10 CL   UNL     1      27.862  22.133  28.181  0.00  0.00    +0.000 Cl
BRANCH   6  11
ATOM     11  N   UNL     1      28.394  23.567  22.418  0.00  0.00    +0.000 N 
ATOM     12  O   UNL     1      27.480  23.476  21.605  0.00  0.00    +0.000 OA
ATOM     13  O   UNL     1      29.607  24.027  21.965  0.00  0.00    +0.000 OA
ENDBRANCH   6  11
ENDBRANCH   3   4
BRANCH   2  14
ATOM     14  C   UNL     1      32.376  23.153  28.229  0.00  0.00    +0.000 C 
ATOM     15  C   UNL     1      32.054  24.307  29.279  0.00  0.00    +0.000 C 
ATOM     16  C   UNL     1      32.839  23.686  30.554  0.00  0.00    +0.000 C 
ATOM     17  C   UNL     1      34.003  22.824  29.831  0.00  0.00    +0.000 C 
ATOM     18  C   UNL     1      33.455  21.504  29.583  0.00  0.00    +0.000 C 
ATOM     19  C   UNL     1      31.933  21.838  29.179  0.00  0.00    +0.000 C 
ATOM     20  C   UNL     1      31.709  22.548  30.578  0.00  0.00    +0.000 C 
ENDBRANCH   2  14
TORSDOF 3
ENDMDL
MODEL 7
REMARK VINA RESULT:      -5.8     20.000     21.536
REMARK  Name = 
REMARK  3 active torsions:
REMARK  status: ('A' for Active; 'I' for Inactive)
REMARK    1  A    between atoms: C_2  and  C_14
REMARK    2  A    between atoms: N_3  and  C_4
REMARK    3  A    between atoms: C_6  and  N_7
REMARK                            x       y       z     vdW  Elec       q    Type
REMARK                         _______ _______ _______ _____ _____    ______ ____
ROOT
ATOM      1  O   UNL     1      30.107  24.156  27.791  0.00  0.00    +0.000 OA
ATOM      2  C   UNL     1      30.447  22.967  27.740  0.00  0.00    +0.000 C 
ATOM      3  N   UNL     1      30.272  22.244  26.620  0.00  0.00    +0.000 NA
ENDROOT
BRANCH   3   4
ATOM      4  C   UNL     1      29.694  22.788  25.444  0.00  0.00    +0.000 A 
ATOM      5  C   UNL     1      28.345  22.685  25.252  0.00  0.00    +0.000 A 
ATOM      6  C   UNL     1      27.688  23.182  24.141  0.00  0.00    +0.000 A 
ATOM      7  C   UNL     1      28.476  23.808  23.200  0.00  0.00    +0.000 A 
ATOM      8  C   UNL     1      29.852  23.943  23.342  0.00  0.00    +0.000 A 
ATOM      9  C   UNL     1      30.454  23.420  24.485  0.00  0.00    +0.000 A 
ATOM     10 CL   UNL     1      32.173  23.568  24.699  0.00  0.00    +0.000 Cl
BRANCH   6  11
ATOM     11  N   UNL     1      26.278  23.062  23.962  0.00  0.00    +0.000 N 
ATOM     12  O   UNL     1      25.475  22.988  24.887  0.00  0.00    +0.000 OA
ATOM     13  O   UNL     1      25.780  23.026  22.682  0.00  0.00    +0.000 OA
ENDBRANCH   6  11
ENDBRANCH   3   4
BRANCH   2  14
ATOM     14  C   UNL     1      31.061  22.515  29.096  0.00  0.00    +0.000 C 
ATOM     15  C   UNL     1      32.104  21.463  28.509  0.00  0.00    +0.000 C 
ATOM     16  C   UNL     1      33.243  21.601  29.652  0.00  0.00    +0.000 C 
ATOM     17  C   UNL     1      32.362  22.031  30.940  0.00  0.00    +0.000 C 
ATOM     18  C   UNL     1      32.270  23.479  30.920  0.00  0.00    +0.000 C 
ATOM     19  C   UNL     1      32.130  23.790  29.348  0.00  0.00    +0.000 C 
ATOM     20  C   UNL     1      33.514  23.072  29.073  0.00  0.00    +0.000 C 
ENDBRANCH   2  14
TORSDOF 3
ENDMDL
MODEL 8
REMARK VINA RESULT:      -5.7     24.596     25.658
REMARK  Name = 
REMARK  3 active torsions:
REMARK  status: ('A' for Active; 'I' for Inactive)
REMARK    1  A    between atoms: C_2  and  C_14
REMARK    2  A    between atoms: N_3  and  C_4
REMARK    3  A    between atoms: C_6  and  N_7
REMARK                            x       y       z     vdW  Elec       q    Type
REMARK                         _______ _______ _______ _____ _____    ______ ____
ROOT
ATOM      1  O   UNL     1      35.227  -5.606  32.438  0.00  0.00    +0.000 OA
ATOM      2  C   UNL     1      34.313  -5.337  31.648  0.00  0.00    +0.000 C 
ATOM      3  N   UNL     1      33.269  -4.580  32.027  0.00  0.00    +0.000 NA
ENDROOT
BRANCH   3   4
ATOM      4  C   UNL     1      33.149  -4.049  33.337  0.00  0.00    +0.000 A 
ATOM      5  C   UNL     1      33.647  -2.804  33.603  0.00  0.00    +0.000 A 
ATOM      6  C   UNL     1      33.579  -2.200  34.846  0.00  0.00    +0.000 A 
ATOM      7  C   UNL     1      32.968  -2.930  35.842  0.00  0.00    +0.000 A 
ATOM      8  C   UNL     1      32.444  -4.199  35.631  0.00  0.00    +0.000 A 
ATOM      9  C   UNL     1      32.544  -4.753  34.355  0.00  0.00    +0.000 A 
ATOM     10 CL   UNL     1      31.901  -6.339  34.051  0.00  0.00    +0.000 Cl
BRANCH   6  11
ATOM     11  N   UNL     1      34.105  -0.899  35.099  0.00  0.00    +0.000 N 
ATOM     12  O   UNL     1      34.618  -0.563  36.161  0.00  0.00    +0.000 OA
ATOM     13  O   UNL     1      34.039   0.041  34.098  0.00  0.00    +0.000 OA
ENDBRANCH   6  11
ENDBRANCH   3   4
BRANCH   2  14
ATOM     14  C   UNL     1      34.582  -5.986  30.259  0.00  0.00    +0.000 C 
ATOM     15  C   UNL     1      34.568  -7.505  30.736  0.00  0.00    +0.000 C 
ATOM     16  C   UNL     1      34.020  -8.174  29.366  0.00  0.00    +0.000 C 
ATOM     17  C   UNL     1      34.558  -7.128  28.254  0.00  0.00    +0.000 C 
ATOM     18  C   UNL     1      33.538  -6.107  28.111  0.00  0.00    +0.000 C 
ATOM     19  C   UNL     1      33.025  -5.923  29.625  0.00  0.00    +0.000 C 
ATOM     20  C   UNL     1      32.622  -7.454  29.683  0.00  0.00    +0.000 C 
ENDBRANCH   2  14
TORSDOF 3
ENDMDL
MODEL 9
REMARK VINA RESULT:      -5.7     21.156     23.586
REMARK  Name = 
REMARK  3 active torsions:
REMARK  status: ('A' for Active; 'I' for Inactive)
REMARK    1  A    between atoms: C_2  and  C_14
REMARK    2  A    between atoms: N_3  and  C_4
REMARK    3  A    between atoms: C_6  and  N_7
REMARK                            x       y       z     vdW  Elec       q    Type
REMARK                         _______ _______ _______ _____ _____    ______ ____
ROOT
ATOM      1  O   UNL     1      26.225   3.822  15.782  0.00  0.00    +0.000 OA
ATOM      2  C   UNL     1      25.409   4.558  16.350  0.00  0.00    +0.000 C 
ATOM      3  N   UNL     1      25.712   5.836  16.639  0.00  0.00    +0.000 NA
ENDROOT
BRANCH   3   4
ATOM      4  C   UNL     1      26.967   6.413  16.317  0.00  0.00    +0.000 A 
ATOM      5  C   UNL     1      27.250   6.716  15.015  0.00  0.00    +0.000 A 
ATOM      6  C   UNL     1      28.443   7.281  14.601  0.00  0.00    +0.000 A 
ATOM      7  C   UNL     1      29.369   7.534  15.589  0.00  0.00    +0.000 A 
ATOM      8  C   UNL     1      29.137   7.247  16.928  0.00  0.00    +0.000 A 
ATOM      9  C   UNL     1      27.914   6.679  17.281  0.00  0.00    +0.000 A 
ATOM     10 CL   UNL     1      27.586   6.304  18.946  0.00  0.00    +0.000 Cl
BRANCH   6  11
ATOM     11  N   UNL     1      28.715   7.589  13.235  0.00  0.00    +0.000 N 
ATOM     12  O   UNL     1      29.593   8.364  12.870  0.00  0.00    +0.000 OA
ATOM     13  O   UNL     1      27.954   6.986  12.262  0.00  0.00    +0.000 OA
ENDBRANCH   6  11
ENDBRANCH   3   4
BRANCH   2  14
ATOM     14  C   UNL     1      24.087   3.790  16.638  0.00  0.00    +0.000 C 
ATOM     15  C   UNL     1      24.710   2.325  16.698  0.00  0.00    +0.000 C 
ATOM     16  C   UNL     1      23.664   1.669  17.748  0.00  0.00    +0.000 C 
ATOM     17  C   UNL     1      22.331   2.543  17.467  0.00  0.00    +0.000 C 
ATOM     18  C   UNL     1      22.401   3.706  18.332  0.00  0.00    +0.000 C 
ATOM     19  C   UNL     1      23.969   4.064  18.294  0.00  0.00    +0.000 C 
ATOM     20  C   UNL     1      24.321   2.626  18.856  0.00  0.00    +0.000 C 
ENDBRANCH   2  14
TORSDOF 3
ENDMDL
MODEL 10
REMARK VINA RESULT:      -5.6      7.163      9.201
REMARK  Name = 
REMARK  3 active torsions:
REMARK  status: ('A' for Active; 'I' for Inactive)
REMARK    1  A    between atoms: C_2  and  C_14
REMARK    2  A    between atoms: N_3  and  C_4
REMARK    3  A    between atoms: C_6  and  N_7
REMARK                            x       y       z     vdW  Elec       q    Type
REMARK                         _______ _______ _______ _____ _____    ______ ____
ROOT
ATOM      1  O   UNL     1      19.728   8.674  40.718  0.00  0.00    +0.000 OA
ATOM      2  C   UNL     1      18.740   8.681  39.973  0.00  0.00    +0.000 C 
ATOM      3  N   UNL     1      17.933   7.610  39.883  0.00  0.00    +0.000 NA
ENDROOT
BRANCH   3   4
ATOM      4  C   UNL     1      18.159   6.421  40.623  0.00  0.00    +0.000 A 
ATOM      5  C   UNL     1      19.017   5.478  40.130  0.00  0.00    +0.000 A 
ATOM      6  C   UNL     1      19.303   4.289  40.776  0.00  0.00    +0.000 A 
ATOM      7  C   UNL     1      18.664   4.084  41.980  0.00  0.00    +0.000 A 
ATOM      8  C   UNL     1      17.782   5.006  42.529  0.00  0.00    +0.000 A 
ATOM      9  C   UNL     1      17.536   6.186  41.829  0.00  0.00    +0.000 A 
ATOM     10 CL   UNL     1      16.439   7.364  42.483  0.00  0.00    +0.000 Cl
BRANCH   6  11
ATOM     11  N   UNL     1      20.203   3.320  40.242  0.00  0.00    +0.000 N 
ATOM     12  O   UNL     1      21.293   3.595  39.752  0.00  0.00    +0.000 OA
ATOM     13  O   UNL     1      19.835   1.996  40.274  0.00  0.00    +0.000 OA
ENDBRANCH   6  11
ENDBRANCH   3   4
BRANCH   2  14
ATOM     14  C   UNL     1      18.624  10.044  39.231  0.00  0.00    +0.000 C 
ATOM     15  C   UNL     1      20.089  10.579  39.554  0.00  0.00    +0.000 C 
ATOM     16  C   UNL     1      20.307  11.480  38.224  0.00  0.00    +0.000 C 
ATOM     17  C   UNL     1      18.785  11.892  37.858  0.00  0.00    +0.000 C 
ATOM     18  C   UNL     1      18.260  10.842  37.006  0.00  0.00    +0.000 C 
ATOM     19  C   UNL     1      18.906   9.519  37.657  0.00  0.00    +0.000 C 
ATOM     20  C   UNL     1      20.359  10.098  37.410  0.00  0.00    +0.000 C 
ENDBRANCH   2  14
TORSDOF 3
ENDMDL
