MODEL 1
REMARK VINA RESULT:      -7.3      0.000      0.000
REMARK  Name = 
REMARK  2 active torsions:
REMARK  status: ('A' for Active; 'I' for Inactive)
REMARK    1  A    between atoms: C_2  and  C_3
REMARK    2  A    between atoms: C_19  and  O_20
REMARK                            x       y       z     vdW  Elec       q    Type
REMARK                         _______ _______ _______ _____ _____    ______ ____
ROOT
ATOM      1  C   UNL     1      26.888  23.918  30.350  0.00  0.00    +0.000 C 
ATOM      2  O   UNL     1      27.764  24.290  31.351  0.00  0.00    +0.000 OA
ATOM      3  C   UNL     1      25.672  24.810  30.248  0.00  0.00    +0.000 C 
ATOM      4  C   UNL     1      25.366  24.975  28.770  0.00  0.00    +0.000 C 
ATOM      5  C   UNL     1      26.185  23.666  28.257  0.00  0.00    +0.000 C 
ATOM      6  C   UNL     1      26.776  24.352  26.823  0.00  0.00    +0.000 C 
ATOM      7  C   UNL     1      25.526  23.876  25.940  0.00  0.00    +0.000 C 
ATOM      8  C   UNL     1      25.880  24.435  24.583  0.00  0.00    +0.000 C 
ATOM      9  C   UNL     1      27.258  24.012  24.238  0.00  0.00    +0.000 A 
ATOM     10  C   UNL     1      27.781  24.285  22.969  0.00  0.00    +0.000 A 
ATOM     11  C   UNL     1      29.050  23.907  22.586  0.00  0.00    +0.000 A 
ATOM     12  O   UNL     1      29.500  24.209  21.320  0.00  0.00    +0.000 OA
ATOM     13  C   UNL     1      29.878  23.231  23.452  0.00  0.00    +0.000 A 
ATOM     14  C   UNL     1      29.359  22.968  24.693  0.00  0.00    +0.000 A 
ATOM     15  C   UNL     1      28.093  23.347  25.067  0.00  0.00    +0.000 A 
ATOM     16  C   UNL     1      27.629  22.951  26.518  0.00  0.00    +0.000 C 
ATOM     17  C   UNL     1      29.113  23.334  27.246  0.00  0.00    +0.000 C 
ATOM     18  C   UNL     1      28.609  23.302  28.807  0.00  0.00    +0.000 C 
ATOM     19  C   UNL     1      27.539  24.175  29.042  0.00  0.00    +0.000 C 
ATOM     20  C   UNL     1      27.649  25.634  28.839  0.00  0.00    +0.000 C 
ENDROOT
BRANCH   1  22
ATOM     21  C   UNL     1      26.199  21.349  30.566  0.00  0.00    +0.000 C 
ATOM     22  C   UNL     1      26.513  22.513  30.458  0.00  0.00    +0.000 C 
ENDBRANCH   1  22
BRANCH  17  23
ATOM     23  O   UNL     1      29.088  24.838  27.089  0.00  0.00    +0.000 OA
ATOM     24  C   UNL     1      30.441  25.094  27.156  0.00  0.00    +0.000 C 
ENDBRANCH  17  23
TORSDOF 2
ENDMDL
MODEL 2
REMARK VINA RESULT:      -6.5      1.501      6.335
REMARK  Name = 
REMARK  2 active torsions:
REMARK  status: ('A' for Active; 'I' for Inactive)
REMARK    1  A    between atoms: C_2  and  C_3
REMARK    2  A    between atoms: C_19  and  O_20
REMARK                            x       y       z     vdW  Elec       q    Type
REMARK                         _______ _______ _______ _____ _____    ______ ____
ROOT
ATOM      1  C   UNL     1      28.097  24.960  22.495  0.00  0.00    +0.000 C 
ATOM      2  O   UNL     1      28.262  26.175  21.859  0.00  0.00    +0.000 OA
ATOM      3  C   UNL     1      29.360  24.132  22.556  0.00  0.00    +0.000 C 
ATOM      4  C   UNL     1      29.381  23.453  23.912  0.00  0.00    +0.000 C 
ATOM      5  C   UNL     1      27.791  23.599  24.225  0.00  0.00    +0.000 C 
ATOM      6  C   UNL     1      27.943  23.904  25.886  0.00  0.00    +0.000 C 
ATOM      7  C   UNL     1      27.847  22.358  26.299  0.00  0.00    +0.000 C 
ATOM      8  C   UNL     1      27.989  22.434  27.801  0.00  0.00    +0.000 C 
ATOM      9  C   UNL     1      27.013  23.420  28.323  0.00  0.00    +0.000 A 
ATOM     10  C   UNL     1      26.846  23.581  29.702  0.00  0.00    +0.000 A 
ATOM     11  C   UNL     1      25.947  24.472  30.247  0.00  0.00    +0.000 A 
ATOM     12  O   UNL     1      25.834  24.578  31.616  0.00  0.00    +0.000 OA
ATOM     13  C   UNL     1      25.158  25.263  29.442  0.00  0.00    +0.000 A 
ATOM     14  C   UNL     1      25.329  25.099  28.092  0.00  0.00    +0.000 A 
ATOM     15  C   UNL     1      26.227  24.208  27.557  0.00  0.00    +0.000 A 
ATOM     16  C   UNL     1      26.291  24.117  25.987  0.00  0.00    +0.000 C 
ATOM     17  C   UNL     1      26.184  25.793  25.748  0.00  0.00    +0.000 C 
ATOM     18  C   UNL     1      26.613  25.818  24.163  0.00  0.00    +0.000 C 
ATOM     19  C   UNL     1      27.858  25.219  23.937  0.00  0.00    +0.000 C 
ATOM     20  C   UNL     1      29.104  25.727  24.545  0.00  0.00    +0.000 C 
ENDROOT
BRANCH   1  22
ATOM     21  C   UNL     1      26.055  23.582  21.470  0.00  0.00    +0.000 C 
ATOM     22  C   UNL     1      26.988  24.203  21.929  0.00  0.00    +0.000 C 
ENDBRANCH   1  22
BRANCH  17  23
ATOM     23  O   UNL     1      27.531  26.210  26.296  0.00  0.00    +0.000 OA
ATOM     24  C   UNL     1      27.251  27.523  26.607  0.00  0.00    +0.000 C 
ENDBRANCH  17  23
TORSDOF 2
ENDMDL
MODEL 3
REMARK VINA RESULT:      -6.5      1.451      3.159
REMARK  Name = 
REMARK  2 active torsions:
REMARK  status: ('A' for Active; 'I' for Inactive)
REMARK    1  A    between atoms: C_2  and  C_3
REMARK    2  A    between atoms: C_19  and  O_20
REMARK                            x       y       z     vdW  Elec       q    Type
REMARK                         _______ _______ _______ _____ _____    ______ ____
ROOT
ATOM      1  C   UNL     1      27.090  23.649  30.085  0.00  0.00    +0.000 C 
ATOM      2  O   UNL     1      25.848  23.149  30.426  0.00  0.00    +0.000 OA
ATOM      3  C   UNL     1      28.239  22.793  30.564  0.00  0.00    +0.000 C 
ATOM      4  C   UNL     1      29.291  22.808  29.469  0.00  0.00    +0.000 C 
ATOM      5  C   UNL     1      28.770  24.157  28.722  0.00  0.00    +0.000 C 
ATOM      6  C   UNL     1      29.078  23.636  27.138  0.00  0.00    +0.000 C 
ATOM      7  C   UNL     1      30.566  24.232  27.105  0.00  0.00    +0.000 C 
ATOM      8  C   UNL     1      31.025  23.832  25.723  0.00  0.00    +0.000 C 
ATOM      9  C   UNL     1      30.009  24.273  24.737  0.00  0.00    +0.000 A 
ATOM     10  C   UNL     1      30.256  24.144  23.367  0.00  0.00    +0.000 A 
ATOM     11  C   UNL     1      29.357  24.547  22.403  0.00  0.00    +0.000 A 
ATOM     12  O   UNL     1      29.667  24.389  21.070  0.00  0.00    +0.000 OA
ATOM     13  C   UNL     1      28.148  25.104  22.753  0.00  0.00    +0.000 A 
ATOM     14  C   UNL     1      27.913  25.225  24.097  0.00  0.00    +0.000 A 
ATOM     15  C   UNL     1      28.815  24.823  25.051  0.00  0.00    +0.000 A 
ATOM     16  C   UNL     1      28.412  25.051  26.556  0.00  0.00    +0.000 C 
ATOM     17  C   UNL     1      26.802  24.564  26.342  0.00  0.00    +0.000 C 
ATOM     18  C   UNL     1      26.402  24.418  27.927  0.00  0.00    +0.000 C 
ATOM     19  C   UNL     1      27.248  23.539  28.614  0.00  0.00    +0.000 C 
ATOM     20  C   UNL     1      27.372  22.113  28.250  0.00  0.00    +0.000 C 
ENDROOT
BRANCH   1  22
ATOM     21  C   UNL     1      27.355  26.191  30.852  0.00  0.00    +0.000 C 
ATOM     22  C   UNL     1      27.244  25.036  30.505  0.00  0.00    +0.000 C 
ENDBRANCH   1  22
BRANCH  17  23
ATOM     23  O   UNL     1      27.018  23.089  26.084  0.00  0.00    +0.000 OA
ATOM     24  C   UNL     1      25.951  22.848  25.246  0.00  0.00    +0.000 C 
ENDBRANCH  17  23
TORSDOF 2
ENDMDL
MODEL 4
REMARK VINA RESULT:      -6.3      1.667      6.232
REMARK  Name = 
REMARK  2 active torsions:
REMARK  status: ('A' for Active; 'I' for Inactive)
REMARK    1  A    between atoms: C_2  and  C_3
REMARK    2  A    between atoms: C_19  and  O_20
REMARK                            x       y       z     vdW  Elec       q    Type
REMARK                         _______ _______ _______ _____ _____    ______ ____
ROOT
ATOM      1  C   UNL     1      28.763  25.122  21.917  0.00  0.00    +0.000 C 
ATOM      2  O   UNL     1      29.728  24.655  21.046  0.00  0.00    +0.000 OA
ATOM      3  C   UNL     1      27.357  24.717  21.536  0.00  0.00    +0.000 C 
ATOM      4  C   UNL     1      26.622  24.401  22.826  0.00  0.00    +0.000 C 
ATOM      5  C   UNL     1      27.620  25.215  23.821  0.00  0.00    +0.000 C 
ATOM      6  C   UNL     1      27.561  24.110  25.107  0.00  0.00    +0.000 C 
ATOM      7  C   UNL     1      26.318  24.828  25.821  0.00  0.00    +0.000 C 
ATOM      8  C   UNL     1      26.101  23.938  27.022  0.00  0.00    +0.000 C 
ATOM      9  C   UNL     1      27.392  23.772  27.732  0.00  0.00    +0.000 A 
ATOM     10  C   UNL     1      27.439  23.101  28.958  0.00  0.00    +0.000 A 
ATOM     11  C   UNL     1      28.606  22.926  29.670  0.00  0.00    +0.000 A 
ATOM     12  O   UNL     1      28.579  22.254  30.873  0.00  0.00    +0.000 OA
ATOM     13  C   UNL     1      29.804  23.411  29.196  0.00  0.00    +0.000 A 
ATOM     14  C   UNL     1      29.749  24.066  27.994  0.00  0.00    +0.000 A 
ATOM     15  C   UNL     1      28.582  24.238  27.291  0.00  0.00    +0.000 A 
ATOM     16  C   UNL     1      28.675  25.035  25.936  0.00  0.00    +0.000 C 
ATOM     17  C   UNL     1      30.117  24.291  25.440  0.00  0.00    +0.000 C 
ATOM     18  C   UNL     1      30.095  24.789  23.876  0.00  0.00    +0.000 C 
ATOM     19  C   UNL     1      28.922  24.412  23.211  0.00  0.00    +0.000 C 
ATOM     20  C   UNL     1      28.530  22.999  23.034  0.00  0.00    +0.000 C 
ENDROOT
BRANCH   1  22
ATOM     21  C   UNL     1      28.972  27.758  22.269  0.00  0.00    +0.000 C 
ATOM     22  C   UNL     1      28.870  26.562  22.116  0.00  0.00    +0.000 C 
ENDBRANCH   1  22
BRANCH  17  23
ATOM     23  O   UNL     1      29.602  22.893  25.181  0.00  0.00    +0.000 OA
ATOM     24  C   UNL     1      30.788  22.196  25.267  0.00  0.00    +0.000 C 
ENDBRANCH  17  23
TORSDOF 2
ENDMDL
MODEL 5
REMARK VINA RESULT:      -6.3      2.381      3.538
REMARK  Name = 
REMARK  2 active torsions:
REMARK  status: ('A' for Active; 'I' for Inactive)
REMARK    1  A    between atoms: C_2  and  C_3
REMARK    2  A    between atoms: C_19  and  O_20
REMARK                            x       y       z     vdW  Elec       q    Type
REMARK                         _______ _______ _______ _____ _____    ______ ____
ROOT
ATOM      1  C   UNL     1      31.866  23.661  29.533  0.00  0.00    +0.000 C 
ATOM      2  O   UNL     1      32.826  24.614  29.816  0.00  0.00    +0.000 OA
ATOM      3  C   UNL     1      30.710  23.659  30.507  0.00  0.00    +0.000 C 
ATOM      4  C   UNL     1      29.452  23.396  29.701  0.00  0.00    +0.000 C 
ATOM      5  C   UNL     1      30.186  22.744  28.404  0.00  0.00    +0.000 C 
ATOM      6  C   UNL     1      29.165  23.425  27.234  0.00  0.00    +0.000 C 
ATOM      7  C   UNL     1      28.144  22.190  27.236  0.00  0.00    +0.000 C 
ATOM      8  C   UNL     1      27.114  22.643  26.228  0.00  0.00    +0.000 C 
ATOM      9  C   UNL     1      27.812  23.050  24.984  0.00  0.00    +0.000 A 
ATOM     10  C   UNL     1      27.075  23.385  23.843  0.00  0.00    +0.000 A 
ATOM     11  C   UNL     1      27.666  23.759  22.655  0.00  0.00    +0.000 A 
ATOM     12  O   UNL     1      26.879  24.076  21.570  0.00  0.00    +0.000 OA
ATOM     13  C   UNL     1      29.036  23.824  22.536  0.00  0.00    +0.000 A 
ATOM     14  C   UNL     1      29.749  23.495  23.659  0.00  0.00    +0.000 A 
ATOM     15  C   UNL     1      29.153  23.123  24.839  0.00  0.00    +0.000 A 
ATOM     16  C   UNL     1      30.107  22.750  26.034  0.00  0.00    +0.000 C 
ATOM     17  C   UNL     1      31.191  24.023  25.746  0.00  0.00    +0.000 C 
ATOM     18  C   UNL     1      32.017  23.935  27.162  0.00  0.00    +0.000 C 
ATOM     19  C   UNL     1      31.179  24.052  28.278  0.00  0.00    +0.000 C 
ATOM     20  C   UNL     1      30.362  25.256  28.533  0.00  0.00    +0.000 C 
ENDROOT
BRANCH   1  22
ATOM     21  C   UNL     1      32.943  21.231  29.297  0.00  0.00    +0.000 C 
ATOM     22  C   UNL     1      32.452  22.334  29.394  0.00  0.00    +0.000 C 
ENDBRANCH   1  22
BRANCH  17  23
ATOM     23  O   UNL     1      30.313  25.192  26.132  0.00  0.00    +0.000 OA
ATOM     24  C   UNL     1      30.940  26.190  25.419  0.00  0.00    +0.000 C 
ENDBRANCH  17  23
TORSDOF 2
ENDMDL
MODEL 6
REMARK VINA RESULT:      -6.3     20.918     22.879
REMARK  Name = 
REMARK  2 active torsions:
REMARK  status: ('A' for Active; 'I' for Inactive)
REMARK    1  A    between atoms: C_2  and  C_3
REMARK    2  A    between atoms: C_19  and  O_20
REMARK                            x       y       z     vdW  Elec       q    Type
REMARK                         _______ _______ _______ _____ _____    ______ ____
ROOT
ATOM      1  C   UNL     1      28.789   6.111  16.478  0.00  0.00    +0.000 C 
ATOM      2  O   UNL     1      29.353   6.764  15.398  0.00  0.00    +0.000 OA
ATOM      3  C   UNL     1      28.372   7.041  17.595  0.00  0.00    +0.000 C 
ATOM      4  C   UNL     1      27.065   6.506  18.151  0.00  0.00    +0.000 C 
ATOM      5  C   UNL     1      27.218   4.990  17.579  0.00  0.00    +0.000 C 
ATOM      6  C   UNL     1      25.582   4.757  17.197  0.00  0.00    +0.000 C 
ATOM      7  C   UNL     1      25.213   4.143  18.630  0.00  0.00    +0.000 C 
ATOM      8  C   UNL     1      23.733   3.882  18.479  0.00  0.00    +0.000 C 
ATOM      9  C   UNL     1      23.511   3.102  17.239  0.00  0.00    +0.000 A 
ATOM     10  C   UNL     1      22.236   2.612  16.936  0.00  0.00    +0.000 A 
ATOM     11  C   UNL     1      21.969   1.870  15.805  0.00  0.00    +0.000 A 
ATOM     12  O   UNL     1      20.689   1.419  15.569  0.00  0.00    +0.000 OA
ATOM     13  C   UNL     1      22.966   1.573  14.903  0.00  0.00    +0.000 A 
ATOM     14  C   UNL     1      24.211   2.058  15.207  0.00  0.00    +0.000 A 
ATOM     15  C   UNL     1      24.468   2.795  16.336  0.00  0.00    +0.000 A 
ATOM     16  C   UNL     1      25.956   3.260  16.561  0.00  0.00    +0.000 C 
ATOM     17  C   UNL     1      26.216   3.676  14.937  0.00  0.00    +0.000 C 
ATOM     18  C   UNL     1      27.613   4.513  15.144  0.00  0.00    +0.000 C 
ATOM     19  C   UNL     1      27.476   5.565  16.058  0.00  0.00    +0.000 C 
ATOM     20  C   UNL     1      26.538   6.685  15.841  0.00  0.00    +0.000 C 
ENDROOT
BRANCH   1  22
ATOM     21  C   UNL     1      30.374   4.156  17.362  0.00  0.00    +0.000 C 
ATOM     22  C   UNL     1      29.648   5.039  16.966  0.00  0.00    +0.000 C 
ENDBRANCH   1  22
BRANCH  17  23
ATOM     23  O   UNL     1      25.308   4.881  14.839  0.00  0.00    +0.000 OA
ATOM     24  C   UNL     1      25.093   4.891  13.477  0.00  0.00    +0.000 C 
ENDBRANCH  17  23
TORSDOF 2
ENDMDL
MODEL 7
REMARK VINA RESULT:      -6.1     31.883     33.927
REMARK  Name = 
REMARK  2 active torsions:
REMARK  status: ('A' for Active; 'I' for Inactive)
REMARK    1  A    between atoms: C_2  and  C_3
REMARK    2  A    between atoms: C_19  and  O_20
REMARK                            x       y       z     vdW  Elec       q    Type
REMARK                         _______ _______ _______ _____ _____    ______ ____
ROOT
ATOM      1  C   UNL     1      17.981 -10.845  27.998  0.00  0.00    +0.000 C 
ATOM      2  O   UNL     1      18.200 -11.960  28.785  0.00  0.00    +0.000 OA
ATOM      3  C   UNL     1      17.470  -9.651  28.771  0.00  0.00    +0.000 C 
ATOM      4  C   UNL     1      18.139  -8.423  28.182  0.00  0.00    +0.000 C 
ATOM      5  C   UNL     1      18.552  -9.092  26.758  0.00  0.00    +0.000 C 
ATOM      6  C   UNL     1      20.051  -8.315  26.601  0.00  0.00    +0.000 C 
ATOM      7  C   UNL     1      19.451  -7.063  25.801  0.00  0.00    +0.000 C 
ATOM      8  C   UNL     1      20.685  -6.220  25.583  0.00  0.00    +0.000 C 
ATOM      9  C   UNL     1      21.742  -7.069  24.982  0.00  0.00    +0.000 A 
ATOM     10  C   UNL     1      22.945  -6.497  24.555  0.00  0.00    +0.000 A 
ATOM     11  C   UNL     1      23.959  -7.231  23.979  0.00  0.00    +0.000 A 
ATOM     12  O   UNL     1      25.118  -6.602  23.581  0.00  0.00    +0.000 OA
ATOM     13  C   UNL     1      23.832  -8.589  23.795  0.00  0.00    +0.000 A 
ATOM     14  C   UNL     1      22.651  -9.142  24.217  0.00  0.00    +0.000 A 
ATOM     15  C   UNL     1      21.645  -8.403  24.790  0.00  0.00    +0.000 A 
ATOM     16  C   UNL     1      20.337  -9.176  25.200  0.00  0.00    +0.000 C 
ATOM     17  C   UNL     1      21.163 -10.517  25.830  0.00  0.00    +0.000 C 
ATOM     18  C   UNL     1      19.897 -11.209  26.613  0.00  0.00    +0.000 C 
ATOM     19  C   UNL     1      19.296 -10.340  27.532  0.00  0.00    +0.000 C 
ATOM     20  C   UNL     1      20.029  -9.775  28.683  0.00  0.00    +0.000 C 
ENDROOT
BRANCH   1  22
ATOM     21  C   UNL     1      16.407 -11.418  25.921  0.00  0.00    +0.000 C 
ATOM     22  C   UNL     1      17.126 -11.151  26.859  0.00  0.00    +0.000 C 
ENDBRANCH   1  22
BRANCH  17  23
ATOM     23  O   UNL     1      21.787  -9.876  27.050  0.00  0.00    +0.000 OA
ATOM     24  C   UNL     1      22.827 -10.756  27.259  0.00  0.00    +0.000 C 
ENDBRANCH  17  23
TORSDOF 2
ENDMDL
MODEL 8
REMARK VINA RESULT:      -6.0      2.707      4.826
REMARK  Name = 
REMARK  2 active torsions:
REMARK  status: ('A' for Active; 'I' for Inactive)
REMARK    1  A    between atoms: C_2  and  C_3
REMARK    2  A    between atoms: C_19  and  O_20
REMARK                            x       y       z     vdW  Elec       q    Type
REMARK                         _______ _______ _______ _____ _____    ______ ____
ROOT
ATOM      1  C   UNL     1      25.812  24.712  25.227  0.00  0.00    +0.000 C 
ATOM      2  O   UNL     1      24.955  25.719  24.828  0.00  0.00    +0.000 OA
ATOM      3  C   UNL     1      25.683  23.447  24.409  0.00  0.00    +0.000 C 
ATOM      4  C   UNL     1      27.083  22.892  24.225  0.00  0.00    +0.000 C 
ATOM      5  C   UNL     1      27.770  23.688  25.468  0.00  0.00    +0.000 C 
ATOM      6  C   UNL     1      29.255  23.994  24.709  0.00  0.00    +0.000 C 
ATOM      7  C   UNL     1      29.939  22.645  25.239  0.00  0.00    +0.000 C 
ATOM      8  C   UNL     1      31.315  22.738  24.624  0.00  0.00    +0.000 C 
ATOM      9  C   UNL     1      31.895  24.062  24.953  0.00  0.00    +0.000 A 
ATOM     10  C   UNL     1      33.222  24.351  24.615  0.00  0.00    +0.000 A 
ATOM     11  C   UNL     1      33.820  25.559  24.904  0.00  0.00    +0.000 A 
ATOM     12  O   UNL     1      35.132  25.775  24.542  0.00  0.00    +0.000 OA
ATOM     13  C   UNL     1      33.125  26.556  25.550  0.00  0.00    +0.000 A 
ATOM     14  C   UNL     1      31.827  26.264  25.876  0.00  0.00    +0.000 A 
ATOM     15  C   UNL     1      31.238  25.058  25.585  0.00  0.00    +0.000 A 
ATOM     16  C   UNL     1      29.745  24.864  26.047  0.00  0.00    +0.000 C 
ATOM     17  C   UNL     1      29.257  26.423  25.592  0.00  0.00    +0.000 C 
ATOM     18  C   UNL     1      27.636  26.186  25.695  0.00  0.00    +0.000 C 
ATOM     19  C   UNL     1      27.199  25.122  24.896  0.00  0.00    +0.000 C 
ATOM     20  C   UNL     1      27.364  25.114  23.429  0.00  0.00    +0.000 C 
ENDROOT
BRANCH   1  22
ATOM     21  C   UNL     1      25.579  24.209  27.837  0.00  0.00    +0.000 C 
ATOM     22  C   UNL     1      25.694  24.440  26.654  0.00  0.00    +0.000 C 
ENDBRANCH   1  22
BRANCH  17  23
ATOM     23  O   UNL     1      29.354  26.287  24.089  0.00  0.00    +0.000 OA
ATOM     24  C   UNL     1      29.432  27.620  23.747  0.00  0.00    +0.000 C 
ENDBRANCH  17  23
TORSDOF 2
ENDMDL
MODEL 9
REMARK VINA RESULT:      -6.0      2.394      6.110
REMARK  Name = 
REMARK  2 active torsions:
REMARK  status: ('A' for Active; 'I' for Inactive)
REMARK    1  A    between atoms: C_2  and  C_3
REMARK    2  A    between atoms: C_19  and  O_20
REMARK                            x       y       z     vdW  Elec       q    Type
REMARK                         _______ _______ _______ _____ _____    ______ ____
ROOT
ATOM      1  C   UNL     1      28.694  23.736  24.573  0.00  0.00    +0.000 C 
ATOM      2  O   UNL     1      29.520  22.691  24.942  0.00  0.00    +0.000 OA
ATOM      3  C   UNL     1      27.832  23.430  23.370  0.00  0.00    +0.000 C 
ATOM      4  C   UNL     1      26.476  24.062  23.624  0.00  0.00    +0.000 C 
ATOM      5  C   UNL     1      26.967  25.122  24.758  0.00  0.00    +0.000 C 
ATOM      6  C   UNL     1      25.589  25.013  25.740  0.00  0.00    +0.000 C 
ATOM      7  C   UNL     1      24.822  26.211  25.000  0.00  0.00    +0.000 C 
ATOM      8  C   UNL     1      23.515  26.250  25.756  0.00  0.00    +0.000 C 
ATOM      9  C   UNL     1      23.806  26.317  27.208  0.00  0.00    +0.000 A 
ATOM     10  C   UNL     1      22.765  26.499  28.125  0.00  0.00    +0.000 A 
ATOM     11  C   UNL     1      22.973  26.581  29.485  0.00  0.00    +0.000 A 
ATOM     12  O   UNL     1      21.901  26.761  30.331  0.00  0.00    +0.000 OA
ATOM     13  C   UNL     1      24.241  26.484  30.014  0.00  0.00    +0.000 A 
ATOM     14  C   UNL     1      25.253  26.305  29.108  0.00  0.00    +0.000 A 
ATOM     15  C   UNL     1      25.038  26.225  27.755  0.00  0.00    +0.000 A 
ATOM     16  C   UNL     1      26.306  26.043  26.839  0.00  0.00    +0.000 C 
ATOM     17  C   UNL     1      27.055  24.920  27.866  0.00  0.00    +0.000 C 
ATOM     18  C   UNL     1      28.207  24.398  26.819  0.00  0.00    +0.000 C 
ATOM     19  C   UNL     1      27.663  23.908  25.625  0.00  0.00    +0.000 C 
ATOM     20  C   UNL     1      26.744  22.752  25.589  0.00  0.00    +0.000 C 
ENDROOT
BRANCH   1  22
ATOM     21  C   UNL     1      30.064  26.000  24.227  0.00  0.00    +0.000 C 
ATOM     22  C   UNL     1      29.442  24.974  24.394  0.00  0.00    +0.000 C 
ENDBRANCH   1  22
BRANCH  17  23
ATOM     23  O   UNL     1      26.115  23.748  27.683  0.00  0.00    +0.000 OA
ATOM     24  C   UNL     1      26.348  23.086  28.869  0.00  0.00    +0.000 C 
ENDBRANCH  17  23
TORSDOF 2
ENDMDL
MODEL 10
REMARK VINA RESULT:      -6.0     15.815     19.865
REMARK  Name = 
REMARK  2 active torsions:
REMARK  status: ('A' for Active; 'I' for Inactive)
REMARK    1  A    between atoms: C_2  and  C_3
REMARK    2  A    between atoms: C_19  and  O_20
REMARK                            x       y       z     vdW  Elec       q    Type
REMARK                         _______ _______ _______ _____ _____    ______ ____
ROOT
ATOM      1  C   UNL     1      25.091  10.882  37.598  0.00  0.00    +0.000 C 
ATOM      2  O   UNL     1      26.264  10.500  38.219  0.00  0.00    +0.000 OA
ATOM      3  C   UNL     1      24.930  10.312  36.206  0.00  0.00    +0.000 C 
ATOM      4  C   UNL     1      23.465   9.955  36.040  0.00  0.00    +0.000 C 
ATOM      5  C   UNL     1      22.898  10.902  37.235  0.00  0.00    +0.000 C 
ATOM      6  C   UNL     1      21.698   9.836  37.781  0.00  0.00    +0.000 C 
ATOM      7  C   UNL     1      20.564  10.431  36.817  0.00  0.00    +0.000 C 
ATOM      8  C   UNL     1      19.381   9.558  37.162  0.00  0.00    +0.000 C 
ATOM      9  C   UNL     1      19.202   9.557  38.634  0.00  0.00    +0.000 A 
ATOM     10  C   UNL     1      18.090   8.932  39.206  0.00  0.00    +0.000 A 
ATOM     11  C   UNL     1      17.863   8.908  40.566  0.00  0.00    +0.000 A 
ATOM     12  O   UNL     1      16.745   8.272  41.061  0.00  0.00    +0.000 OA
ATOM     13  C   UNL     1      18.739   9.509  41.440  0.00  0.00    +0.000 A 
ATOM     14  C   UNL     1      19.826  10.119  40.871  0.00  0.00    +0.000 A 
ATOM     15  C   UNL     1      20.045  10.139  39.515  0.00  0.00    +0.000 A 
ATOM     16  C   UNL     1      21.327  10.902  39.010  0.00  0.00    +0.000 C 
ATOM     17  C   UNL     1      22.332  10.309  40.241  0.00  0.00    +0.000 C 
ATOM     18  C   UNL     1      23.769  10.756  39.587  0.00  0.00    +0.000 C 
ATOM     19  C   UNL     1      23.958  10.232  38.302  0.00  0.00    +0.000 C 
ATOM     20  C   UNL     1      23.998   8.780  38.037  0.00  0.00    +0.000 C 
ENDROOT
BRANCH   1  22
ATOM     21  C   UNL     1      24.805  13.535  37.610  0.00  0.00    +0.000 C 
ATOM     22  C   UNL     1      24.925  12.330  37.606  0.00  0.00    +0.000 C 
ENDBRANCH   1  22
BRANCH  17  23
ATOM     23  O   UNL     1      22.401   8.855  39.830  0.00  0.00    +0.000 OA
ATOM     24  C   UNL     1      22.722   8.292  41.046  0.00  0.00    +0.000 C 
ENDBRANCH  17  23
TORSDOF 2
ENDMDL
