MODEL 1
REMARK VINA RESULT:      -7.0      0.000      0.000
REMARK  Name = 
REMARK  3 active torsions:
REMARK  status: ('A' for Active; 'I' for Inactive)
REMARK    1  A    between atoms: C_5  and  N_6
REMARK    2  A    between atoms: C_7  and  S_9
REMARK    3  A    between atoms: S_9  and  C_10
REMARK                            x       y       z     vdW  Elec       q    Type
REMARK                         _______ _______ _______ _____ _____    ______ ____
ROOT
ATOM      1  N   UNL     1      16.338  10.643  36.618  0.00  0.00    +0.000 NA
ATOM      2  C   UNL     1      16.189  11.985  36.191  0.00  0.00    +0.000 C 
ATOM      3  O   UNL     1      17.071  12.817  36.469  0.00  0.00    +0.000 OA
ENDROOT
BRANCH   1   8
ATOM      4  C   UNL     1      21.105   9.261  39.490  0.00  0.00    +0.000 C 
ATOM      5  C   UNL     1      19.849   9.617  38.780  0.00  0.00    +0.000 A 
ATOM      6  C   UNL     1      18.635   9.733  39.425  0.00  0.00    +0.000 A 
ATOM      7  C   UNL     1      17.481  10.069  38.719  0.00  0.00    +0.000 A 
ATOM      8  C   UNL     1      17.511  10.297  37.363  0.00  0.00    +0.000 A 
ATOM      9  C   UNL     1      18.748  10.173  36.745  0.00  0.00    +0.000 A 
ATOM     10  C   UNL     1      19.883   9.844  37.432  0.00  0.00    +0.000 A 
ATOM     11  C   UNL     1      21.176   9.731  36.684  0.00  0.00    +0.000 C 
ENDBRANCH   1   8
BRANCH   2  12
ATOM     12  S   UNL     1      14.757  12.533  35.251  0.00  0.00    +0.000 S 
BRANCH  12  13
ATOM     13  C   UNL     1      15.028  12.319  33.508  0.00  0.00    +0.000 A 
ATOM     14  C   UNL     1      15.862  11.321  33.079  0.00  0.00    +0.000 A 
ATOM     15  C   UNL     1      16.116  11.100  31.737  0.00  0.00    +0.000 A 
ATOM     16  C   UNL     1      15.514  11.906  30.797  0.00  0.00    +0.000 A 
ATOM     17  C   UNL     1      14.676  12.909  31.229  0.00  0.00    +0.000 A 
ATOM     18  C   UNL     1      14.421  13.130  32.575  0.00  0.00    +0.000 A 
ATOM     19  O   UNL     1      13.563  14.160  32.959  0.00  0.00    +0.000 OA
ENDBRANCH  12  13
ENDBRANCH   2  12
TORSDOF 3
ENDMDL
MODEL 2
REMARK VINA RESULT:      -6.7      3.067      7.606
REMARK  Name = 
REMARK  3 active torsions:
REMARK  status: ('A' for Active; 'I' for Inactive)
REMARK    1  A    between atoms: C_5  and  N_6
REMARK    2  A    between atoms: C_7  and  S_9
REMARK    3  A    between atoms: S_9  and  C_10
REMARK                            x       y       z     vdW  Elec       q    Type
REMARK                         _______ _______ _______ _____ _____    ______ ____
ROOT
ATOM      1  N   UNL     1      17.355   9.864  37.302  0.00  0.00    +0.000 NA
ATOM      2  C   UNL     1      18.388  10.542  37.993  0.00  0.00    +0.000 C 
ATOM      3  O   UNL     1      18.895  11.560  37.489  0.00  0.00    +0.000 OA
ENDROOT
BRANCH   1   8
ATOM      4  C   UNL     1      15.583  12.023  32.295  0.00  0.00    +0.000 C 
ATOM      5  C   UNL     1      16.068  11.440  33.572  0.00  0.00    +0.000 A 
ATOM      6  C   UNL     1      17.053  10.476  33.626  0.00  0.00    +0.000 A 
ATOM      7  C   UNL     1      17.478   9.956  34.847  0.00  0.00    +0.000 A 
ATOM      8  C   UNL     1      16.934  10.384  36.036  0.00  0.00    +0.000 A 
ATOM      9  C   UNL     1      15.945  11.355  35.947  0.00  0.00    +0.000 A 
ATOM     10  C   UNL     1      15.525  11.868  34.751  0.00  0.00    +0.000 A 
ATOM     11  C   UNL     1      14.452  12.914  34.749  0.00  0.00    +0.000 C 
ENDBRANCH   1   8
BRANCH   2  12
ATOM     12  S   UNL     1      18.997   9.978  39.589  0.00  0.00    +0.000 S 
BRANCH  12  13
ATOM     13  C   UNL     1      17.782   8.975  40.408  0.00  0.00    +0.000 A 
ATOM     14  C   UNL     1      16.683   9.575  40.962  0.00  0.00    +0.000 A 
ATOM     15  C   UNL     1      15.699   8.853  41.614  0.00  0.00    +0.000 A 
ATOM     16  C   UNL     1      15.824   7.485  41.713  0.00  0.00    +0.000 A 
ATOM     17  C   UNL     1      16.929   6.882  41.157  0.00  0.00    +0.000 A 
ATOM     18  C   UNL     1      17.915   7.607  40.502  0.00  0.00    +0.000 A 
ATOM     19  O   UNL     1      19.015   6.946  39.956  0.00  0.00    +0.000 OA
ENDBRANCH  12  13
ENDBRANCH   2  12
TORSDOF 3
ENDMDL
MODEL 3
REMARK VINA RESULT:      -6.7     28.638     31.293
REMARK  Name = 
REMARK  3 active torsions:
REMARK  status: ('A' for Active; 'I' for Inactive)
REMARK    1  A    between atoms: C_5  and  N_6
REMARK    2  A    between atoms: C_7  and  S_9
REMARK    3  A    between atoms: S_9  and  C_10
REMARK                            x       y       z     vdW  Elec       q    Type
REMARK                         _______ _______ _______ _____ _____    ______ ____
ROOT
ATOM      1  N   UNL     1      30.983  21.075  10.466  0.00  0.00    +0.000 NA
ATOM      2  C   UNL     1      31.401  21.648   9.241  0.00  0.00    +0.000 C 
ATOM      3  O   UNL     1      30.960  22.761   8.904  0.00  0.00    +0.000 OA
ENDROOT
BRANCH   1   8
ATOM      4  C   UNL     1      27.181  23.983  13.624  0.00  0.00    +0.000 C 
ATOM      5  C   UNL     1      28.195  23.242  12.830  0.00  0.00    +0.000 A 
ATOM      6  C   UNL     1      29.535  23.229  13.158  0.00  0.00    +0.000 A 
ATOM      7  C   UNL     1      30.452  22.519  12.386  0.00  0.00    +0.000 A 
ATOM      8  C   UNL     1      30.057  21.810  11.275  0.00  0.00    +0.000 A 
ATOM      9  C   UNL     1      28.702  21.845  10.972  0.00  0.00    +0.000 A 
ATOM     10  C   UNL     1      27.798  22.538  11.728  0.00  0.00    +0.000 A 
ATOM     11  C   UNL     1      26.355  22.520  11.327  0.00  0.00    +0.000 C 
ENDBRANCH   1   8
BRANCH   2  12
ATOM     12  S   UNL     1      32.559  20.815   8.146  0.00  0.00    +0.000 S 
BRANCH  12  13
ATOM     13  C   UNL     1      31.708  19.688   7.069  0.00  0.00    +0.000 A 
ATOM     14  C   UNL     1      30.371  19.867   6.835  0.00  0.00    +0.000 A 
ATOM     15  C   UNL     1      29.649  19.026   6.007  0.00  0.00    +0.000 A 
ATOM     16  C   UNL     1      30.290  17.972   5.396  0.00  0.00    +0.000 A 
ATOM     17  C   UNL     1      31.634  17.791   5.631  0.00  0.00    +0.000 A 
ATOM     18  C   UNL     1      32.358  18.636   6.461  0.00  0.00    +0.000 A 
ATOM     19  O   UNL     1      33.718  18.408   6.666  0.00  0.00    +0.000 OA
ENDBRANCH  12  13
ENDBRANCH   2  12
TORSDOF 3
ENDMDL
MODEL 4
REMARK VINA RESULT:      -6.7      3.064      7.505
REMARK  Name = 
REMARK  3 active torsions:
REMARK  status: ('A' for Active; 'I' for Inactive)
REMARK    1  A    between atoms: C_5  and  N_6
REMARK    2  A    between atoms: C_7  and  S_9
REMARK    3  A    between atoms: S_9  and  C_10
REMARK                            x       y       z     vdW  Elec       q    Type
REMARK                         _______ _______ _______ _____ _____    ______ ____
ROOT
ATOM      1  N   UNL     1      17.846   9.523  37.448  0.00  0.00    +0.000 NA
ATOM      2  C   UNL     1      18.856  10.221  38.153  0.00  0.00    +0.000 C 
ATOM      3  O   UNL     1      19.341  11.256  37.662  0.00  0.00    +0.000 OA
ENDROOT
BRANCH   1   8
ATOM      4  C   UNL     1      16.054  11.681  32.447  0.00  0.00    +0.000 C 
ATOM      5  C   UNL     1      16.546  11.100  33.723  0.00  0.00    +0.000 A 
ATOM      6  C   UNL     1      17.575  10.183  33.777  0.00  0.00    +0.000 A 
ATOM      7  C   UNL     1      18.004   9.663  34.997  0.00  0.00    +0.000 A 
ATOM      8  C   UNL     1      17.421  10.045  36.183  0.00  0.00    +0.000 A 
ATOM      9  C   UNL     1      16.389  10.969  36.093  0.00  0.00    +0.000 A 
ATOM     10  C   UNL     1      15.964  11.482  34.899  0.00  0.00    +0.000 A 
ATOM     11  C   UNL     1      14.843  12.475  34.896  0.00  0.00    +0.000 C 
ENDBRANCH   1   8
BRANCH   2  12
ATOM     12  S   UNL     1      19.468   9.658  39.748  0.00  0.00    +0.000 S 
BRANCH  12  13
ATOM     13  C   UNL     1      18.537   8.258  40.322  0.00  0.00    +0.000 A 
ATOM     14  C   UNL     1      19.104   7.013  40.275  0.00  0.00    +0.000 A 
ATOM     15  C   UNL     1      18.434   5.881  40.705  0.00  0.00    +0.000 A 
ATOM     16  C   UNL     1      17.154   6.005  41.198  0.00  0.00    +0.000 A 
ATOM     17  C   UNL     1      16.584   7.257  41.245  0.00  0.00    +0.000 A 
ATOM     18  C   UNL     1      17.257   8.391  40.813  0.00  0.00    +0.000 A 
ATOM     19  O   UNL     1      16.633   9.637  40.882  0.00  0.00    +0.000 OA
ENDBRANCH  12  13
ENDBRANCH   2  12
TORSDOF 3
ENDMDL
MODEL 5
REMARK VINA RESULT:      -6.3      2.228      3.138
REMARK  Name = 
REMARK  3 active torsions:
REMARK  status: ('A' for Active; 'I' for Inactive)
REMARK    1  A    between atoms: C_5  and  N_6
REMARK    2  A    between atoms: C_7  and  S_9
REMARK    3  A    between atoms: S_9  and  C_10
REMARK                            x       y       z     vdW  Elec       q    Type
REMARK                         _______ _______ _______ _____ _____    ______ ____
ROOT
ATOM      1  N   UNL     1      19.467  10.923  37.617  0.00  0.00    +0.000 NA
ATOM      2  C   UNL     1      18.340  10.078  37.479  0.00  0.00    +0.000 C 
ATOM      3  O   UNL     1      18.481   8.846  37.589  0.00  0.00    +0.000 OA
ENDROOT
BRANCH   1   8
ATOM      4  C   UNL     1      24.588   8.513  38.538  0.00  0.00    +0.000 C 
ATOM      5  C   UNL     1      23.252   9.131  38.338  0.00  0.00    +0.000 A 
ATOM      6  C   UNL     1      22.332   9.267  39.357  0.00  0.00    +0.000 A 
ATOM      7  C   UNL     1      21.090   9.854  39.125  0.00  0.00    +0.000 A 
ATOM      8  C   UNL     1      20.738  10.317  37.878  0.00  0.00    +0.000 A 
ATOM      9  C   UNL     1      21.686  10.165  36.875  0.00  0.00    +0.000 A 
ATOM     10  C   UNL     1      22.906   9.591  37.098  0.00  0.00    +0.000 A 
ATOM     11  C   UNL     1      23.868   9.468  35.956  0.00  0.00    +0.000 C 
ENDBRANCH   1   8
BRANCH   2  12
ATOM     12  S   UNL     1      16.695  10.727  37.150  0.00  0.00    +0.000 S 
BRANCH  12  13
ATOM     13  C   UNL     1      16.436  10.929  35.404  0.00  0.00    +0.000 A 
ATOM     14  C   UNL     1      17.239  10.252  34.526  0.00  0.00    +0.000 A 
ATOM     15  C   UNL     1      17.091  10.365  33.155  0.00  0.00    +0.000 A 
ATOM     16  C   UNL     1      16.105  11.182  32.651  0.00  0.00    +0.000 A 
ATOM     17  C   UNL     1      15.297  11.863  33.533  0.00  0.00    +0.000 A 
ATOM     18  C   UNL     1      15.446  11.749  34.909  0.00  0.00    +0.000 A 
ATOM     19  O   UNL     1      14.601  12.461  35.759  0.00  0.00    +0.000 OA
ENDBRANCH  12  13
ENDBRANCH   2  12
TORSDOF 3
ENDMDL
MODEL 6
REMARK VINA RESULT:      -6.2     28.171     30.863
REMARK  Name = 
REMARK  3 active torsions:
REMARK  status: ('A' for Active; 'I' for Inactive)
REMARK    1  A    between atoms: C_5  and  N_6
REMARK    2  A    between atoms: C_7  and  S_9
REMARK    3  A    between atoms: S_9  and  C_10
REMARK                            x       y       z     vdW  Elec       q    Type
REMARK                         _______ _______ _______ _____ _____    ______ ____
ROOT
ATOM      1  N   UNL     1      31.495  22.143  11.535  0.00  0.00    +0.000 NA
ATOM      2  C   UNL     1      32.021  20.936  12.054  0.00  0.00    +0.000 C 
ATOM      3  O   UNL     1      31.292  20.194  12.737  0.00  0.00    +0.000 OA
ENDROOT
BRANCH   1   8
ATOM      4  C   UNL     1      26.068  23.501  12.791  0.00  0.00    +0.000 C 
ATOM      5  C   UNL     1      27.461  23.126  12.435  0.00  0.00    +0.000 A 
ATOM      6  C   UNL     1      27.763  22.308  11.366  0.00  0.00    +0.000 A 
ATOM      7  C   UNL     1      29.085  21.983  11.068  0.00  0.00    +0.000 A 
ATOM      8  C   UNL     1      30.129  22.465  11.823  0.00  0.00    +0.000 A 
ATOM      9  C   UNL     1      29.790  23.285  12.891  0.00  0.00    +0.000 A 
ATOM     10  C   UNL     1      28.495  23.607  13.187  0.00  0.00    +0.000 A 
ATOM     11  C   UNL     1      28.221  24.500  14.359  0.00  0.00    +0.000 C 
ENDBRANCH   1   8
BRANCH   2  12
ATOM     12  S   UNL     1      33.721  20.430  11.756  0.00  0.00    +0.000 S 
BRANCH  12  13
ATOM     13  C   UNL     1      34.176  20.715  10.063  0.00  0.00    +0.000 A 
ATOM     14  C   UNL     1      34.089  19.685   9.165  0.00  0.00    +0.000 A 
ATOM     15  C   UNL     1      34.427  19.840   7.832  0.00  0.00    +0.000 A 
ATOM     16  C   UNL     1      34.867  21.067   7.388  0.00  0.00    +0.000 A 
ATOM     17  C   UNL     1      34.955  22.102   8.291  0.00  0.00    +0.000 A 
ATOM     18  C   UNL     1      34.615  21.946   9.628  0.00  0.00    +0.000 A 
ATOM     19  O   UNL     1      34.722  23.028  10.501  0.00  0.00    +0.000 OA
ENDBRANCH  12  13
ENDBRANCH   2  12
TORSDOF 3
ENDMDL
MODEL 7
REMARK VINA RESULT:      -6.0     19.780     20.810
REMARK  Name = 
REMARK  3 active torsions:
REMARK  status: ('A' for Active; 'I' for Inactive)
REMARK    1  A    between atoms: C_5  and  N_6
REMARK    2  A    between atoms: C_7  and  S_9
REMARK    3  A    between atoms: S_9  and  C_10
REMARK                            x       y       z     vdW  Elec       q    Type
REMARK                         _______ _______ _______ _____ _____    ______ ____
ROOT
ATOM      1  N   UNL     1      27.798  22.799  24.877  0.00  0.00    +0.000 NA
ATOM      2  C   UNL     1      27.725  24.047  24.212  0.00  0.00    +0.000 C 
ATOM      3  O   UNL     1      28.059  25.082  24.816  0.00  0.00    +0.000 OA
ENDROOT
BRANCH   1   8
ATOM      4  C   UNL     1      29.761  22.701  30.263  0.00  0.00    +0.000 C 
ATOM      5  C   UNL     1      29.215  22.734  28.882  0.00  0.00    +0.000 A 
ATOM      6  C   UNL     1      27.885  22.977  28.611  0.00  0.00    +0.000 A 
ATOM      7  C   UNL     1      27.416  22.999  27.299  0.00  0.00    +0.000 A 
ATOM      8  C   UNL     1      28.258  22.782  26.233  0.00  0.00    +0.000 A 
ATOM      9  C   UNL     1      29.591  22.540  26.540  0.00  0.00    +0.000 A 
ATOM     10  C   UNL     1      30.056  22.518  27.825  0.00  0.00    +0.000 A 
ATOM     11  C   UNL     1      31.510  22.249  28.065  0.00  0.00    +0.000 C 
ENDBRANCH   1   8
BRANCH   2  12
ATOM     12  S   UNL     1      27.161  24.189  22.510  0.00  0.00    +0.000 S 
BRANCH  12  13
ATOM     13  C   UNL     1      27.924  25.578  21.708  0.00  0.00    +0.000 A 
ATOM     14  C   UNL     1      27.327  26.808  21.786  0.00  0.00    +0.000 A 
ATOM     15  C   UNL     1      27.869  27.930  21.184  0.00  0.00    +0.000 A 
ATOM     16  C   UNL     1      29.047  27.812  20.482  0.00  0.00    +0.000 A 
ATOM     17  C   UNL     1      29.648  26.576  20.403  0.00  0.00    +0.000 A 
ATOM     18  C   UNL     1      29.103  25.452  21.007  0.00  0.00    +0.000 A 
ATOM     19  O   UNL     1      29.753  24.222  20.896  0.00  0.00    +0.000 OA
ENDBRANCH  12  13
ENDBRANCH   2  12
TORSDOF 3
ENDMDL
MODEL 8
REMARK VINA RESULT:      -5.9      3.476      5.104
REMARK  Name = 
REMARK  3 active torsions:
REMARK  status: ('A' for Active; 'I' for Inactive)
REMARK    1  A    between atoms: C_5  and  N_6
REMARK    2  A    between atoms: C_7  and  S_9
REMARK    3  A    between atoms: S_9  and  C_10
REMARK                            x       y       z     vdW  Elec       q    Type
REMARK                         _______ _______ _______ _____ _____    ______ ____
ROOT
ATOM      1  N   UNL     1      17.261   9.730  39.382  0.00  0.00    +0.000 NA
ATOM      2  C   UNL     1      18.535  10.337  39.276  0.00  0.00    +0.000 C 
ATOM      3  O   UNL     1      19.351  10.213  40.207  0.00  0.00    +0.000 OA
ENDROOT
BRANCH   1   8
ATOM      4  C   UNL     1      16.113   6.665  44.090  0.00  0.00    +0.000 C 
ATOM      5  C   UNL     1      16.393   7.491  42.887  0.00  0.00    +0.000 A 
ATOM      6  C   UNL     1      16.040   8.822  42.798  0.00  0.00    +0.000 A 
ATOM      7  C   UNL     1      16.322   9.559  41.650  0.00  0.00    +0.000 A 
ATOM      8  C   UNL     1      16.961   8.991  40.572  0.00  0.00    +0.000 A 
ATOM      9  C   UNL     1      17.302   7.650  40.695  0.00  0.00    +0.000 A 
ATOM     10  C   UNL     1      17.028   6.923  41.819  0.00  0.00    +0.000 A 
ATOM     11  C   UNL     1      17.433   5.481  41.865  0.00  0.00    +0.000 C 
ENDBRANCH   1   8
BRANCH   2  12
ATOM     12  S   UNL     1      19.020  11.289  37.829  0.00  0.00    +0.000 S 
BRANCH  12  13
ATOM     13  C   UNL     1      17.641  11.516  36.733  0.00  0.00    +0.000 A 
ATOM     14  C   UNL     1      16.771  12.549  36.958  0.00  0.00    +0.000 A 
ATOM     15  C   UNL     1      15.677  12.782  36.143  0.00  0.00    +0.000 A 
ATOM     16  C   UNL     1      15.451  11.951  35.069  0.00  0.00    +0.000 A 
ATOM     17  C   UNL     1      16.326  10.913  34.842  0.00  0.00    +0.000 A 
ATOM     18  C   UNL     1      17.423  10.680  35.660  0.00  0.00    +0.000 A 
ATOM     19  O   UNL     1      18.278   9.613  35.386  0.00  0.00    +0.000 OA
ENDBRANCH  12  13
ENDBRANCH   2  12
TORSDOF 3
ENDMDL
MODEL 9
REMARK VINA RESULT:      -5.9      3.052      4.608
REMARK  Name = 
REMARK  3 active torsions:
REMARK  status: ('A' for Active; 'I' for Inactive)
REMARK    1  A    between atoms: C_5  and  N_6
REMARK    2  A    between atoms: C_7  and  S_9
REMARK    3  A    between atoms: S_9  and  C_10
REMARK                            x       y       z     vdW  Elec       q    Type
REMARK                         _______ _______ _______ _____ _____    ______ ____
ROOT
ATOM      1  N   UNL     1      19.903  11.222  37.927  0.00  0.00    +0.000 NA
ATOM      2  C   UNL     1      19.228  10.115  38.496  0.00  0.00    +0.000 C 
ATOM      3  O   UNL     1      19.889   9.184  38.991  0.00  0.00    +0.000 OA
ENDROOT
BRANCH   1   8
ATOM      4  C   UNL     1      25.636  11.152  37.893  0.00  0.00    +0.000 C 
ATOM      5  C   UNL     1      24.151  11.192  37.935  0.00  0.00    +0.000 A 
ATOM      6  C   UNL     1      23.451  11.865  38.915  0.00  0.00    +0.000 A 
ATOM      7  C   UNL     1      22.057  11.877  38.916  0.00  0.00    +0.000 A 
ATOM      8  C   UNL     1      21.335  11.223  37.945  0.00  0.00    +0.000 A 
ATOM      9  C   UNL     1      22.070  10.556  36.974  0.00  0.00    +0.000 A 
ATOM     10  C   UNL     1      23.437  10.542  36.969  0.00  0.00    +0.000 A 
ATOM     11  C   UNL     1      24.148   9.796  35.881  0.00  0.00    +0.000 C 
ENDBRANCH   1   8
BRANCH   2  12
ATOM     12  S   UNL     1      17.433  10.006  38.529  0.00  0.00    +0.000 S 
BRANCH  12  13
ATOM     13  C   UNL     1      16.730  10.743  37.073  0.00  0.00    +0.000 A 
ATOM     14  C   UNL     1      15.981  11.883  37.196  0.00  0.00    +0.000 A 
ATOM     15  C   UNL     1      15.406  12.508  36.104  0.00  0.00    +0.000 A 
ATOM     16  C   UNL     1      15.589  11.971  34.849  0.00  0.00    +0.000 A 
ATOM     17  C   UNL     1      16.342  10.825  34.725  0.00  0.00    +0.000 A 
ATOM     18  C   UNL     1      16.918  10.199  35.822  0.00  0.00    +0.000 A 
ATOM     19  O   UNL     1      17.672   9.040  35.642  0.00  0.00    +0.000 OA
ENDBRANCH  12  13
ENDBRANCH   2  12
TORSDOF 3
ENDMDL
MODEL 10
REMARK VINA RESULT:      -5.8     18.327     20.222
REMARK  Name = 
REMARK  3 active torsions:
REMARK  status: ('A' for Active; 'I' for Inactive)
REMARK    1  A    between atoms: C_5  and  N_6
REMARK    2  A    between atoms: C_7  and  S_9
REMARK    3  A    between atoms: S_9  and  C_10
REMARK                            x       y       z     vdW  Elec       q    Type
REMARK                         _______ _______ _______ _____ _____    ______ ____
ROOT
ATOM      1  N   UNL     1      25.478  26.115  25.008  0.00  0.00    +0.000 NA
ATOM      2  C   UNL     1      25.800  24.900  24.358  0.00  0.00    +0.000 C 
ATOM      3  O   UNL     1      25.009  23.942  24.426  0.00  0.00    +0.000 OA
ENDROOT
BRANCH   1   8
ATOM      4  C   UNL     1      20.471  26.461  27.781  0.00  0.00    +0.000 C 
ATOM      5  C   UNL     1      21.786  26.359  27.097  0.00  0.00    +0.000 A 
ATOM      6  C   UNL     1      22.932  25.939  27.741  0.00  0.00    +0.000 A 
ATOM      7  C   UNL     1      24.144  25.858  27.059  0.00  0.00    +0.000 A 
ATOM      8  C   UNL     1      24.242  26.191  25.728  0.00  0.00    +0.000 A 
ATOM      9  C   UNL     1      23.071  26.609  25.110  0.00  0.00    +0.000 A 
ATOM     10  C   UNL     1      21.879  26.690  25.774  0.00  0.00    +0.000 A 
ATOM     11  C   UNL     1      20.665  27.152  25.028  0.00  0.00    +0.000 C 
ENDBRANCH   1   8
BRANCH   2  12
ATOM     12  S   UNL     1      27.324  24.691  23.426  0.00  0.00    +0.000 S 
BRANCH  12  13
ATOM     13  C   UNL     1      28.504  23.742  24.354  0.00  0.00    +0.000 A 
ATOM     14  C   UNL     1      28.141  23.229  25.571  0.00  0.00    +0.000 A 
ATOM     15  C   UNL     1      29.012  22.482  26.345  0.00  0.00    +0.000 A 
ATOM     16  C   UNL     1      30.286  22.241  25.881  0.00  0.00    +0.000 A 
ATOM     17  C   UNL     1      30.651  22.756  24.658  0.00  0.00    +0.000 A 
ATOM     18  C   UNL     1      29.777  23.506  23.883  0.00  0.00    +0.000 A 
ATOM     19  O   UNL     1      30.197  24.005  22.650  0.00  0.00    +0.000 OA
ENDBRANCH  12  13
ENDBRANCH   2  12
TORSDOF 3
ENDMDL
