MODEL 1
REMARK VINA RESULT:      -6.5      0.000      0.000
REMARK  Name = 
REMARK  5 active torsions:
REMARK  status: ('A' for Active; 'I' for Inactive)
REMARK    1  A    between atoms: C_2  and  C_3
REMARK    2  A    between atoms: C_2  and  N_7
REMARK    3  A    between atoms: C_3  and  C_4
REMARK    4  A    between atoms: N_7  and  N_8
REMARK    5  A    between atoms: C_9  and  C_11
REMARK                            x       y       z     vdW  Elec       q    Type
REMARK                         _______ _______ _______ _____ _____    ______ ____
ROOT
ATOM      1  N   UNL     1      15.658  11.216  35.071  0.00  0.00    +0.000 NA
ATOM      2  C   UNL     1      15.938  11.883  36.275  0.00  0.00    +0.000 C 
ATOM      3  O   UNL     1      16.219  13.103  36.250  0.00  0.00    +0.000 OA
ENDROOT
BRANCH   2   4
ATOM      4  C   UNL     1      15.901  11.166  37.540  0.00  0.00    +0.000 A 
ATOM      5  C   UNL     1      17.032  10.556  38.062  0.00  0.00    +0.000 A 
ATOM      6  C   UNL     1      17.017   9.872  39.260  0.00  0.00    +0.000 A 
ATOM      7  C   UNL     1      15.833   9.789  39.964  0.00  0.00    +0.000 A 
ATOM      8 CL   UNL     1      15.866   8.908  41.478  0.00  0.00    +0.000 Cl
ATOM      9  C   UNL     1      14.674  10.381  39.486  0.00  0.00    +0.000 A 
ATOM     10  C   UNL     1      14.745  11.053  38.284  0.00  0.00    +0.000 A 
ATOM     11  O   UNL     1      13.610  11.679  37.733  0.00  0.00    +0.000 OA
ENDBRANCH   2   4
BRANCH   1  12
ATOM     12  N   UNL     1      15.678  11.847  33.826  0.00  0.00    +0.000 NA
BRANCH  12  14
ATOM     13  C   UNL     1      17.211  10.255  33.021  0.00  0.00    +0.000 C 
ATOM     14  C   UNL     1      16.294  11.161  32.750  0.00  0.00    +0.000 C 
BRANCH  14  15
ATOM     15  C   UNL     1      15.890  11.482  31.367  0.00  0.00    +0.000 C 
BRANCH  15  16
ATOM     16  C   UNL     1      15.632  12.966  31.185  0.00  0.00    +0.000 C 
ATOM     17  C   UNL     1      14.236  13.144  30.569  0.00  0.00    +0.000 C 
ATOM     18  C   UNL     1      16.662  13.547  30.206  0.00  0.00    +0.000 C 
ENDBRANCH  15  16
ENDBRANCH  14  15
ENDBRANCH  12  14
ENDBRANCH   1  12
TORSDOF 5
ENDMDL
MODEL 2
REMARK VINA RESULT:      -6.0      3.398      7.383
REMARK  Name = 
REMARK  5 active torsions:
REMARK  status: ('A' for Active; 'I' for Inactive)
REMARK    1  A    between atoms: C_2  and  C_3
REMARK    2  A    between atoms: C_2  and  N_7
REMARK    3  A    between atoms: C_3  and  C_4
REMARK    4  A    between atoms: N_7  and  N_8
REMARK    5  A    between atoms: C_9  and  C_11
REMARK                            x       y       z     vdW  Elec       q    Type
REMARK                         _______ _______ _______ _____ _____    ______ ____
ROOT
ATOM      1  N   UNL     1      16.286  10.567  37.071  0.00  0.00    +0.000 NA
ATOM      2  C   UNL     1      16.614  11.610  36.187  0.00  0.00    +0.000 C 
ATOM      3  O   UNL     1      17.295  12.574  36.603  0.00  0.00    +0.000 OA
ENDROOT
BRANCH   2   4
ATOM      4  C   UNL     1      16.170  11.569  34.803  0.00  0.00    +0.000 A 
ATOM      5  C   UNL     1      15.061  12.284  34.376  0.00  0.00    +0.000 A 
ATOM      6  C   UNL     1      14.623  12.258  33.068  0.00  0.00    +0.000 A 
ATOM      7  C   UNL     1      15.313  11.491  32.150  0.00  0.00    +0.000 A 
ATOM      8 CL   UNL     1      14.717  11.491  30.504  0.00  0.00    +0.000 Cl
ATOM      9  C   UNL     1      16.428  10.758  32.526  0.00  0.00    +0.000 A 
ATOM     10  C   UNL     1      16.822  10.820  33.847  0.00  0.00    +0.000 A 
ATOM     11  O   UNL     1      17.944  10.102  34.304  0.00  0.00    +0.000 OA
ENDBRANCH   2   4
BRANCH   1  12
ATOM     12  N   UNL     1      16.682  10.548  38.409  0.00  0.00    +0.000 NA
BRANCH  12  14
ATOM     13  C   UNL     1      18.517   9.192  37.839  0.00  0.00    +0.000 C 
ATOM     14  C   UNL     1      17.715   9.651  38.778  0.00  0.00    +0.000 C 
BRANCH  14  15
ATOM     15  C   UNL     1      17.859   9.262  40.194  0.00  0.00    +0.000 C 
BRANCH  15  16
ATOM     16  C   UNL     1      16.520   8.929  40.827  0.00  0.00    +0.000 C 
ATOM     17  C   UNL     1      16.393   9.721  42.137  0.00  0.00    +0.000 C 
ATOM     18  C   UNL     1      16.473   7.433  41.167  0.00  0.00    +0.000 C 
ENDBRANCH  15  16
ENDBRANCH  14  15
ENDBRANCH  12  14
ENDBRANCH   1  12
TORSDOF 5
ENDMDL
MODEL 3
REMARK VINA RESULT:      -5.9      4.365      6.920
REMARK  Name = 
REMARK  5 active torsions:
REMARK  status: ('A' for Active; 'I' for Inactive)
REMARK    1  A    between atoms: C_2  and  C_3
REMARK    2  A    between atoms: C_2  and  N_7
REMARK    3  A    between atoms: C_3  and  C_4
REMARK    4  A    between atoms: N_7  and  N_8
REMARK    5  A    between atoms: C_9  and  C_11
REMARK                            x       y       z     vdW  Elec       q    Type
REMARK                         _______ _______ _______ _____ _____    ______ ____
ROOT
ATOM      1  N   UNL     1      18.516  10.351  36.404  0.00  0.00    +0.000 NA
ATOM      2  C   UNL     1      17.715   9.723  35.434  0.00  0.00    +0.000 C 
ATOM      3  O   UNL     1      17.749   8.477  35.324  0.00  0.00    +0.000 OA
ENDROOT
BRANCH   2   4
ATOM      4  C   UNL     1      16.854  10.513  34.568  0.00  0.00    +0.000 A 
ATOM      5  C   UNL     1      17.004  10.501  33.189  0.00  0.00    +0.000 A 
ATOM      6  C   UNL     1      16.198  11.242  32.351  0.00  0.00    +0.000 A 
ATOM      7  C   UNL     1      15.206  12.027  32.904  0.00  0.00    +0.000 A 
ATOM      8 CL   UNL     1      14.211  12.950  31.796  0.00  0.00    +0.000 Cl
ATOM      9  C   UNL     1      15.015  12.074  34.275  0.00  0.00    +0.000 A 
ATOM     10  C   UNL     1      15.849  11.313  35.067  0.00  0.00    +0.000 A 
ATOM     11  O   UNL     1      15.716  11.310  36.469  0.00  0.00    +0.000 OA
ENDBRANCH   2   4
BRANCH   1  12
ATOM     12  N   UNL     1      19.362   9.650  37.264  0.00  0.00    +0.000 NA
BRANCH  12  14
ATOM     13  C   UNL     1      19.839  10.667  39.330  0.00  0.00    +0.000 C 
ATOM     14  C   UNL     1      20.224  10.404  38.099  0.00  0.00    +0.000 C 
BRANCH  14  15
ATOM     15  C   UNL     1      21.519  10.867  37.564  0.00  0.00    +0.000 C 
BRANCH  15  16
ATOM     16  C   UNL     1      22.309   9.733  36.936  0.00  0.00    +0.000 C 
ATOM     17  C   UNL     1      23.188   9.095  38.023  0.00  0.00    +0.000 C 
ATOM     18  C   UNL     1      23.232  10.295  35.847  0.00  0.00    +0.000 C 
ENDBRANCH  15  16
ENDBRANCH  14  15
ENDBRANCH  12  14
ENDBRANCH   1  12
TORSDOF 5
ENDMDL
MODEL 4
REMARK VINA RESULT:      -5.9      4.132      6.716
REMARK  Name = 
REMARK  5 active torsions:
REMARK  status: ('A' for Active; 'I' for Inactive)
REMARK    1  A    between atoms: C_2  and  C_3
REMARK    2  A    between atoms: C_2  and  N_7
REMARK    3  A    between atoms: C_3  and  C_4
REMARK    4  A    between atoms: N_7  and  N_8
REMARK    5  A    between atoms: C_9  and  C_11
REMARK                            x       y       z     vdW  Elec       q    Type
REMARK                         _______ _______ _______ _____ _____    ______ ____
ROOT
ATOM      1  N   UNL     1      18.685  10.330  36.209  0.00  0.00    +0.000 NA
ATOM      2  C   UNL     1      17.699   9.728  35.410  0.00  0.00    +0.000 C 
ATOM      3  O   UNL     1      17.566   8.483  35.433  0.00  0.00    +0.000 OA
ENDROOT
BRANCH   2   4
ATOM      4  C   UNL     1      16.839  10.541  34.565  0.00  0.00    +0.000 A 
ATOM      5  C   UNL     1      16.990  10.565  33.186  0.00  0.00    +0.000 A 
ATOM      6  C   UNL     1      16.185  11.329  32.367  0.00  0.00    +0.000 A 
ATOM      7  C   UNL     1      15.194  12.101  32.940  0.00  0.00    +0.000 A 
ATOM      8 CL   UNL     1      14.200  13.054  31.858  0.00  0.00    +0.000 Cl
ATOM      9  C   UNL     1      15.002  12.112  34.313  0.00  0.00    +0.000 A 
ATOM     10  C   UNL     1      15.835  11.330  35.085  0.00  0.00    +0.000 A 
ATOM     11  O   UNL     1      15.702  11.290  36.486  0.00  0.00    +0.000 OA
ENDBRANCH   2   4
BRANCH   1  12
ATOM     12  N   UNL     1      19.541   9.605  37.041  0.00  0.00    +0.000 NA
BRANCH  12  14
ATOM     13  C   UNL     1      21.850  10.023  36.891  0.00  0.00    +0.000 C 
ATOM     14  C   UNL     1      20.710  10.254  37.509  0.00  0.00    +0.000 C 
BRANCH  14  15
ATOM     15  C   UNL     1      20.613  11.164  38.667  0.00  0.00    +0.000 C 
BRANCH  15  16
ATOM     16  C   UNL     1      20.886  12.605  38.277  0.00  0.00    +0.000 C 
ATOM     17  C   UNL     1      21.714  13.261  39.393  0.00  0.00    +0.000 C 
ATOM     18  C   UNL     1      19.557  13.363  38.161  0.00  0.00    +0.000 C 
ENDBRANCH  15  16
ENDBRANCH  14  15
ENDBRANCH  12  14
ENDBRANCH   1  12
TORSDOF 5
ENDMDL
MODEL 5
REMARK VINA RESULT:      -5.8      4.230      6.413
REMARK  Name = 
REMARK  5 active torsions:
REMARK  status: ('A' for Active; 'I' for Inactive)
REMARK    1  A    between atoms: C_2  and  C_3
REMARK    2  A    between atoms: C_2  and  N_7
REMARK    3  A    between atoms: C_3  and  C_4
REMARK    4  A    between atoms: N_7  and  N_8
REMARK    5  A    between atoms: C_9  and  C_11
REMARK                            x       y       z     vdW  Elec       q    Type
REMARK                         _______ _______ _______ _____ _____    ______ ____
ROOT
ATOM      1  N   UNL     1      18.787  10.601  36.819  0.00  0.00    +0.000 NA
ATOM      2  C   UNL     1      17.612  10.072  36.257  0.00  0.00    +0.000 C 
ATOM      3  O   UNL     1      17.638   8.930  35.745  0.00  0.00    +0.000 OA
ENDROOT
BRANCH   2   4
ATOM      4  C   UNL     1      16.378  10.840  36.272  0.00  0.00    +0.000 A 
ATOM      5  C   UNL     1      15.575  10.900  37.401  0.00  0.00    +0.000 A 
ATOM      6  C   UNL     1      14.400  11.623  37.436  0.00  0.00    +0.000 A 
ATOM      7  C   UNL     1      14.009  12.312  36.305  0.00  0.00    +0.000 A 
ATOM      8 CL   UNL     1      12.511  13.213  36.400  0.00  0.00    +0.000 Cl
ATOM      9  C   UNL     1      14.776  12.285  35.151  0.00  0.00    +0.000 A 
ATOM     10  C   UNL     1      15.941  11.546  35.171  0.00  0.00    +0.000 A 
ATOM     11  O   UNL     1      16.773  11.470  34.037  0.00  0.00    +0.000 OA
ENDBRANCH   2   4
BRANCH   1  12
ATOM     12  N   UNL     1      20.002   9.913  36.836  0.00  0.00    +0.000 NA
BRANCH  12  14
ATOM     13  C   UNL     1      20.212  10.373  39.133  0.00  0.00    +0.000 C 
ATOM     14  C   UNL     1      20.790   9.999  38.010  0.00  0.00    +0.000 C 
BRANCH  14  15
ATOM     15  C   UNL     1      22.227   9.669  37.938  0.00  0.00    +0.000 C 
BRANCH  15  16
ATOM     16  C   UNL     1      22.915  10.390  36.793  0.00  0.00    +0.000 C 
ATOM     17  C   UNL     1      23.822   9.387  36.063  0.00  0.00    +0.000 C 
ATOM     18  C   UNL     1      23.799  11.512  37.353  0.00  0.00    +0.000 C 
ENDBRANCH  15  16
ENDBRANCH  14  15
ENDBRANCH  12  14
ENDBRANCH   1  12
TORSDOF 5
ENDMDL
MODEL 6
REMARK VINA RESULT:      -5.6     21.908     23.474
REMARK  Name = 
REMARK  5 active torsions:
REMARK  status: ('A' for Active; 'I' for Inactive)
REMARK    1  A    between atoms: C_2  and  C_3
REMARK    2  A    between atoms: C_2  and  N_7
REMARK    3  A    between atoms: C_3  and  C_4
REMARK    4  A    between atoms: N_7  and  N_8
REMARK    5  A    between atoms: C_9  and  C_11
REMARK                            x       y       z     vdW  Elec       q    Type
REMARK                         _______ _______ _______ _____ _____    ______ ____
ROOT
ATOM      1  N   UNL     1      34.519  -3.214  34.989  0.00  0.00    +0.000 NA
ATOM      2  C   UNL     1      33.394  -2.594  34.419  0.00  0.00    +0.000 C 
ATOM      3  O   UNL     1      32.344  -3.256  34.259  0.00  0.00    +0.000 OA
ENDROOT
BRANCH   2   4
ATOM      4  C   UNL     1      33.447  -1.196  34.022  0.00  0.00    +0.000 A 
ATOM      5  C   UNL     1      34.160  -0.786  32.905  0.00  0.00    +0.000 A 
ATOM      6  C   UNL     1      34.223   0.534  32.511  0.00  0.00    +0.000 A 
ATOM      7  C   UNL     1      33.553   1.483  33.256  0.00  0.00    +0.000 A 
ATOM      8 CL   UNL     1      33.665   3.146  32.715  0.00  0.00    +0.000 Cl
ATOM      9  C   UNL     1      32.826   1.126  34.381  0.00  0.00    +0.000 A 
ATOM     10  C   UNL     1      32.797  -0.208  34.729  0.00  0.00    +0.000 A 
ATOM     11  O   UNL     1      32.080  -0.648  35.859  0.00  0.00    +0.000 OA
ENDBRANCH   2   4
BRANCH   1  12
ATOM     12  N   UNL     1      34.532  -4.551  35.391  0.00  0.00    +0.000 NA
BRANCH  12  14
ATOM     13  C   UNL     1      36.389  -5.837  34.739  0.00  0.00    +0.000 C 
ATOM     14  C   UNL     1      35.136  -5.494  34.523  0.00  0.00    +0.000 C 
BRANCH  14  15
ATOM     15  C   UNL     1      34.346  -6.058  33.411  0.00  0.00    +0.000 C 
BRANCH  15  16
ATOM     16  C   UNL     1      34.714  -5.428  32.081  0.00  0.00    +0.000 C 
ATOM     17  C   UNL     1      33.423  -4.964  31.389  0.00  0.00    +0.000 C 
ATOM     18  C   UNL     1      35.384  -6.479  31.185  0.00  0.00    +0.000 C 
ENDBRANCH  15  16
ENDBRANCH  14  15
ENDBRANCH  12  14
ENDBRANCH   1  12
TORSDOF 5
ENDMDL
MODEL 7
REMARK VINA RESULT:      -5.5      3.659      6.663
REMARK  Name = 
REMARK  5 active torsions:
REMARK  status: ('A' for Active; 'I' for Inactive)
REMARK    1  A    between atoms: C_2  and  C_3
REMARK    2  A    between atoms: C_2  and  N_7
REMARK    3  A    between atoms: C_3  and  C_4
REMARK    4  A    between atoms: N_7  and  N_8
REMARK    5  A    between atoms: C_9  and  C_11
REMARK                            x       y       z     vdW  Elec       q    Type
REMARK                         _______ _______ _______ _____ _____    ______ ____
ROOT
ATOM      1  N   UNL     1      18.815  10.716  37.213  0.00  0.00    +0.000 NA
ATOM      2  C   UNL     1      17.686  10.161  36.588  0.00  0.00    +0.000 C 
ATOM      3  O   UNL     1      17.759   9.013  36.095  0.00  0.00    +0.000 OA
ENDROOT
BRANCH   2   4
ATOM      4  C   UNL     1      16.442  10.911  36.515  0.00  0.00    +0.000 A 
ATOM      5  C   UNL     1      15.545  10.933  37.572  0.00  0.00    +0.000 A 
ATOM      6  C   UNL     1      14.360  11.638  37.523  0.00  0.00    +0.000 A 
ATOM      7  C   UNL     1      14.055  12.347  36.379  0.00  0.00    +0.000 A 
ATOM      8 CL   UNL     1      12.539  13.225  36.366  0.00  0.00    +0.000 Cl
ATOM      9  C   UNL     1      14.918  12.359  35.294  0.00  0.00    +0.000 A 
ATOM     10  C   UNL     1      16.088  11.637  35.397  0.00  0.00    +0.000 A 
ATOM     11  O   UNL     1      17.014  11.600  34.336  0.00  0.00    +0.000 OA
ENDBRANCH   2   4
BRANCH   1  12
ATOM     12  N   UNL     1      20.036  10.047  37.316  0.00  0.00    +0.000 NA
BRANCH  12  14
ATOM     13  C   UNL     1      21.829   9.561  38.757  0.00  0.00    +0.000 C 
ATOM     14  C   UNL     1      20.541   9.793  38.615  0.00  0.00    +0.000 C 
BRANCH  14  15
ATOM     15  C   UNL     1      19.611   9.796  39.761  0.00  0.00    +0.000 C 
BRANCH  15  16
ATOM     16  C   UNL     1      18.727   8.562  39.774  0.00  0.00    +0.000 C 
ATOM     17  C   UNL     1      17.320   8.978  40.231  0.00  0.00    +0.000 C 
ATOM     18  C   UNL     1      19.277   7.549  40.787  0.00  0.00    +0.000 C 
ENDBRANCH  15  16
ENDBRANCH  14  15
ENDBRANCH  12  14
ENDBRANCH   1  12
TORSDOF 5
ENDMDL
MODEL 8
REMARK VINA RESULT:      -5.5     20.204     23.574
REMARK  Name = 
REMARK  5 active torsions:
REMARK  status: ('A' for Active; 'I' for Inactive)
REMARK    1  A    between atoms: C_2  and  C_3
REMARK    2  A    between atoms: C_2  and  N_7
REMARK    3  A    between atoms: C_3  and  C_4
REMARK    4  A    between atoms: N_7  and  N_8
REMARK    5  A    between atoms: C_9  and  C_11
REMARK                            x       y       z     vdW  Elec       q    Type
REMARK                         _______ _______ _______ _____ _____    ______ ____
ROOT
ATOM      1  N   UNL     1      27.901  24.317  23.644  0.00  0.00    +0.000 NA
ATOM      2  C   UNL     1      27.465  24.521  22.323  0.00  0.00    +0.000 C 
ATOM      3  O   UNL     1      26.636  23.729  21.822  0.00  0.00    +0.000 OA
ENDROOT
BRANCH   2   4
ATOM      4  C   UNL     1      27.970  25.642  21.547  0.00  0.00    +0.000 A 
ATOM      5  C   UNL     1      27.300  26.856  21.506  0.00  0.00    +0.000 A 
ATOM      6  C   UNL     1      27.762  27.931  20.776  0.00  0.00    +0.000 A 
ATOM      7  C   UNL     1      28.933  27.795  20.058  0.00  0.00    +0.000 A 
ATOM      8 CL   UNL     1      29.476  29.189  19.147  0.00  0.00    +0.000 Cl
ATOM      9  C   UNL     1      29.641  26.604  20.066  0.00  0.00    +0.000 A 
ATOM     10  C   UNL     1      29.134  25.560  20.813  0.00  0.00    +0.000 A 
ATOM     11  O   UNL     1      29.796  24.319  20.869  0.00  0.00    +0.000 OA
ENDBRANCH   2   4
BRANCH   1  12
ATOM     12  N   UNL     1      27.455  23.261  24.440  0.00  0.00    +0.000 NA
BRANCH  12  14
ATOM     13  C   UNL     1      26.587  23.296  26.625  0.00  0.00    +0.000 C 
ATOM     14  C   UNL     1      27.642  23.367  25.841  0.00  0.00    +0.000 C 
BRANCH  14  15
ATOM     15  C   UNL     1      29.006  23.553  26.372  0.00  0.00    +0.000 C 
BRANCH  15  16
ATOM     16  C   UNL     1      29.888  22.350  26.096  0.00  0.00    +0.000 C 
ATOM     17  C   UNL     1      30.682  22.028  27.372  0.00  0.00    +0.000 C 
ATOM     18  C   UNL     1      30.891  22.693  24.986  0.00  0.00    +0.000 C 
ENDBRANCH  15  16
ENDBRANCH  14  15
ENDBRANCH  12  14
ENDBRANCH   1  12
TORSDOF 5
ENDMDL
MODEL 9
REMARK VINA RESULT:      -5.5     20.240     23.054
REMARK  Name = 
REMARK  5 active torsions:
REMARK  status: ('A' for Active; 'I' for Inactive)
REMARK    1  A    between atoms: C_2  and  C_3
REMARK    2  A    between atoms: C_2  and  N_7
REMARK    3  A    between atoms: C_3  and  C_4
REMARK    4  A    between atoms: N_7  and  N_8
REMARK    5  A    between atoms: C_9  and  C_11
REMARK                            x       y       z     vdW  Elec       q    Type
REMARK                         _______ _______ _______ _____ _____    ______ ____
ROOT
ATOM      1  N   UNL     1      29.688  24.520  22.075  0.00  0.00    +0.000 NA
ATOM      2  C   UNL     1      28.773  23.608  22.626  0.00  0.00    +0.000 C 
ATOM      3  O   UNL     1      27.930  23.059  21.882  0.00  0.00    +0.000 OA
ENDROOT
BRANCH   2   4
ATOM      4  C   UNL     1      28.805  23.302  24.048  0.00  0.00    +0.000 A 
ATOM      5  C   UNL     1      29.900  22.681  24.631  0.00  0.00    +0.000 A 
ATOM      6  C   UNL     1      29.949  22.382  25.977  0.00  0.00    +0.000 A 
ATOM      7  C   UNL     1      28.870  22.710  26.772  0.00  0.00    +0.000 A 
ATOM      8 CL   UNL     1      28.983  22.308  28.473  0.00  0.00    +0.000 Cl
ATOM      9  C   UNL     1      27.752  23.331  26.238  0.00  0.00    +0.000 A 
ATOM     10  C   UNL     1      27.755  23.607  24.887  0.00  0.00    +0.000 A 
ATOM     11  O   UNL     1      26.655  24.236  24.272  0.00  0.00    +0.000 OA
ENDBRANCH   2   4
BRANCH   1  12
ATOM     12  N   UNL     1      29.709  24.856  20.720  0.00  0.00    +0.000 NA
BRANCH  12  14
ATOM     13  C   UNL     1      29.078  27.045  21.302  0.00  0.00    +0.000 C 
ATOM     14  C   UNL     1      29.514  26.217  20.376  0.00  0.00    +0.000 C 
BRANCH  14  15
ATOM     15  C   UNL     1      29.805  26.659  18.998  0.00  0.00    +0.000 C 
BRANCH  15  16
ATOM     16  C   UNL     1      30.486  28.015  18.973  0.00  0.00    +0.000 C 
ATOM     17  C   UNL     1      29.526  29.027  18.327  0.00  0.00    +0.000 C 
ATOM     18  C   UNL     1      31.749  27.937  18.105  0.00  0.00    +0.000 C 
ENDBRANCH  15  16
ENDBRANCH  14  15
ENDBRANCH  12  14
ENDBRANCH   1  12
TORSDOF 5
ENDMDL
MODEL 10
REMARK VINA RESULT:      -5.4     20.020     22.998
REMARK  Name = 
REMARK  5 active torsions:
REMARK  status: ('A' for Active; 'I' for Inactive)
REMARK    1  A    between atoms: C_2  and  C_3
REMARK    2  A    between atoms: C_2  and  N_7
REMARK    3  A    between atoms: C_3  and  C_4
REMARK    4  A    between atoms: N_7  and  N_8
REMARK    5  A    between atoms: C_9  and  C_11
REMARK                            x       y       z     vdW  Elec       q    Type
REMARK                         _______ _______ _______ _____ _____    ______ ____
ROOT
ATOM      1  N   UNL     1      28.321  23.977  23.977  0.00  0.00    +0.000 NA
ATOM      2  C   UNL     1      27.793  24.232  22.699  0.00  0.00    +0.000 C 
ATOM      3  O   UNL     1      27.020  23.398  22.177  0.00  0.00    +0.000 OA
ENDROOT
BRANCH   2   4
ATOM      4  C   UNL     1      28.139  25.454  21.991  0.00  0.00    +0.000 A 
ATOM      5  C   UNL     1      27.478  26.649  22.240  0.00  0.00    +0.000 A 
ATOM      6  C   UNL     1      27.791  27.818  21.579  0.00  0.00    +0.000 A 
ATOM      7  C   UNL     1      28.797  27.800  20.634  0.00  0.00    +0.000 A 
ATOM      8 CL   UNL     1      29.154  29.311  19.823  0.00  0.00    +0.000 Cl
ATOM      9  C   UNL     1      29.487  26.633  20.348  0.00  0.00    +0.000 A 
ATOM     10  C   UNL     1      29.134  25.493  21.038  0.00  0.00    +0.000 A 
ATOM     11  O   UNL     1      29.789  24.269  20.801  0.00  0.00    +0.000 OA
ENDBRANCH   2   4
BRANCH   1  12
ATOM     12  N   UNL     1      28.028  22.824  24.707  0.00  0.00    +0.000 NA
BRANCH  12  14
ATOM     13  C   UNL     1      27.806  22.685  27.044  0.00  0.00    +0.000 C 
ATOM     14  C   UNL     1      27.251  22.970  25.884  0.00  0.00    +0.000 C 
BRANCH  14  15
ATOM     15  C   UNL     1      25.855  23.432  25.771  0.00  0.00    +0.000 C 
BRANCH  15  16
ATOM     16  C   UNL     1      25.708  24.888  26.175  0.00  0.00    +0.000 C 
ATOM     17  C   UNL     1      24.731  24.967  27.358  0.00  0.00    +0.000 C 
ATOM     18  C   UNL     1      25.109  25.684  25.007  0.00  0.00    +0.000 C 
ENDBRANCH  15  16
ENDBRANCH  14  15
ENDBRANCH  12  14
ENDBRANCH   1  12
TORSDOF 5
ENDMDL
