MODEL 1
REMARK VINA RESULT:      -5.5      0.000      0.000
REMARK  Name = 
REMARK  6 active torsions:
REMARK  status: ('A' for Active; 'I' for Inactive)
REMARK    1  A    between atoms: C_2  and  C_3
REMARK    2  A    between atoms: C_3  and  O_4
REMARK    3  A    between atoms: O_4  and  C_5
REMARK    4  A    between atoms: N_7  and  C_8
REMARK    5  A    between atoms: C_9  and  C_10
REMARK    6  A    between atoms: C_10  and  O_12
REMARK                            x       y       z     vdW  Elec       q    Type
REMARK                         _______ _______ _______ _____ _____    ______ ____
ROOT
ATOM      1  C   UNL     1      17.405  10.310  37.140  0.00  0.00    +0.000 A 
ATOM      2  C   UNL     1      18.082  10.070  35.935  0.00  0.00    +0.000 A 
ATOM      3  N   UNL     1      19.336   9.735  36.255  0.00  0.00    +0.000 NA
ATOM      4  C   UNL     1      19.509   9.744  37.586  0.00  0.00    +0.000 A 
ATOM      5  C   UNL     1      20.583   9.478  38.386  0.00  0.00    +0.000 A 
ATOM      6  C   UNL     1      20.535   9.551  39.762  0.00  0.00    +0.000 A 
ATOM      7  C   UNL     1      19.321   9.914  40.330  0.00  0.00    +0.000 A 
ATOM      8  C   UNL     1      18.252  10.176  39.512  0.00  0.00    +0.000 A 
ATOM      9  C   UNL     1      18.308  10.102  38.144  0.00  0.00    +0.000 A 
ENDROOT
BRANCH   1  12
ATOM     10  C   UNL     1      15.587  12.007  37.108  0.00  0.00    +0.000 C 
ATOM     11  O   UNL     1      16.330  13.014  37.082  0.00  0.00    +0.000 OA
ATOM     12  N   UNL     1      16.058  10.686  37.137  0.00  0.00    +0.000 NA
BRANCH  10  13
ATOM     13  O   UNL     1      14.204  12.299  37.108  0.00  0.00    +0.000 OA
BRANCH  13  14
ATOM     14  C   UNL     1      13.272  11.396  37.661  0.00  0.00    +0.000 C 
BRANCH  14  16
ATOM     15  C   UNL     1      10.891  11.079  37.596  0.00  0.00    +0.000 C 
ATOM     16  C   UNL     1      11.955  11.629  37.019  0.00  0.00    +0.000 C 
ENDBRANCH  14  16
ENDBRANCH  13  14
ENDBRANCH  10  13
ENDBRANCH   1  12
BRANCH   2  17
ATOM     17  C   UNL     1      17.523  10.168  34.579  0.00  0.00    +0.000 C 
ATOM     18  O   UNL     1      17.337   9.125  33.907  0.00  0.00    +0.000 OA
BRANCH  17  19
ATOM     19  O   UNL     1      17.207  11.412  34.055  0.00  0.00    +0.000 OA
ATOM     20  C   UNL     1      16.281  11.582  33.001  0.00  0.00    +0.000 C 
ENDBRANCH  17  19
ENDBRANCH   2  17
TORSDOF 6
ENDMDL
MODEL 2
REMARK VINA RESULT:      -5.5     19.753     20.942
REMARK  Name = 
REMARK  6 active torsions:
REMARK  status: ('A' for Active; 'I' for Inactive)
REMARK    1  A    between atoms: C_2  and  C_3
REMARK    2  A    between atoms: C_3  and  O_4
REMARK    3  A    between atoms: O_4  and  C_5
REMARK    4  A    between atoms: N_7  and  C_8
REMARK    5  A    between atoms: C_9  and  C_10
REMARK    6  A    between atoms: C_10  and  O_12
REMARK                            x       y       z     vdW  Elec       q    Type
REMARK                         _______ _______ _______ _____ _____    ______ ____
ROOT
ATOM      1  C   UNL     1      26.991  23.637  24.484  0.00  0.00    +0.000 A 
ATOM      2  C   UNL     1      27.570  23.607  23.206  0.00  0.00    +0.000 A 
ATOM      3  N   UNL     1      28.805  23.117  23.353  0.00  0.00    +0.000 NA
ATOM      4  C   UNL     1      29.057  22.830  24.639  0.00  0.00    +0.000 A 
ATOM      5  C   UNL     1      30.149  22.319  25.282  0.00  0.00    +0.000 A 
ATOM      6  C   UNL     1      30.189  22.101  26.643  0.00  0.00    +0.000 A 
ATOM      7  C   UNL     1      29.049  22.427  27.366  0.00  0.00    +0.000 A 
ATOM      8  C   UNL     1      27.962  22.937  26.704  0.00  0.00    +0.000 A 
ATOM      9  C   UNL     1      27.929  23.152  25.350  0.00  0.00    +0.000 A 
ENDROOT
BRANCH   1  12
ATOM     10  C   UNL     1      25.339  25.425  24.994  0.00  0.00    +0.000 C 
ATOM     11  O   UNL     1      26.171  26.343  25.171  0.00  0.00    +0.000 OA
ATOM     12  N   UNL     1      25.686  24.106  24.662  0.00  0.00    +0.000 NA
BRANCH  10  13
ATOM     13  O   UNL     1      23.991  25.816  25.157  0.00  0.00    +0.000 OA
BRANCH  13  14
ATOM     14  C   UNL     1      23.545  26.399  26.362  0.00  0.00    +0.000 C 
BRANCH  14  16
ATOM     15  C   UNL     1      21.351  26.782  25.460  0.00  0.00    +0.000 C 
ATOM     16  C   UNL     1      22.417  27.311  26.053  0.00  0.00    +0.000 C 
ENDBRANCH  14  16
ENDBRANCH  13  14
ENDBRANCH  10  13
ENDBRANCH   1  12
BRANCH   2  17
ATOM     17  C   UNL     1      26.944  24.033  21.947  0.00  0.00    +0.000 C 
ATOM     18  O   UNL     1      26.006  23.357  21.460  0.00  0.00    +0.000 OA
BRANCH  17  19
ATOM     19  O   UNL     1      27.395  25.178  21.309  0.00  0.00    +0.000 OA
ATOM     20  C   UNL     1      27.616  26.395  21.993  0.00  0.00    +0.000 C 
ENDBRANCH  17  19
ENDBRANCH   2  17
TORSDOF 6
ENDMDL
MODEL 3
REMARK VINA RESULT:      -5.5     17.407     19.581
REMARK  Name = 
REMARK  6 active torsions:
REMARK  status: ('A' for Active; 'I' for Inactive)
REMARK    1  A    between atoms: C_2  and  C_3
REMARK    2  A    between atoms: C_3  and  O_4
REMARK    3  A    between atoms: O_4  and  C_5
REMARK    4  A    between atoms: N_7  and  C_8
REMARK    5  A    between atoms: C_9  and  C_10
REMARK    6  A    between atoms: C_10  and  O_12
REMARK                            x       y       z     vdW  Elec       q    Type
REMARK                         _______ _______ _______ _____ _____    ______ ____
ROOT
ATOM      1  C   UNL     1      28.423  22.575  28.987  0.00  0.00    +0.000 A 
ATOM      2  C   UNL     1      27.051  22.863  29.055  0.00  0.00    +0.000 A 
ATOM      3  N   UNL     1      26.639  23.080  27.802  0.00  0.00    +0.000 NA
ATOM      4  C   UNL     1      27.655  22.949  26.934  0.00  0.00    +0.000 A 
ATOM      5  C   UNL     1      27.739  23.067  25.576  0.00  0.00    +0.000 A 
ATOM      6  C   UNL     1      28.913  22.885  24.875  0.00  0.00    +0.000 A 
ATOM      7  C   UNL     1      30.044  22.568  25.614  0.00  0.00    +0.000 A 
ATOM      8  C   UNL     1      29.941  22.452  26.977  0.00  0.00    +0.000 A 
ATOM      9  C   UNL     1      28.770  22.634  27.668  0.00  0.00    +0.000 A 
ENDROOT
BRANCH   1  12
ATOM     10  C   UNL     1      30.103  23.154  30.727  0.00  0.00    +0.000 C 
ATOM     11  O   UNL     1      30.415  24.273  30.259  0.00  0.00    +0.000 OA
ATOM     12  N   UNL     1      29.150  22.302  30.150  0.00  0.00    +0.000 NA
BRANCH  10  13
ATOM     13  O   UNL     1      30.796  22.799  31.907  0.00  0.00    +0.000 OA
BRANCH  13  14
ATOM     14  C   UNL     1      31.261  21.481  32.106  0.00  0.00    +0.000 C 
BRANCH  14  16
ATOM     15  C   UNL     1      33.552  20.985  31.581  0.00  0.00    +0.000 C 
ATOM     16  C   UNL     1      32.327  21.205  31.113  0.00  0.00    +0.000 C 
ENDBRANCH  14  16
ENDBRANCH  13  14
ENDBRANCH  10  13
ENDBRANCH   1  12
BRANCH   2  17
ATOM     17  C   UNL     1      26.224  22.919  30.268  0.00  0.00    +0.000 C 
ATOM     18  O   UNL     1      25.857  21.853  30.819  0.00  0.00    +0.000 OA
BRANCH  17  19
ATOM     19  O   UNL     1      25.856  24.149  30.792  0.00  0.00    +0.000 OA
ATOM     20  C   UNL     1      26.735  24.941  31.566  0.00  0.00    +0.000 C 
ENDBRANCH  17  19
ENDBRANCH   2  17
TORSDOF 6
ENDMDL
MODEL 4
REMARK VINA RESULT:      -5.5     17.498     19.278
REMARK  Name = 
REMARK  6 active torsions:
REMARK  status: ('A' for Active; 'I' for Inactive)
REMARK    1  A    between atoms: C_2  and  C_3
REMARK    2  A    between atoms: C_3  and  O_4
REMARK    3  A    between atoms: O_4  and  C_5
REMARK    4  A    between atoms: N_7  and  C_8
REMARK    5  A    between atoms: C_9  and  C_10
REMARK    6  A    between atoms: C_10  and  O_12
REMARK                            x       y       z     vdW  Elec       q    Type
REMARK                         _______ _______ _______ _____ _____    ______ ____
ROOT
ATOM      1  C   UNL     1      28.162  22.696  28.624  0.00  0.00    +0.000 A 
ATOM      2  C   UNL     1      27.773  22.626  29.970  0.00  0.00    +0.000 A 
ATOM      3  N   UNL     1      28.895  22.594  30.696  0.00  0.00    +0.000 NA
ATOM      4  C   UNL     1      29.979  22.639  29.906  0.00  0.00    +0.000 A 
ATOM      5  C   UNL     1      31.320  22.634  30.164  0.00  0.00    +0.000 A 
ATOM      6  C   UNL     1      32.279  22.688  29.174  0.00  0.00    +0.000 A 
ATOM      7  C   UNL     1      31.826  22.752  27.863  0.00  0.00    +0.000 A 
ATOM      8  C   UNL     1      30.476  22.758  27.622  0.00  0.00    +0.000 A 
ATOM      9  C   UNL     1      29.528  22.703  28.611  0.00  0.00    +0.000 A 
ENDROOT
BRANCH   1  12
ATOM     10  C   UNL     1      26.705  23.914  27.018  0.00  0.00    +0.000 C 
ATOM     11  O   UNL     1      27.069  25.068  27.340  0.00  0.00    +0.000 OA
ATOM     12  N   UNL     1      27.203  22.742  27.608  0.00  0.00    +0.000 NA
BRANCH  10  13
ATOM     13  O   UNL     1      25.731  23.871  25.995  0.00  0.00    +0.000 OA
BRANCH  13  14
ATOM     14  C   UNL     1      25.853  22.970  24.915  0.00  0.00    +0.000 C 
BRANCH  14  16
ATOM     15  C   UNL     1      26.800  24.549  23.371  0.00  0.00    +0.000 C 
ATOM     16  C   UNL     1      26.972  23.421  24.052  0.00  0.00    +0.000 C 
ENDBRANCH  14  16
ENDBRANCH  13  14
ENDBRANCH  10  13
ENDBRANCH   1  12
BRANCH   2  17
ATOM     17  C   UNL     1      26.398  22.593  30.487  0.00  0.00    +0.000 C 
ATOM     18  O   UNL     1      25.900  21.504  30.860  0.00  0.00    +0.000 OA
BRANCH  17  19
ATOM     19  O   UNL     1      25.663  23.767  30.557  0.00  0.00    +0.000 OA
ATOM     20  C   UNL     1      26.215  24.985  31.014  0.00  0.00    +0.000 C 
ENDBRANCH  17  19
ENDBRANCH   2  17
TORSDOF 6
ENDMDL
MODEL 5
REMARK VINA RESULT:      -5.4     17.295     19.145
REMARK  Name = 
REMARK  6 active torsions:
REMARK  status: ('A' for Active; 'I' for Inactive)
REMARK    1  A    between atoms: C_2  and  C_3
REMARK    2  A    between atoms: C_3  and  O_4
REMARK    3  A    between atoms: O_4  and  C_5
REMARK    4  A    between atoms: N_7  and  C_8
REMARK    5  A    between atoms: C_9  and  C_10
REMARK    6  A    between atoms: C_10  and  O_12
REMARK                            x       y       z     vdW  Elec       q    Type
REMARK                         _______ _______ _______ _____ _____    ______ ____
ROOT
ATOM      1  C   UNL     1      26.738  23.401  27.417  0.00  0.00    +0.000 A 
ATOM      2  C   UNL     1      27.047  23.035  28.736  0.00  0.00    +0.000 A 
ATOM      3  N   UNL     1      28.289  22.539  28.719  0.00  0.00    +0.000 NA
ATOM      4  C   UNL     1      28.797  22.564  27.477  0.00  0.00    +0.000 A 
ATOM      5  C   UNL     1      29.999  22.178  26.956  0.00  0.00    +0.000 A 
ATOM      6  C   UNL     1      30.315  22.297  25.619  0.00  0.00    +0.000 A 
ATOM      7  C   UNL     1      29.342  22.838  24.789  0.00  0.00    +0.000 A 
ATOM      8  C   UNL     1      28.141  23.222  25.329  0.00  0.00    +0.000 A 
ATOM      9  C   UNL     1      27.834  23.100  26.660  0.00  0.00    +0.000 A 
ENDROOT
BRANCH   1  12
ATOM     10  C   UNL     1      25.263  25.307  26.801  0.00  0.00    +0.000 C 
ATOM     11  O   UNL     1      26.161  26.179  26.769  0.00  0.00    +0.000 OA
ATOM     12  N   UNL     1      25.493  23.956  27.107  0.00  0.00    +0.000 NA
BRANCH  10  13
ATOM     13  O   UNL     1      23.968  25.787  26.499  0.00  0.00    +0.000 OA
BRANCH  13  14
ATOM     14  C   UNL     1      23.087  26.189  27.525  0.00  0.00    +0.000 C 
BRANCH  14  16
ATOM     15  C   UNL     1      20.704  26.188  27.831  0.00  0.00    +0.000 C 
ATOM     16  C   UNL     1      21.713  26.243  26.968  0.00  0.00    +0.000 C 
ENDBRANCH  14  16
ENDBRANCH  13  14
ENDBRANCH  10  13
ENDBRANCH   1  12
BRANCH   2  17
ATOM     17  C   UNL     1      26.176  23.168  29.912  0.00  0.00    +0.000 C 
ATOM     18  O   UNL     1      25.964  22.171  30.645  0.00  0.00    +0.000 OA
BRANCH  17  19
ATOM     19  O   UNL     1      25.597  24.394  30.202  0.00  0.00    +0.000 OA
ATOM     20  C   UNL     1      26.047  25.218  31.259  0.00  0.00    +0.000 C 
ENDBRANCH  17  19
ENDBRANCH   2  17
TORSDOF 6
ENDMDL
MODEL 6
REMARK VINA RESULT:      -5.4      2.618      4.462
REMARK  Name = 
REMARK  6 active torsions:
REMARK  status: ('A' for Active; 'I' for Inactive)
REMARK    1  A    between atoms: C_2  and  C_3
REMARK    2  A    between atoms: C_3  and  O_4
REMARK    3  A    between atoms: O_4  and  C_5
REMARK    4  A    between atoms: N_7  and  C_8
REMARK    5  A    between atoms: C_9  and  C_10
REMARK    6  A    between atoms: C_10  and  O_12
REMARK                            x       y       z     vdW  Elec       q    Type
REMARK                         _______ _______ _______ _____ _____    ______ ____
ROOT
ATOM      1  C   UNL     1      18.201  10.451  38.458  0.00  0.00    +0.000 A 
ATOM      2  C   UNL     1      19.579  10.312  38.684  0.00  0.00    +0.000 A 
ATOM      3  N   UNL     1      19.719   9.723  39.876  0.00  0.00    +0.000 NA
ATOM      4  C   UNL     1      18.523   9.474  40.430  0.00  0.00    +0.000 A 
ATOM      5  C   UNL     1      18.146   8.900  41.611  0.00  0.00    +0.000 A 
ATOM      6  C   UNL     1      16.828   8.742  41.986  0.00  0.00    +0.000 A 
ATOM      7  C   UNL     1      15.863   9.199  41.098  0.00  0.00    +0.000 A 
ATOM      8  C   UNL     1      16.259   9.772  39.917  0.00  0.00    +0.000 A 
ATOM      9  C   UNL     1      17.572   9.926  39.551  0.00  0.00    +0.000 A 
ENDROOT
BRANCH   1  12
ATOM     10  C   UNL     1      17.405  10.349  36.104  0.00  0.00    +0.000 C 
ATOM     11  O   UNL     1      17.503   9.107  35.973  0.00  0.00    +0.000 OA
ATOM     12  N   UNL     1      17.729  11.040  37.282  0.00  0.00    +0.000 NA
BRANCH  10  13
ATOM     13  O   UNL     1      16.934  11.024  34.956  0.00  0.00    +0.000 OA
BRANCH  13  14
ATOM     14  C   UNL     1      17.074  10.456  33.672  0.00  0.00    +0.000 C 
BRANCH  14  16
ATOM     15  C   UNL     1      16.015  10.651  31.524  0.00  0.00    +0.000 C 
ATOM     16  C   UNL     1      15.961  10.941  32.820  0.00  0.00    +0.000 C 
ENDBRANCH  14  16
ENDBRANCH  13  14
ENDBRANCH  10  13
ENDBRANCH   1  12
BRANCH   2  17
ATOM     17  C   UNL     1      20.664  10.733  37.785  0.00  0.00    +0.000 C 
ATOM     18  O   UNL     1      21.196  11.859  37.938  0.00  0.00    +0.000 OA
BRANCH  17  19
ATOM     19  O   UNL     1      21.089   9.881  36.777  0.00  0.00    +0.000 OA
ATOM     20  C   UNL     1      22.452   9.723  36.437  0.00  0.00    +0.000 C 
ENDBRANCH  17  19
ENDBRANCH   2  17
TORSDOF 6
ENDMDL
MODEL 7
REMARK VINA RESULT:      -5.3     20.649     22.891
REMARK  Name = 
REMARK  6 active torsions:
REMARK  status: ('A' for Active; 'I' for Inactive)
REMARK    1  A    between atoms: C_2  and  C_3
REMARK    2  A    between atoms: C_3  and  O_4
REMARK    3  A    between atoms: O_4  and  C_5
REMARK    4  A    between atoms: N_7  and  C_8
REMARK    5  A    between atoms: C_9  and  C_10
REMARK    6  A    between atoms: C_10  and  O_12
REMARK                            x       y       z     vdW  Elec       q    Type
REMARK                         _______ _______ _______ _____ _____    ______ ____
ROOT
ATOM      1  C   UNL     1      28.674  24.349  23.789  0.00  0.00    +0.000 A 
ATOM      2  C   UNL     1      27.555  23.546  24.058  0.00  0.00    +0.000 A 
ATOM      3  N   UNL     1      27.903  22.718  25.049  0.00  0.00    +0.000 NA
ATOM      4  C   UNL     1      29.170  22.937  25.434  0.00  0.00    +0.000 A 
ATOM      5  C   UNL     1      29.966  22.364  26.385  0.00  0.00    +0.000 A 
ATOM      6  C   UNL     1      31.268  22.756  26.614  0.00  0.00    +0.000 A 
ATOM      7  C   UNL     1      31.764  23.783  25.823  0.00  0.00    +0.000 A 
ATOM      8  C   UNL     1      30.951  24.347  24.874  0.00  0.00    +0.000 A 
ATOM      9  C   UNL     1      29.657  23.953  24.651  0.00  0.00    +0.000 A 
ENDROOT
BRANCH   1  12
ATOM     10  C   UNL     1      29.138  25.182  21.491  0.00  0.00    +0.000 C 
ATOM     11  O   UNL     1      29.708  24.147  21.076  0.00  0.00    +0.000 OA
ATOM     12  N   UNL     1      28.624  25.325  22.789  0.00  0.00    +0.000 NA
BRANCH  10  13
ATOM     13  O   UNL     1      29.046  26.223  20.540  0.00  0.00    +0.000 OA
BRANCH  13  14
ATOM     14  C   UNL     1      28.931  27.569  20.947  0.00  0.00    +0.000 C 
BRANCH  14  16
ATOM     15  C   UNL     1      26.619  28.223  20.947  0.00  0.00    +0.000 C 
ATOM     16  C   UNL     1      27.759  28.167  20.264  0.00  0.00    +0.000 C 
ENDBRANCH  14  16
ENDBRANCH  13  14
ENDBRANCH  10  13
ENDBRANCH   1  12
BRANCH   2  17
ATOM     17  C   UNL     1      26.251  23.600  23.383  0.00  0.00    +0.000 C 
ATOM     18  O   UNL     1      26.132  23.139  22.223  0.00  0.00    +0.000 OA
BRANCH  17  19
ATOM     19  O   UNL     1      25.164  24.161  24.036  0.00  0.00    +0.000 OA
ATOM     20  C   UNL     1      25.298  25.201  24.984  0.00  0.00    +0.000 C 
ENDBRANCH  17  19
ENDBRANCH   2  17
TORSDOF 6
ENDMDL
MODEL 8
REMARK VINA RESULT:      -5.3      2.855      6.754
REMARK  Name = 
REMARK  6 active torsions:
REMARK  status: ('A' for Active; 'I' for Inactive)
REMARK    1  A    between atoms: C_2  and  C_3
REMARK    2  A    between atoms: C_3  and  O_4
REMARK    3  A    between atoms: O_4  and  C_5
REMARK    4  A    between atoms: N_7  and  C_8
REMARK    5  A    between atoms: C_9  and  C_10
REMARK    6  A    between atoms: C_10  and  O_12
REMARK                            x       y       z     vdW  Elec       q    Type
REMARK                         _______ _______ _______ _____ _____    ______ ____
ROOT
ATOM      1  C   UNL     1      17.809  10.596  38.025  0.00  0.00    +0.000 A 
ATOM      2  C   UNL     1      17.279   9.884  39.112  0.00  0.00    +0.000 A 
ATOM      3  N   UNL     1      15.966  10.138  39.138  0.00  0.00    +0.000 NA
ATOM      4  C   UNL     1      15.619  10.965  38.139  0.00  0.00    +0.000 A 
ATOM      5  C   UNL     1      14.426  11.505  37.750  0.00  0.00    +0.000 A 
ATOM      6  C   UNL     1      14.298  12.350  36.668  0.00  0.00    +0.000 A 
ATOM      7  C   UNL     1      15.455  12.645  35.960  0.00  0.00    +0.000 A 
ATOM      8  C   UNL     1      16.644  12.093  36.363  0.00  0.00    +0.000 A 
ATOM      9  C   UNL     1      16.765  11.254  37.442  0.00  0.00    +0.000 A 
ENDROOT
BRANCH   1  12
ATOM     10  C   UNL     1      19.741   9.837  36.655  0.00  0.00    +0.000 C 
ATOM     11  O   UNL     1      19.077   9.183  35.819  0.00  0.00    +0.000 OA
ATOM     12  N   UNL     1      19.175  10.534  37.734  0.00  0.00    +0.000 NA
BRANCH  10  13
ATOM     13  O   UNL     1      21.137   9.825  36.433  0.00  0.00    +0.000 OA
BRANCH  13  14
ATOM     14  C   UNL     1      21.998  10.651  37.186  0.00  0.00    +0.000 C 
BRANCH  14  16
ATOM     15  C   UNL     1      23.738   9.391  36.110  0.00  0.00    +0.000 C 
ATOM     16  C   UNL     1      23.359  10.567  36.601  0.00  0.00    +0.000 C 
ENDBRANCH  14  16
ENDBRANCH  13  14
ENDBRANCH  10  13
ENDBRANCH   1  12
BRANCH   2  17
ATOM     17  C   UNL     1      18.020   9.025  40.046  0.00  0.00    +0.000 C 
ATOM     18  O   UNL     1      18.187   9.396  41.233  0.00  0.00    +0.000 OA
BRANCH  17  19
ATOM     19  O   UNL     1      18.527   7.812  39.607  0.00  0.00    +0.000 OA
ATOM     20  C   UNL     1      18.340   6.605  40.319  0.00  0.00    +0.000 C 
ENDBRANCH  17  19
ENDBRANCH   2  17
TORSDOF 6
ENDMDL
MODEL 9
REMARK VINA RESULT:      -5.3     19.905     21.589
REMARK  Name = 
REMARK  6 active torsions:
REMARK  status: ('A' for Active; 'I' for Inactive)
REMARK    1  A    between atoms: C_2  and  C_3
REMARK    2  A    between atoms: C_3  and  O_4
REMARK    3  A    between atoms: O_4  and  C_5
REMARK    4  A    between atoms: N_7  and  C_8
REMARK    5  A    between atoms: C_9  and  C_10
REMARK    6  A    between atoms: C_10  and  O_12
REMARK                            x       y       z     vdW  Elec       q    Type
REMARK                         _______ _______ _______ _____ _____    ______ ____
ROOT
ATOM      1  C   UNL     1      11.448  22.220  20.805  0.00  0.00    +0.000 A 
ATOM      2  C   UNL     1      10.570  23.305  20.660  0.00  0.00    +0.000 A 
ATOM      3  N   UNL     1       9.441  22.821  20.131  0.00  0.00    +0.000 NA
ATOM      4  C   UNL     1       9.537  21.498  19.927  0.00  0.00    +0.000 A 
ATOM      5  C   UNL     1       8.671  20.570  19.422  0.00  0.00    +0.000 A 
ATOM      6  C   UNL     1       8.986  19.232  19.301  0.00  0.00    +0.000 A 
ATOM      7  C   UNL     1      10.250  18.844  19.723  0.00  0.00    +0.000 A 
ATOM      8  C   UNL     1      11.106  19.788  20.229  0.00  0.00    +0.000 A 
ATOM      9  C   UNL     1      10.786  21.117  20.346  0.00  0.00    +0.000 A 
ENDROOT
BRANCH   1  12
ATOM     10  C   UNL     1      13.919  22.412  20.597  0.00  0.00    +0.000 C 
ATOM     11  O   UNL     1      13.972  22.248  19.357  0.00  0.00    +0.000 OA
ATOM     12  N   UNL     1      12.727  22.407  21.338  0.00  0.00    +0.000 NA
BRANCH  10  13
ATOM     13  O   UNL     1      15.174  22.608  21.217  0.00  0.00    +0.000 OA
BRANCH  13  14
ATOM     14  C   UNL     1      15.336  23.566  22.241  0.00  0.00    +0.000 C 
BRANCH  14  16
ATOM     15  C   UNL     1      14.555  25.838  22.232  0.00  0.00    +0.000 C 
ATOM     16  C   UNL     1      15.300  24.917  21.630  0.00  0.00    +0.000 C 
ENDBRANCH  14  16
ENDBRANCH  13  14
ENDBRANCH  10  13
ENDBRANCH   1  12
BRANCH   2  17
ATOM     17  C   UNL     1      10.836  24.705  21.019  0.00  0.00    +0.000 C 
ATOM     18  O   UNL     1      11.612  25.391  20.311  0.00  0.00    +0.000 OA
BRANCH  17  19
ATOM     19  O   UNL     1      10.227  25.255  22.136  0.00  0.00    +0.000 OA
ATOM     20  C   UNL     1      10.940  25.996  23.106  0.00  0.00    +0.000 C 
ENDBRANCH  17  19
ENDBRANCH   2  17
TORSDOF 6
ENDMDL
MODEL 10
REMARK VINA RESULT:      -5.2     17.131     19.345
REMARK  Name = 
REMARK  6 active torsions:
REMARK  status: ('A' for Active; 'I' for Inactive)
REMARK    1  A    between atoms: C_2  and  C_3
REMARK    2  A    between atoms: C_3  and  O_4
REMARK    3  A    between atoms: O_4  and  C_5
REMARK    4  A    between atoms: N_7  and  C_8
REMARK    5  A    between atoms: C_9  and  C_10
REMARK    6  A    between atoms: C_10  and  O_12
REMARK                            x       y       z     vdW  Elec       q    Type
REMARK                         _______ _______ _______ _____ _____    ______ ____
ROOT
ATOM      1  C   UNL     1      25.842  24.139  28.807  0.00  0.00    +0.000 A 
ATOM      2  C   UNL     1      26.039  23.609  30.092  0.00  0.00    +0.000 A 
ATOM      3  N   UNL     1      25.660  24.552  30.961  0.00  0.00    +0.000 NA
ATOM      4  C   UNL     1      25.233  25.651  30.320  0.00  0.00    +0.000 A 
ATOM      5  C   UNL     1      24.754  26.854  30.754  0.00  0.00    +0.000 A 
ATOM      6  C   UNL     1      24.364  27.864  29.899  0.00  0.00    +0.000 A 
ATOM      7  C   UNL     1      24.477  27.613  28.538  0.00  0.00    +0.000 A 
ATOM      8  C   UNL     1      24.959  26.399  28.120  0.00  0.00    +0.000 A 
ATOM      9  C   UNL     1      25.345  25.399  28.976  0.00  0.00    +0.000 A 
ENDROOT
BRANCH   1  12
ATOM     10  C   UNL     1      27.366  23.436  26.971  0.00  0.00    +0.000 C 
ATOM     11  O   UNL     1      28.324  24.177  27.288  0.00  0.00    +0.000 OA
ATOM     12  N   UNL     1      26.151  23.384  27.672  0.00  0.00    +0.000 NA
BRANCH  10  13
ATOM     13  O   UNL     1      27.596  22.637  25.829  0.00  0.00    +0.000 OA
BRANCH  13  14
ATOM     14  C   UNL     1      27.902  23.223  24.583  0.00  0.00    +0.000 C 
BRANCH  14  16
ATOM     15  C   UNL     1      25.679  23.251  23.671  0.00  0.00    +0.000 C 
ATOM     16  C   UNL     1      26.710  23.968  24.109  0.00  0.00    +0.000 C 
ENDBRANCH  14  16
ENDBRANCH  13  14
ENDBRANCH  10  13
ENDBRANCH   1  12
BRANCH   2  17
ATOM     17  C   UNL     1      26.561  22.276  30.422  0.00  0.00    +0.000 C 
ATOM     18  O   UNL     1      25.788  21.403  30.885  0.00  0.00    +0.000 OA
BRANCH  17  19
ATOM     19  O   UNL     1      27.903  21.995  30.220  0.00  0.00    +0.000 OA
ATOM     20  C   UNL     1      28.933  22.894  30.583  0.00  0.00    +0.000 C 
ENDBRANCH  17  19
ENDBRANCH   2  17
TORSDOF 6
ENDMDL
