MODEL 1
REMARK VINA RESULT:      -7.8      0.000      0.000
REMARK  Name = 
REMARK  5 active torsions:
REMARK  status: ('A' for Active; 'I' for Inactive)
REMARK    1  A    between atoms: C_16  and  C_17
REMARK    2  A    between atoms: C_20  and  O_21
REMARK    3  A    between atoms: O_21  and  C_22
REMARK    4  A    between atoms: C_22  and  C_23
REMARK    5  A    between atoms: C_23  and  N_24
REMARK                            x       y       z     vdW  Elec       q    Type
REMARK                         _______ _______ _______ _____ _____    ______ ____
ROOT
ATOM      1  O   UNL     1      42.125  11.745  21.210  0.00  0.00    +0.000 OA
ATOM      2  C   UNL     1      41.529  10.532  20.851  0.00  0.00    +0.000 A 
ATOM      3  C   UNL     1      42.312   9.441  20.610  0.00  0.00    +0.000 A 
ATOM      4  C   UNL     1      41.743   8.243  20.256  0.00  0.00    +0.000 A 
ATOM      5  C   UNL     1      40.354   8.118  20.136  0.00  0.00    +0.000 A 
ATOM      6  C   UNL     1      39.605   9.185  20.371  0.00  0.00    +0.000 A 
ATOM      7  C   UNL     1      40.137  10.400  20.728  0.00  0.00    +0.000 A 
ATOM      8  S   UNL     1      37.905   8.710  20.087  0.00  0.00    +0.000 S 
ATOM      9  C   UNL     1      38.381   7.333  18.858  0.00  0.00    +0.000 C 
ATOM     10  C   UNL     1      39.211   8.162  17.890  0.00  0.00    +0.000 A 
ATOM     11  C   UNL     1      38.883   9.353  17.240  0.00  0.00    +0.000 A 
ATOM     12  C   UNL     1      39.813   9.939  16.370  0.00  0.00    +0.000 A 
ATOM     13  C   UNL     1      41.036   9.334  16.168  0.00  0.00    +0.000 A 
ATOM     14  C   UNL     1      41.336   8.149  16.827  0.00  0.00    +0.000 A 
ATOM     15  C   UNL     1      40.378   7.634  17.663  0.00  0.00    +0.000 A 
ATOM     16  C   UNL     1      40.572   6.289  18.501  0.00  0.00    +0.000 C 
ATOM     17  C   UNL     1      39.597   6.824  19.805  0.00  0.00    +0.000 C 
ENDROOT
BRANCH  16  18
ATOM     18  C   UNL     1      39.505   5.427  17.743  0.00  0.00    +0.000 A 
ATOM     19  C   UNL     1      38.622   4.651  18.395  0.00  0.00    +0.000 A 
ATOM     20  C   UNL     1      37.700   3.901  17.644  0.00  0.00    +0.000 A 
ATOM     21  C   UNL     1      37.682   3.942  16.269  0.00  0.00    +0.000 A 
ATOM     22  C   UNL     1      38.599   4.745  15.628  0.00  0.00    +0.000 A 
ATOM     23  C   UNL     1      39.515   5.491  16.389  0.00  0.00    +0.000 A 
BRANCH  21  24
ATOM     24  O   UNL     1      36.786   3.215  15.491  0.00  0.00    +0.000 OA
BRANCH  24  25
ATOM     25  C   UNL     1      35.906   2.244  15.969  0.00  0.00    +0.000 C 
BRANCH  25  26
ATOM     26  C   UNL     1      36.352   0.831  15.662  0.00  0.00    +0.000 C 
BRANCH  26  27
ATOM     27  N   UNL     1      35.695  -0.012  16.667  0.00  0.00    +0.000 NA
ATOM     28  C   UNL     1      36.480  -1.260  16.644  0.00  0.00    +0.000 C 
ATOM     29  C   UNL     1      37.458  -1.315  17.772  0.00  0.00    +0.000 C 
ATOM     30  C   UNL     1      36.682  -1.443  19.051  0.00  0.00    +0.000 C 
ATOM     31  C   UNL     1      35.720  -0.273  19.124  0.00  0.00    +0.000 C 
ATOM     32  C   UNL     1      35.996   0.647  17.952  0.00  0.00    +0.000 C 
ENDBRANCH  26  27
ENDBRANCH  25  26
ENDBRANCH  24  25
ENDBRANCH  21  24
ENDBRANCH  16  18
TORSDOF 5
ENDMDL
MODEL 2
REMARK VINA RESULT:      -7.6      0.999      1.497
REMARK  Name = 
REMARK  5 active torsions:
REMARK  status: ('A' for Active; 'I' for Inactive)
REMARK    1  A    between atoms: C_16  and  C_17
REMARK    2  A    between atoms: C_20  and  O_21
REMARK    3  A    between atoms: O_21  and  C_22
REMARK    4  A    between atoms: C_22  and  C_23
REMARK    5  A    between atoms: C_23  and  N_24
REMARK                            x       y       z     vdW  Elec       q    Type
REMARK                         _______ _______ _______ _____ _____    ______ ____
ROOT
ATOM      1  O   UNL     1      41.807  11.836  21.309  0.00  0.00    +0.000 OA
ATOM      2  C   UNL     1      41.252  10.618  20.904  0.00  0.00    +0.000 A 
ATOM      3  C   UNL     1      42.062   9.536  20.719  0.00  0.00    +0.000 A 
ATOM      4  C   UNL     1      41.534   8.333  20.320  0.00  0.00    +0.000 A 
ATOM      5  C   UNL     1      40.159   8.194  20.098  0.00  0.00    +0.000 A 
ATOM      6  C   UNL     1      39.383   9.253  20.279  0.00  0.00    +0.000 A 
ATOM      7  C   UNL     1      39.875  10.472  20.678  0.00  0.00    +0.000 A 
ATOM      8  S   UNL     1      37.714   8.761  19.868  0.00  0.00    +0.000 S 
ATOM      9  C   UNL     1      38.295   7.393  18.675  0.00  0.00    +0.000 C 
ATOM     10  C   UNL     1      39.186   8.234  17.774  0.00  0.00    +0.000 A 
ATOM     11  C   UNL     1      38.894   9.424  17.104  0.00  0.00    +0.000 A 
ATOM     12  C   UNL     1      39.880  10.022  16.306  0.00  0.00    +0.000 A 
ATOM     13  C   UNL     1      41.121   9.430  16.194  0.00  0.00    +0.000 A 
ATOM     14  C   UNL     1      41.384   8.247  16.871  0.00  0.00    +0.000 A 
ATOM     15  C   UNL     1      40.372   7.719  17.632  0.00  0.00    +0.000 A 
ATOM     16  C   UNL     1      40.518   6.373  18.478  0.00  0.00    +0.000 C 
ATOM     17  C   UNL     1      39.443   6.894  19.708  0.00  0.00    +0.000 C 
ENDROOT
BRANCH  16  18
ATOM     18  C   UNL     1      39.519   5.502  17.641  0.00  0.00    +0.000 A 
ATOM     19  C   UNL     1      38.646   4.661  18.223  0.00  0.00    +0.000 A 
ATOM     20  C   UNL     1      37.788   3.908  17.403  0.00  0.00    +0.000 A 
ATOM     21  C   UNL     1      37.821   4.011  16.031  0.00  0.00    +0.000 A 
ATOM     22  C   UNL     1      38.725   4.880  15.464  0.00  0.00    +0.000 A 
ATOM     23  C   UNL     1      39.578   5.629  16.293  0.00  0.00    +0.000 A 
BRANCH  21  24
ATOM     24  O   UNL     1      36.988   3.283  15.187  0.00  0.00    +0.000 OA
BRANCH  24  25
ATOM     25  C   UNL     1      37.244   1.996  14.713  0.00  0.00    +0.000 C 
BRANCH  25  26
ATOM     26  C   UNL     1      36.533   0.918  15.503  0.00  0.00    +0.000 C 
BRANCH  26  27
ATOM     27  N   UNL     1      37.598   0.159  16.171  0.00  0.00    +0.000 NA
ATOM     28  C   UNL     1      36.906  -1.040  16.678  0.00  0.00    +0.000 C 
ATOM     29  C   UNL     1      37.127  -2.220  15.789  0.00  0.00    +0.000 C 
ATOM     30  C   UNL     1      38.574  -2.611  15.892  0.00  0.00    +0.000 C 
ATOM     31  C   UNL     1      39.405  -1.397  15.525  0.00  0.00    +0.000 C 
ATOM     32  C   UNL     1      38.469  -0.295  15.071  0.00  0.00    +0.000 C 
ENDBRANCH  26  27
ENDBRANCH  25  26
ENDBRANCH  24  25
ENDBRANCH  21  24
ENDBRANCH  16  18
TORSDOF 5
ENDMDL
MODEL 3
REMARK VINA RESULT:      -7.3      1.159      1.825
REMARK  Name = 
REMARK  5 active torsions:
REMARK  status: ('A' for Active; 'I' for Inactive)
REMARK    1  A    between atoms: C_16  and  C_17
REMARK    2  A    between atoms: C_20  and  O_21
REMARK    3  A    between atoms: O_21  and  C_22
REMARK    4  A    between atoms: C_22  and  C_23
REMARK    5  A    between atoms: C_23  and  N_24
REMARK                            x       y       z     vdW  Elec       q    Type
REMARK                         _______ _______ _______ _____ _____    ______ ____
ROOT
ATOM      1  O   UNL     1      43.926  10.569  21.727  0.00  0.00    +0.000 OA
ATOM      2  C   UNL     1      42.992   9.661  21.218  0.00  0.00    +0.000 A 
ATOM      3  C   UNL     1      43.289   8.329  21.195  0.00  0.00    +0.000 A 
ATOM      4  C   UNL     1      42.384   7.425  20.699  0.00  0.00    +0.000 A 
ATOM      5  C   UNL     1      41.144   7.849  20.209  0.00  0.00    +0.000 A 
ATOM      6  C   UNL     1      40.868   9.145  20.235  0.00  0.00    +0.000 A 
ATOM      7  C   UNL     1      41.747  10.080  20.725  0.00  0.00    +0.000 A 
ATOM      8  S   UNL     1      39.251   9.355  19.501  0.00  0.00    +0.000 S 
ATOM      9  C   UNL     1      39.405   7.777  18.444  0.00  0.00    +0.000 C 
ATOM     10  C   UNL     1      40.713   8.097  17.738  0.00  0.00    +0.000 A 
ATOM     11  C   UNL     1      41.076   9.242  17.025  0.00  0.00    +0.000 A 
ATOM     12  C   UNL     1      42.348   9.311  16.440  0.00  0.00    +0.000 A 
ATOM     13  C   UNL     1      43.221   8.252  16.574  0.00  0.00    +0.000 A 
ATOM     14  C   UNL     1      42.835   7.125  17.288  0.00  0.00    +0.000 A 
ATOM     15  C   UNL     1      41.576   7.128  17.833  0.00  0.00    +0.000 A 
ATOM     16  C   UNL     1      40.986   5.916  18.689  0.00  0.00    +0.000 C 
ATOM     17  C   UNL     1      40.029   6.934  19.683  0.00  0.00    +0.000 C 
ENDROOT
BRANCH  16  18
ATOM     18  C   UNL     1      39.882   5.471  17.670  0.00  0.00    +0.000 A 
ATOM     19  C   UNL     1      39.988   5.717  16.352  0.00  0.00    +0.000 A 
ATOM     20  C   UNL     1      38.951   5.293  15.503  0.00  0.00    +0.000 A 
ATOM     21  C   UNL     1      37.840   4.639  15.984  0.00  0.00    +0.000 A 
ATOM     22  C   UNL     1      37.760   4.402  17.339  0.00  0.00    +0.000 A 
ATOM     23  C   UNL     1      38.803   4.829  18.178  0.00  0.00    +0.000 A 
BRANCH  21  24
ATOM     24  O   UNL     1      36.795   4.204  15.176  0.00  0.00    +0.000 OA
BRANCH  24  25
ATOM     25  C   UNL     1      35.903   3.179  15.493  0.00  0.00    +0.000 C 
BRANCH  25  26
ATOM     26  C   UNL     1      36.410   1.807  15.107  0.00  0.00    +0.000 C 
BRANCH  26  27
ATOM     27  N   UNL     1      36.798   1.166  16.369  0.00  0.00    +0.000 NA
ATOM     28  C   UNL     1      35.565   1.209  17.176  0.00  0.00    +0.000 C 
ATOM     29  C   UNL     1      34.847  -0.101  17.157  0.00  0.00    +0.000 C 
ATOM     30  C   UNL     1      35.687  -1.099  17.901  0.00  0.00    +0.000 C 
ATOM     31  C   UNL     1      37.053  -1.132  17.241  0.00  0.00    +0.000 C 
ATOM     32  C   UNL     1      37.012  -0.249  16.011  0.00  0.00    +0.000 C 
ENDBRANCH  26  27
ENDBRANCH  25  26
ENDBRANCH  24  25
ENDBRANCH  21  24
ENDBRANCH  16  18
TORSDOF 5
ENDMDL
MODEL 4
REMARK VINA RESULT:      -7.3     30.535     32.935
REMARK  Name = 
REMARK  5 active torsions:
REMARK  status: ('A' for Active; 'I' for Inactive)
REMARK    1  A    between atoms: C_16  and  C_17
REMARK    2  A    between atoms: C_20  and  O_21
REMARK    3  A    between atoms: O_21  and  C_22
REMARK    4  A    between atoms: C_22  and  C_23
REMARK    5  A    between atoms: C_23  and  N_24
REMARK                            x       y       z     vdW  Elec       q    Type
REMARK                         _______ _______ _______ _____ _____    ______ ____
ROOT
ATOM      1  O   UNL     1       5.390   1.088  14.479  0.00  0.00    +0.000 OA
ATOM      2  C   UNL     1       6.271   1.702  13.582  0.00  0.00    +0.000 A 
ATOM      3  C   UNL     1       7.144   2.647  14.036  0.00  0.00    +0.000 A 
ATOM      4  C   UNL     1       8.015   3.260  13.170  0.00  0.00    +0.000 A 
ATOM      5  C   UNL     1       8.024   2.928  11.810  0.00  0.00    +0.000 A 
ATOM      6  C   UNL     1       7.170   2.011  11.382  0.00  0.00    +0.000 A 
ATOM      7  C   UNL     1       6.285   1.375  12.218  0.00  0.00    +0.000 A 
ATOM      8  S   UNL     1       7.400   1.859   9.615  0.00  0.00    +0.000 S 
ATOM      9  C   UNL     1       8.050   3.642   9.437  0.00  0.00    +0.000 C 
ATOM     10  C   UNL     1       6.891   4.378  10.088  0.00  0.00    +0.000 A 
ATOM     11  C   UNL     1       5.523   4.290   9.818  0.00  0.00    +0.000 A 
ATOM     12  C   UNL     1       4.627   5.086  10.545  0.00  0.00    +0.000 A 
ATOM     13  C   UNL     1       5.104   5.942  11.515  0.00  0.00    +0.000 A 
ATOM     14  C   UNL     1       6.469   6.010  11.764  0.00  0.00    +0.000 A 
ATOM     15  C   UNL     1       7.286   5.203  11.014  0.00  0.00    +0.000 A 
ATOM     16  C   UNL     1       8.873   5.155  11.184  0.00  0.00    +0.000 C 
ATOM     17  C   UNL     1       8.984   3.499  10.757  0.00  0.00    +0.000 C 
ENDROOT
BRANCH  16  18
ATOM     18  C   UNL     1       9.241   5.785   9.798  0.00  0.00    +0.000 A 
ATOM     19  C   UNL     1      10.362   5.448   9.137  0.00  0.00    +0.000 A 
ATOM     20  C   UNL     1      10.627   6.063   7.901  0.00  0.00    +0.000 A 
ATOM     21  C   UNL     1       9.772   6.995   7.357  0.00  0.00    +0.000 A 
ATOM     22  C   UNL     1       8.632   7.320   8.057  0.00  0.00    +0.000 A 
ATOM     23  C   UNL     1       8.378   6.698   9.291  0.00  0.00    +0.000 A 
BRANCH  21  24
ATOM     24  O   UNL     1       9.999   7.624   6.137  0.00  0.00    +0.000 OA
BRANCH  24  25
ATOM     25  C   UNL     1       9.333   7.337   4.945  0.00  0.00    +0.000 C 
BRANCH  25  26
ATOM     26  C   UNL     1       9.849   6.089   4.261  0.00  0.00    +0.000 C 
BRANCH  26  27
ATOM     27  N   UNL     1       8.662   5.259   4.020  0.00  0.00    +0.000 NA
ATOM     28  C   UNL     1       8.961   4.005   4.735  0.00  0.00    +0.000 C 
ATOM     29  C   UNL     1       8.276   3.952   6.062  0.00  0.00    +0.000 C 
ATOM     30  C   UNL     1       6.799   3.840   5.815  0.00  0.00    +0.000 C 
ATOM     31  C   UNL     1       6.387   5.019   4.954  0.00  0.00    +0.000 C 
ATOM     32  C   UNL     1       7.588   5.927   4.779  0.00  0.00    +0.000 C 
ENDBRANCH  26  27
ENDBRANCH  25  26
ENDBRANCH  24  25
ENDBRANCH  21  24
ENDBRANCH  16  18
TORSDOF 5
ENDMDL
MODEL 5
REMARK VINA RESULT:      -7.2     23.183     25.259
REMARK  Name = 
REMARK  5 active torsions:
REMARK  status: ('A' for Active; 'I' for Inactive)
REMARK    1  A    between atoms: C_16  and  C_17
REMARK    2  A    between atoms: C_20  and  O_21
REMARK    3  A    between atoms: O_21  and  C_22
REMARK    4  A    between atoms: C_22  and  C_23
REMARK    5  A    between atoms: C_23  and  N_24
REMARK                            x       y       z     vdW  Elec       q    Type
REMARK                         _______ _______ _______ _____ _____    ______ ____
ROOT
ATOM      1  O   UNL     1      24.617  19.416  32.240  0.00  0.00    +0.000 OA
ATOM      2  C   UNL     1      24.781  18.607  33.370  0.00  0.00    +0.000 A 
ATOM      3  C   UNL     1      24.560  19.129  34.611  0.00  0.00    +0.000 A 
ATOM      4  C   UNL     1      24.716  18.350  35.730  0.00  0.00    +0.000 A 
ATOM      5  C   UNL     1      25.102  17.009  35.620  0.00  0.00    +0.000 A 
ATOM      6  C   UNL     1      25.315  16.514  34.409  0.00  0.00    +0.000 A 
ATOM      7  C   UNL     1      25.168  17.262  33.266  0.00  0.00    +0.000 A 
ATOM      8  S   UNL     1      25.836  14.816  34.617  0.00  0.00    +0.000 S 
ATOM      9  C   UNL     1      26.541  15.132  36.359  0.00  0.00    +0.000 C 
ATOM     10  C   UNL     1      27.480  16.280  36.025  0.00  0.00    +0.000 A 
ATOM     11  C   UNL     1      28.466  16.359  35.040  0.00  0.00    +0.000 A 
ATOM     12  C   UNL     1      29.229  17.529  34.924  0.00  0.00    +0.000 A 
ATOM     13  C   UNL     1      28.999  18.584  35.781  0.00  0.00    +0.000 A 
ATOM     14  C   UNL     1      28.012  18.480  36.753  0.00  0.00    +0.000 A 
ATOM     15  C   UNL     1      27.304  17.305  36.807  0.00  0.00    +0.000 A 
ATOM     16  C   UNL     1      26.133  17.032  37.857  0.00  0.00    +0.000 C 
ATOM     17  C   UNL     1      25.254  16.023  36.786  0.00  0.00    +0.000 C 
ENDROOT
BRANCH  16  18
ATOM     18  C   UNL     1      26.864  15.921  38.686  0.00  0.00    +0.000 A 
ATOM     19  C   UNL     1      28.193  15.938  38.885  0.00  0.00    +0.000 A 
ATOM     20  C   UNL     1      28.776  14.901  39.633  0.00  0.00    +0.000 A 
ATOM     21  C   UNL     1      28.024  13.877  40.162  0.00  0.00    +0.000 A 
ATOM     22  C   UNL     1      26.665  13.886  39.942  0.00  0.00    +0.000 A 
ATOM     23  C   UNL     1      26.093  14.929  39.193  0.00  0.00    +0.000 A 
BRANCH  21  24
ATOM     24  O   UNL     1      28.564  12.834  40.908  0.00  0.00    +0.000 OA
BRANCH  24  25
ATOM     25  C   UNL     1      28.114  11.514  40.891  0.00  0.00    +0.000 C 
BRANCH  25  26
ATOM     26  C   UNL     1      29.206  10.517  40.563  0.00  0.00    +0.000 C 
BRANCH  26  27
ATOM     27  N   UNL     1      28.560   9.201  40.616  0.00  0.00    +0.000 NA
ATOM     28  C   UNL     1      29.395   8.438  41.561  0.00  0.00    +0.000 C 
ATOM     29  C   UNL     1      28.779   8.387  42.922  0.00  0.00    +0.000 C 
ATOM     30  C   UNL     1      27.538   7.547  42.835  0.00  0.00    +0.000 C 
ATOM     31  C   UNL     1      26.642   8.158  41.774  0.00  0.00    +0.000 C 
ATOM     32  C   UNL     1      27.276   9.449  41.299  0.00  0.00    +0.000 C 
ENDBRANCH  26  27
ENDBRANCH  25  26
ENDBRANCH  24  25
ENDBRANCH  21  24
ENDBRANCH  16  18
TORSDOF 5
ENDMDL
MODEL 6
REMARK VINA RESULT:      -7.1      6.108     10.179
REMARK  Name = 
REMARK  5 active torsions:
REMARK  status: ('A' for Active; 'I' for Inactive)
REMARK    1  A    between atoms: C_16  and  C_17
REMARK    2  A    between atoms: C_20  and  O_21
REMARK    3  A    between atoms: O_21  and  C_22
REMARK    4  A    between atoms: C_22  and  C_23
REMARK    5  A    between atoms: C_23  and  N_24
REMARK                            x       y       z     vdW  Elec       q    Type
REMARK                         _______ _______ _______ _____ _____    ______ ____
ROOT
ATOM      1  O   UNL     1      45.725  -2.403  10.262  0.00  0.00    +0.000 OA
ATOM      2  C   UNL     1      44.754  -2.325  11.266  0.00  0.00    +0.000 A 
ATOM      3  C   UNL     1      44.050  -3.442  11.612  0.00  0.00    +0.000 A 
ATOM      4  C   UNL     1      43.094  -3.383  12.594  0.00  0.00    +0.000 A 
ATOM      5  C   UNL     1      42.824  -2.181  13.259  0.00  0.00    +0.000 A 
ATOM      6  C   UNL     1      43.513  -1.103  12.913  0.00  0.00    +0.000 A 
ATOM      7  C   UNL     1      44.478  -1.123  11.936  0.00  0.00    +0.000 A 
ATOM      8  S   UNL     1      42.899   0.255  13.901  0.00  0.00    +0.000 S 
ATOM      9  C   UNL     1      41.180  -0.539  14.120  0.00  0.00    +0.000 C 
ATOM     10  C   UNL     1      40.835  -0.755  12.655  0.00  0.00    +0.000 A 
ATOM     11  C   UNL     1      40.860   0.155  11.597  0.00  0.00    +0.000 A 
ATOM     12  C   UNL     1      40.482  -0.271  10.316  0.00  0.00    +0.000 A 
ATOM     13  C   UNL     1      40.093  -1.578  10.117  0.00  0.00    +0.000 A 
ATOM     14  C   UNL     1      40.077  -2.464  11.187  0.00  0.00    +0.000 A 
ATOM     15  C   UNL     1      40.459  -1.977  12.412  0.00  0.00    +0.000 A 
ATOM     16  C   UNL     1      40.506  -2.866  13.737  0.00  0.00    +0.000 C 
ATOM     17  C   UNL     1      41.824  -2.000  14.409  0.00  0.00    +0.000 C 
ENDROOT
BRANCH  16  18
ATOM     18  C   UNL     1      39.337  -2.152  14.497  0.00  0.00    +0.000 A 
ATOM     19  C   UNL     1      39.334  -2.018  15.835  0.00  0.00    +0.000 A 
ATOM     20  C   UNL     1      38.245  -1.371  16.446  0.00  0.00    +0.000 A 
ATOM     21  C   UNL     1      37.191  -0.877  15.712  0.00  0.00    +0.000 A 
ATOM     22  C   UNL     1      37.222  -1.030  14.343  0.00  0.00    +0.000 A 
ATOM     23  C   UNL     1      38.316  -1.677  13.744  0.00  0.00    +0.000 A 
BRANCH  21  24
ATOM     24  O   UNL     1      36.097  -0.232  16.278  0.00  0.00    +0.000 OA
BRANCH  24  25
ATOM     25  C   UNL     1      35.515   0.942  15.798  0.00  0.00    +0.000 C 
BRANCH  25  26
ATOM     26  C   UNL     1      35.949   2.177  16.558  0.00  0.00    +0.000 C 
BRANCH  26  27
ATOM     27  N   UNL     1      36.398   3.127  15.534  0.00  0.00    +0.000 NA
ATOM     28  C   UNL     1      37.862   3.158  15.704  0.00  0.00    +0.000 C 
ATOM     29  C   UNL     1      38.553   2.305  14.691  0.00  0.00    +0.000 C 
ATOM     30  C   UNL     1      38.368   2.945  13.345  0.00  0.00    +0.000 C 
ATOM     31  C   UNL     1      36.878   3.100  13.110  0.00  0.00    +0.000 C 
ATOM     32  C   UNL     1      36.141   2.437  14.256  0.00  0.00    +0.000 C 
ENDBRANCH  26  27
ENDBRANCH  25  26
ENDBRANCH  24  25
ENDBRANCH  21  24
ENDBRANCH  16  18
TORSDOF 5
ENDMDL
MODEL 7
REMARK VINA RESULT:      -7.1      1.654      2.798
REMARK  Name = 
REMARK  5 active torsions:
REMARK  status: ('A' for Active; 'I' for Inactive)
REMARK    1  A    between atoms: C_16  and  C_17
REMARK    2  A    between atoms: C_20  and  O_21
REMARK    3  A    between atoms: O_21  and  C_22
REMARK    4  A    between atoms: C_22  and  C_23
REMARK    5  A    between atoms: C_23  and  N_24
REMARK                            x       y       z     vdW  Elec       q    Type
REMARK                         _______ _______ _______ _____ _____    ______ ____
ROOT
ATOM      1  O   UNL     1      43.331  12.110  21.126  0.00  0.00    +0.000 OA
ATOM      2  C   UNL     1      42.395  11.338  20.432  0.00  0.00    +0.000 A 
ATOM      3  C   UNL     1      41.277  10.892  21.076  0.00  0.00    +0.000 A 
ATOM      4  C   UNL     1      40.349  10.132  20.409  0.00  0.00    +0.000 A 
ATOM      5  C   UNL     1      40.528   9.802  19.061  0.00  0.00    +0.000 A 
ATOM      6  C   UNL     1      41.619  10.239  18.448  0.00  0.00    +0.000 A 
ATOM      7  C   UNL     1      42.569  11.002  19.080  0.00  0.00    +0.000 A 
ATOM      8  S   UNL     1      41.571   9.610  16.775  0.00  0.00    +0.000 S 
ATOM      9  C   UNL     1      40.505   8.105  17.256  0.00  0.00    +0.000 C 
ATOM     10  C   UNL     1      41.385   7.538  18.358  0.00  0.00    +0.000 A 
ATOM     11  C   UNL     1      42.746   7.228  18.330  0.00  0.00    +0.000 A 
ATOM     12  C   UNL     1      43.352   6.696  19.477  0.00  0.00    +0.000 A 
ATOM     13  C   UNL     1      42.600   6.486  20.614  0.00  0.00    +0.000 A 
ATOM     14  C   UNL     1      41.247   6.804  20.614  0.00  0.00    +0.000 A 
ATOM     15  C   UNL     1      40.723   7.321  19.456  0.00  0.00    +0.000 A 
ATOM     16  C   UNL     1      39.192   7.746  19.297  0.00  0.00    +0.000 C 
ATOM     17  C   UNL     1      39.539   9.011  18.194  0.00  0.00    +0.000 C 
ENDROOT
BRANCH  16  18
ATOM     18  C   UNL     1      38.784   6.637  18.268  0.00  0.00    +0.000 A 
ATOM     19  C   UNL     1      38.241   6.937  17.075  0.00  0.00    +0.000 A 
ATOM     20  C   UNL     1      37.893   5.886  16.209  0.00  0.00    +0.000 A 
ATOM     21  C   UNL     1      38.094   4.568  16.552  0.00  0.00    +0.000 A 
ATOM     22  C   UNL     1      38.651   4.291  17.780  0.00  0.00    +0.000 A 
ATOM     23  C   UNL     1      38.995   5.351  18.637  0.00  0.00    +0.000 A 
BRANCH  21  24
ATOM     24  O   UNL     1      37.764   3.501  15.723  0.00  0.00    +0.000 OA
BRANCH  24  25
ATOM     25  C   UNL     1      36.491   3.236  15.216  0.00  0.00    +0.000 C 
BRANCH  25  26
ATOM     26  C   UNL     1      36.204   1.757  15.070  0.00  0.00    +0.000 C 
BRANCH  26  27
ATOM     27  N   UNL     1      36.603   1.155  16.347  0.00  0.00    +0.000 NA
ATOM     28  C   UNL     1      35.356   1.143  17.134  0.00  0.00    +0.000 C 
ATOM     29  C   UNL     1      34.710  -0.203  17.121  0.00  0.00    +0.000 C 
ATOM     30  C   UNL     1      35.589  -1.145  17.893  0.00  0.00    +0.000 C 
ATOM     31  C   UNL     1      36.965  -1.114  17.256  0.00  0.00    +0.000 C 
ATOM     32  C   UNL     1      36.898  -0.251  16.013  0.00  0.00    +0.000 C 
ENDBRANCH  26  27
ENDBRANCH  25  26
ENDBRANCH  24  25
ENDBRANCH  21  24
ENDBRANCH  16  18
TORSDOF 5
ENDMDL
MODEL 8
REMARK VINA RESULT:      -7.0      1.790      2.478
REMARK  Name = 
REMARK  5 active torsions:
REMARK  status: ('A' for Active; 'I' for Inactive)
REMARK    1  A    between atoms: C_16  and  C_17
REMARK    2  A    between atoms: C_20  and  O_21
REMARK    3  A    between atoms: O_21  and  C_22
REMARK    4  A    between atoms: C_22  and  C_23
REMARK    5  A    between atoms: C_23  and  N_24
REMARK                            x       y       z     vdW  Elec       q    Type
REMARK                         _______ _______ _______ _____ _____    ______ ____
ROOT
ATOM      1  O   UNL     1      38.746  12.638  21.388  0.00  0.00    +0.000 OA
ATOM      2  C   UNL     1      38.540  11.401  20.768  0.00  0.00    +0.000 A 
ATOM      3  C   UNL     1      39.013  10.264  21.355  0.00  0.00    +0.000 A 
ATOM      4  C   UNL     1      38.820   9.043  20.760  0.00  0.00    +0.000 A 
ATOM      5  C   UNL     1      38.135   8.940  19.544  0.00  0.00    +0.000 A 
ATOM      6  C   UNL     1      37.682  10.051  18.982  0.00  0.00    +0.000 A 
ATOM      7  C   UNL     1      37.855  11.291  19.548  0.00  0.00    +0.000 A 
ATOM      8  S   UNL     1      36.912   9.586  17.437  0.00  0.00    +0.000 S 
ATOM      9  C   UNL     1      37.988   8.024  17.246  0.00  0.00    +0.000 C 
ATOM     10  C   UNL     1      39.359   8.672  17.357  0.00  0.00    +0.000 A 
ATOM     11  C   UNL     1      39.883   9.759  16.654  0.00  0.00    +0.000 A 
ATOM     12  C   UNL     1      41.195  10.178  16.917  0.00  0.00    +0.000 A 
ATOM     13  C   UNL     1      41.948   9.515  17.863  0.00  0.00    +0.000 A 
ATOM     14  C   UNL     1      41.402   8.438  18.548  0.00  0.00    +0.000 A 
ATOM     15  C   UNL     1      40.113   8.083  18.238  0.00  0.00    +0.000 A 
ATOM     16  C   UNL     1      39.340   6.877  18.942  0.00  0.00    +0.000 C 
ATOM     17  C   UNL     1      37.806   7.633  18.810  0.00  0.00    +0.000 C 
ENDROOT
BRANCH  16  18
ATOM     18  C   UNL     1      39.252   5.939  17.689  0.00  0.00    +0.000 A 
ATOM     19  C   UNL     1      38.292   5.007  17.562  0.00  0.00    +0.000 A 
ATOM     20  C   UNL     1      38.285   4.199  16.412  0.00  0.00    +0.000 A 
ATOM     21  C   UNL     1      39.230   4.339  15.422  0.00  0.00    +0.000 A 
ATOM     22  C   UNL     1      40.202   5.302  15.580  0.00  0.00    +0.000 A 
ATOM     23  C   UNL     1      40.198   6.105  16.733  0.00  0.00    +0.000 A 
BRANCH  21  24
ATOM     24  O   UNL     1      39.257   3.559  14.270  0.00  0.00    +0.000 OA
BRANCH  24  25
ATOM     25  C   UNL     1      39.668   2.227  14.206  0.00  0.00    +0.000 C 
BRANCH  25  26
ATOM     26  C   UNL     1      38.516   1.255  14.061  0.00  0.00    +0.000 C 
BRANCH  26  27
ATOM     27  N   UNL     1      38.322   0.680  15.398  0.00  0.00    +0.000 NA
ATOM     28  C   UNL     1      36.885   0.880  15.658  0.00  0.00    +0.000 C 
ATOM     29  C   UNL     1      36.102  -0.368  15.410  0.00  0.00    +0.000 C 
ATOM     30  C   UNL     1      36.486  -1.371  16.459  0.00  0.00    +0.000 C 
ATOM     31  C   UNL     1      37.989  -1.560  16.386  0.00  0.00    +0.000 C 
ATOM     32  C   UNL     1      38.513  -0.769  15.205  0.00  0.00    +0.000 C 
ENDBRANCH  26  27
ENDBRANCH  25  26
ENDBRANCH  24  25
ENDBRANCH  21  24
ENDBRANCH  16  18
TORSDOF 5
ENDMDL
MODEL 9
REMARK VINA RESULT:      -7.0      4.963      8.116
REMARK  Name = 
REMARK  5 active torsions:
REMARK  status: ('A' for Active; 'I' for Inactive)
REMARK    1  A    between atoms: C_16  and  C_17
REMARK    2  A    between atoms: C_20  and  O_21
REMARK    3  A    between atoms: O_21  and  C_22
REMARK    4  A    between atoms: C_22  and  C_23
REMARK    5  A    between atoms: C_23  and  N_24
REMARK                            x       y       z     vdW  Elec       q    Type
REMARK                         _______ _______ _______ _____ _____    ______ ____
ROOT
ATOM      1  O   UNL     1      37.995  10.429  15.405  0.00  0.00    +0.000 OA
ATOM      2  C   UNL     1      38.958  10.214  16.395  0.00  0.00    +0.000 A 
ATOM      3  C   UNL     1      40.246   9.941  16.036  0.00  0.00    +0.000 A 
ATOM      4  C   UNL     1      41.204   9.727  16.996  0.00  0.00    +0.000 A 
ATOM      5  C   UNL     1      40.880   9.785  18.356  0.00  0.00    +0.000 A 
ATOM      6  C   UNL     1      39.626  10.049  18.692  0.00  0.00    +0.000 A 
ATOM      7  C   UNL     1      38.640  10.270  17.761  0.00  0.00    +0.000 A 
ATOM      8  S   UNL     1      39.536  10.001  20.477  0.00  0.00    +0.000 S 
ATOM      9  C   UNL     1      41.010   8.802  20.627  0.00  0.00    +0.000 C 
ATOM     10  C   UNL     1      40.505   7.696  19.716  0.00  0.00    +0.000 A 
ATOM     11  C   UNL     1      39.280   7.025  19.735  0.00  0.00    +0.000 A 
ATOM     12  C   UNL     1      39.035   6.016  18.792  0.00  0.00    +0.000 A 
ATOM     13  C   UNL     1      40.003   5.701  17.862  0.00  0.00    +0.000 A 
ATOM     14  C   UNL     1      41.212   6.384  17.864  0.00  0.00    +0.000 A 
ATOM     15  C   UNL     1      41.381   7.358  18.816  0.00  0.00    +0.000 A 
ATOM     16  C   UNL     1      42.706   8.240  18.946  0.00  0.00    +0.000 C 
ATOM     17  C   UNL     1      41.868   9.621  19.519  0.00  0.00    +0.000 C 
ENDROOT
BRANCH  16  18
ATOM     18  C   UNL     1      43.192   7.667  20.321  0.00  0.00    +0.000 A 
ATOM     19  C   UNL     1      43.776   8.444  21.250  0.00  0.00    +0.000 A 
ATOM     20  C   UNL     1      44.192   7.854  22.457  0.00  0.00    +0.000 A 
ATOM     21  C   UNL     1      44.017   6.512  22.706  0.00  0.00    +0.000 A 
ATOM     22  C   UNL     1      43.416   5.742  21.735  0.00  0.00    +0.000 A 
ATOM     23  C   UNL     1      43.004   6.342  20.534  0.00  0.00    +0.000 A 
BRANCH  21  24
ATOM     24  O   UNL     1      44.414   5.893  23.887  0.00  0.00    +0.000 OA
BRANCH  24  25
ATOM     25  C   UNL     1      45.085   6.517  24.939  0.00  0.00    +0.000 C 
BRANCH  25  26
ATOM     26  C   UNL     1      44.870   5.832  26.272  0.00  0.00    +0.000 C 
BRANCH  26  27
ATOM     27  N   UNL     1      43.437   5.518  26.322  0.00  0.00    +0.000 NA
ATOM     28  C   UNL     1      43.399   4.138  26.839  0.00  0.00    +0.000 C 
ATOM     29  C   UNL     1      43.082   4.106  28.298  0.00  0.00    +0.000 C 
ATOM     30  C   UNL     1      41.660   4.557  28.472  0.00  0.00    +0.000 C 
ATOM     31  C   UNL     1      41.534   5.931  27.843  0.00  0.00    +0.000 C 
ATOM     32  C   UNL     1      42.910   6.381  27.396  0.00  0.00    +0.000 C 
ENDBRANCH  26  27
ENDBRANCH  25  26
ENDBRANCH  24  25
ENDBRANCH  21  24
ENDBRANCH  16  18
TORSDOF 5
ENDMDL
MODEL 10
REMARK VINA RESULT:      -6.9     23.109     28.188
REMARK  Name = 
REMARK  5 active torsions:
REMARK  status: ('A' for Active; 'I' for Inactive)
REMARK    1  A    between atoms: C_16  and  C_17
REMARK    2  A    between atoms: C_20  and  O_21
REMARK    3  A    between atoms: O_21  and  C_22
REMARK    4  A    between atoms: C_22  and  C_23
REMARK    5  A    between atoms: C_23  and  N_24
REMARK                            x       y       z     vdW  Elec       q    Type
REMARK                         _______ _______ _______ _____ _____    ______ ____
ROOT
ATOM      1  O   UNL     1      31.640 -23.009  35.198  0.00  0.00    +0.000 OA
ATOM      2  C   UNL     1      31.900 -22.102  34.166  0.00  0.00    +0.000 A 
ATOM      3  C   UNL     1      33.182 -21.700  33.928  0.00  0.00    +0.000 A 
ATOM      4  C   UNL     1      33.455 -20.810  32.919  0.00  0.00    +0.000 A 
ATOM      5  C   UNL     1      32.427 -20.299  32.118  0.00  0.00    +0.000 A 
ATOM      6  C   UNL     1      31.186 -20.696  32.360  0.00  0.00    +0.000 A 
ATOM      7  C   UNL     1      30.874 -21.586  33.359  0.00  0.00    +0.000 A 
ATOM      8  S   UNL     1      30.122 -19.833  31.211  0.00  0.00    +0.000 S 
ATOM      9  C   UNL     1      31.323 -18.363  31.035  0.00  0.00    +0.000 C 
ATOM     10  C   UNL     1      31.466 -18.002  32.505  0.00  0.00    +0.000 A 
ATOM     11  C   UNL     1      30.473 -17.756  33.456  0.00  0.00    +0.000 A 
ATOM     12  C   UNL     1      30.844 -17.422  34.766  0.00  0.00    +0.000 A 
ATOM     13  C   UNL     1      32.180 -17.341  35.098  0.00  0.00    +0.000 A 
ATOM     14  C   UNL     1      33.147 -17.591  34.134  0.00  0.00    +0.000 A 
ATOM     15  C   UNL     1      32.710 -17.912  32.873  0.00  0.00    +0.000 A 
ATOM     16  C   UNL     1      33.693 -18.237  31.658  0.00  0.00    +0.000 C 
ATOM     17  C   UNL     1      32.609 -19.347  30.928  0.00  0.00    +0.000 C 
ENDROOT
BRANCH  16  18
ATOM     18  C   UNL     1      33.361 -16.974  30.791  0.00  0.00    +0.000 A 
ATOM     19  C   UNL     1      32.960 -15.816  31.342  0.00  0.00    +0.000 A 
ATOM     20  C   UNL     1      32.673 -14.730  30.497  0.00  0.00    +0.000 A 
ATOM     21  C   UNL     1      32.791 -14.825  29.129  0.00  0.00    +0.000 A 
ATOM     22  C   UNL     1      33.204 -16.025  28.592  0.00  0.00    +0.000 A 
ATOM     23  C   UNL     1      33.489 -17.103  29.448  0.00  0.00    +0.000 A 
BRANCH  21  24
ATOM     24  O   UNL     1      32.517 -13.774  28.260  0.00  0.00    +0.000 OA
BRANCH  24  25
ATOM     25  C   UNL     1      31.481 -13.749  27.326  0.00  0.00    +0.000 C 
BRANCH  25  26
ATOM     26  C   UNL     1      31.938 -14.076  25.920  0.00  0.00    +0.000 C 
BRANCH  26  27
ATOM     27  N   UNL     1      30.879 -14.920  25.353  0.00  0.00    +0.000 NA
ATOM     28  C   UNL     1      31.614 -16.055  24.767  0.00  0.00    +0.000 C 
ATOM     29  C   UNL     1      31.582 -17.252  25.661  0.00  0.00    +0.000 C 
ATOM     30  C   UNL     1      30.171 -17.763  25.698  0.00  0.00    +0.000 C 
ATOM     31  C   UNL     1      29.281 -16.624  26.159  0.00  0.00    +0.000 C 
ATOM     32  C   UNL     1      30.163 -15.449  26.529  0.00  0.00    +0.000 C 
ENDBRANCH  26  27
ENDBRANCH  25  26
ENDBRANCH  24  25
ENDBRANCH  21  24
ENDBRANCH  16  18
TORSDOF 5
ENDMDL
