MODEL 1
REMARK VINA RESULT:      -6.1      0.000      0.000
REMARK  Name = 
REMARK  2 active torsions:
REMARK  status: ('A' for Active; 'I' for Inactive)
REMARK    1  A    between atoms: C_2  and  C_3
REMARK    2  A    between atoms: N_11  and  C_12
REMARK                            x       y       z     vdW  Elec       q    Type
REMARK                         _______ _______ _______ _____ _____    ______ ____
ROOT
ATOM      1  C   UNL     1      28.537  23.881  24.685  0.00  0.00    +0.000 A 
ATOM      2  C   UNL     1      27.604  23.621  23.674  0.00  0.00    +0.000 A 
ATOM      3 CL   UNL     1      26.034  23.043  24.118  0.00  0.00    +0.000 Cl
ATOM      4  N   UNL     1      28.001  23.843  22.407  0.00  0.00    +0.000 NA
ATOM      5  C   UNL     1      29.231  24.294  22.084  0.00  0.00    +0.000 A 
ATOM      6  N   UNL     1      29.571  24.505  20.709  0.00  0.00    +0.000 NA
ATOM      7  N   UNL     1      30.105  24.535  23.065  0.00  0.00    +0.000 NA
ATOM      8  C   UNL     1      29.791  24.340  24.366  0.00  0.00    +0.000 A 
ATOM      9  N   UNL     1      30.715  24.600  25.383  0.00  0.00    +0.000 NA
ENDROOT
BRANCH   9  10
ATOM     10  C   UNL     1      32.043  25.072  25.230  0.00  0.00    +0.000 A 
ATOM     11  C   UNL     1      32.325  26.399  25.480  0.00  0.00    +0.000 A 
ATOM     12  C   UNL     1      33.595  26.923  25.344  0.00  0.00    +0.000 A 
ATOM     13  C   UNL     1      34.649  26.130  24.948  0.00  0.00    +0.000 A 
ATOM     14  C   UNL     1      36.037  26.651  24.786  0.00  0.00    +0.000 C 
ATOM     15  C   UNL     1      34.348  24.808  24.704  0.00  0.00    +0.000 A 
ATOM     16  C   UNL     1      35.487  23.944  24.272  0.00  0.00    +0.000 C 
ATOM     17  C   UNL     1      33.090  24.280  24.837  0.00  0.00    +0.000 A 
ENDBRANCH   9  10
BRANCH   1  19
ATOM     18  C   UNL     1      28.554  22.260  26.564  0.00  0.00    +0.000 C 
ATOM     19  C   UNL     1      28.234  23.679  26.125  0.00  0.00    +0.000 C 
ENDBRANCH   1  19
TORSDOF 2
ENDMDL
MODEL 2
REMARK VINA RESULT:      -6.1     21.822     23.747
REMARK  Name = 
REMARK  2 active torsions:
REMARK  status: ('A' for Active; 'I' for Inactive)
REMARK    1  A    between atoms: C_2  and  C_3
REMARK    2  A    between atoms: N_11  and  C_12
REMARK                            x       y       z     vdW  Elec       q    Type
REMARK                         _______ _______ _______ _____ _____    ______ ____
ROOT
ATOM      1  C   UNL     1      19.438   8.899  39.245  0.00  0.00    +0.000 A 
ATOM      2  C   UNL     1      20.578   9.250  39.978  0.00  0.00    +0.000 A 
ATOM      3 CL   UNL     1      20.988   8.318  41.378  0.00  0.00    +0.000 Cl
ATOM      4  N   UNL     1      21.286  10.304  39.533  0.00  0.00    +0.000 NA
ATOM      5  C   UNL     1      20.947  11.016  38.439  0.00  0.00    +0.000 A 
ATOM      6  N   UNL     1      21.759  12.125  38.034  0.00  0.00    +0.000 NA
ATOM      7  N   UNL     1      19.855  10.663  37.756  0.00  0.00    +0.000 NA
ATOM      8  C   UNL     1      19.084   9.616  38.130  0.00  0.00    +0.000 A 
ATOM      9  N   UNL     1      17.946   9.256  37.403  0.00  0.00    +0.000 NA
ENDROOT
BRANCH   9  10
ATOM     10  C   UNL     1      17.441   9.886  36.238  0.00  0.00    +0.000 A 
ATOM     11  C   UNL     1      17.948   9.538  35.003  0.00  0.00    +0.000 A 
ATOM     12  C   UNL     1      17.505  10.118  33.832  0.00  0.00    +0.000 A 
ATOM     13  C   UNL     1      16.522  11.083  33.847  0.00  0.00    +0.000 A 
ATOM     14  C   UNL     1      16.012  11.738  32.609  0.00  0.00    +0.000 C 
ATOM     15  C   UNL     1      16.028  11.417  35.089  0.00  0.00    +0.000 A 
ATOM     16  C   UNL     1      14.964  12.465  35.112  0.00  0.00    +0.000 C 
ATOM     17  C   UNL     1      16.463  10.846  36.257  0.00  0.00    +0.000 A 
ENDBRANCH   9  10
BRANCH   1  19
ATOM     18  C   UNL     1      17.532   8.170  40.660  0.00  0.00    +0.000 C 
ATOM     19  C   UNL     1      18.564   7.757  39.623  0.00  0.00    +0.000 C 
ENDBRANCH   1  19
TORSDOF 2
ENDMDL
MODEL 3
REMARK VINA RESULT:      -6.0     20.553     22.833
REMARK  Name = 
REMARK  2 active torsions:
REMARK  status: ('A' for Active; 'I' for Inactive)
REMARK    1  A    between atoms: C_2  and  C_3
REMARK    2  A    between atoms: N_11  and  C_12
REMARK                            x       y       z     vdW  Elec       q    Type
REMARK                         _______ _______ _______ _____ _____    ______ ____
ROOT
ATOM      1  C   UNL     1      27.716   5.937  17.155  0.00  0.00    +0.000 A 
ATOM      2  C   UNL     1      28.256   6.682  16.100  0.00  0.00    +0.000 A 
ATOM      3 CL   UNL     1      29.651   7.662  16.402  0.00  0.00    +0.000 Cl
ATOM      4  N   UNL     1      27.642   6.582  14.907  0.00  0.00    +0.000 NA
ATOM      5  C   UNL     1      26.556   5.811  14.696  0.00  0.00    +0.000 A 
ATOM      6  N   UNL     1      25.965   5.760  13.391  0.00  0.00    +0.000 NA
ATOM      7  N   UNL     1      26.058   5.109  15.717  0.00  0.00    +0.000 NA
ATOM      8  C   UNL     1      26.610   5.149  16.950  0.00  0.00    +0.000 A 
ATOM      9  N   UNL     1      26.080   4.407  18.009  0.00  0.00    +0.000 NA
ENDROOT
BRANCH   9  10
ATOM     10  C   UNL     1      24.950   3.550  17.970  0.00  0.00    +0.000 A 
ATOM     11  C   UNL     1      23.697   4.068  18.219  0.00  0.00    +0.000 A 
ATOM     12  C   UNL     1      22.558   3.288  18.203  0.00  0.00    +0.000 A 
ATOM     13  C   UNL     1      22.628   1.939  17.934  0.00  0.00    +0.000 A 
ATOM     14  C   UNL     1      21.427   1.056  17.906  0.00  0.00    +0.000 C 
ATOM     15  C   UNL     1      23.889   1.440  17.687  0.00  0.00    +0.000 A 
ATOM     16  C   UNL     1      23.971  -0.022  17.396  0.00  0.00    +0.000 C 
ATOM     17  C   UNL     1      25.024   2.209  17.701  0.00  0.00    +0.000 A 
ENDBRANCH   9  10
BRANCH   1  19
ATOM     18  C   UNL     1      27.945   7.243  19.254  0.00  0.00    +0.000 C 
ATOM     19  C   UNL     1      28.292   5.955  18.525  0.00  0.00    +0.000 C 
ENDBRANCH   1  19
TORSDOF 2
ENDMDL
MODEL 4
REMARK VINA RESULT:      -5.9     32.867     35.892
REMARK  Name = 
REMARK  2 active torsions:
REMARK  status: ('A' for Active; 'I' for Inactive)
REMARK    1  A    between atoms: C_2  and  C_3
REMARK    2  A    between atoms: N_11  and  C_12
REMARK                            x       y       z     vdW  Elec       q    Type
REMARK                         _______ _______ _______ _____ _____    ______ ____
ROOT
ATOM      1  C   UNL     1      20.931  -7.895  25.827  0.00  0.00    +0.000 A 
ATOM      2  C   UNL     1      21.056  -6.653  25.194  0.00  0.00    +0.000 A 
ATOM      3 CL   UNL     1      22.380  -6.401  24.107  0.00  0.00    +0.000 Cl
ATOM      4  N   UNL     1      20.122  -5.727  25.480  0.00  0.00    +0.000 NA
ATOM      5  C   UNL     1      19.099  -5.946  26.331  0.00  0.00    +0.000 A 
ATOM      6  N   UNL     1      18.146  -4.905  26.578  0.00  0.00    +0.000 NA
ATOM      7  N   UNL     1      19.000  -7.139  26.924  0.00  0.00    +0.000 NA
ATOM      8  C   UNL     1      19.893  -8.128  26.695  0.00  0.00    +0.000 A 
ATOM      9  N   UNL     1      19.776  -9.372  27.319  0.00  0.00    +0.000 NA
ENDROOT
BRANCH   9  10
ATOM     10  C   UNL     1      18.773  -9.776  28.237  0.00  0.00    +0.000 A 
ATOM     11  C   UNL     1      18.945  -9.530  29.584  0.00  0.00    +0.000 A 
ATOM     12  C   UNL     1      18.011  -9.903  30.529  0.00  0.00    +0.000 A 
ATOM     13  C   UNL     1      16.850 -10.546  30.161  0.00  0.00    +0.000 A 
ATOM     14  C   UNL     1      15.813 -10.969  31.145  0.00  0.00    +0.000 C 
ATOM     15  C   UNL     1      16.696 -10.783  28.812  0.00  0.00    +0.000 A 
ATOM     16  C   UNL     1      15.439 -11.482  28.408  0.00  0.00    +0.000 C 
ATOM     17  C   UNL     1      17.619 -10.415  27.868  0.00  0.00    +0.000 A 
ENDBRANCH   9  10
BRANCH   1  19
ATOM     18  C   UNL     1      21.549  -9.790  24.347  0.00  0.00    +0.000 C 
ATOM     19  C   UNL     1      21.892  -9.007  25.604  0.00  0.00    +0.000 C 
ENDBRANCH   1  19
TORSDOF 2
ENDMDL
MODEL 5
REMARK VINA RESULT:      -5.9     32.394     34.297
REMARK  Name = 
REMARK  2 active torsions:
REMARK  status: ('A' for Active; 'I' for Inactive)
REMARK    1  A    between atoms: C_2  and  C_3
REMARK    2  A    between atoms: N_11  and  C_12
REMARK                            x       y       z     vdW  Elec       q    Type
REMARK                         _______ _______ _______ _____ _____    ______ ____
ROOT
ATOM      1  C   UNL     1      23.825  -8.658  22.838  0.00  0.00    +0.000 A 
ATOM      2  C   UNL     1      23.986  -9.166  21.543  0.00  0.00    +0.000 A 
ATOM      3 CL   UNL     1      25.588  -9.452  20.954  0.00  0.00    +0.000 Cl
ATOM      4  N   UNL     1      22.864  -9.400  20.838  0.00  0.00    +0.000 NA
ATOM      5  C   UNL     1      21.625  -9.169  21.318  0.00  0.00    +0.000 A 
ATOM      6  N   UNL     1      20.483  -9.448  20.499  0.00  0.00    +0.000 NA
ATOM      7  N   UNL     1      21.496  -8.683  22.555  0.00  0.00    +0.000 NA
ATOM      8  C   UNL     1      22.568  -8.419  23.336  0.00  0.00    +0.000 A 
ATOM      9  N   UNL     1      22.418  -7.915  24.630  0.00  0.00    +0.000 NA
ENDROOT
BRANCH   9  10
ATOM     10  C   UNL     1      21.201  -7.612  25.293  0.00  0.00    +0.000 A 
ATOM     11  C   UNL     1      20.436  -8.636  25.811  0.00  0.00    +0.000 A 
ATOM     12  C   UNL     1      19.240  -8.409  26.462  0.00  0.00    +0.000 A 
ATOM     13  C   UNL     1      18.754  -7.130  26.624  0.00  0.00    +0.000 A 
ATOM     14  C   UNL     1      17.467  -6.836  27.318  0.00  0.00    +0.000 C 
ATOM     15  C   UNL     1      19.532  -6.121  26.100  0.00  0.00    +0.000 A 
ATOM     16  C   UNL     1      19.008  -4.732  26.271  0.00  0.00    +0.000 C 
ATOM     17  C   UNL     1      20.721  -6.338  25.453  0.00  0.00    +0.000 A 
ENDBRANCH   9  10
BRANCH   1  19
ATOM     18  C   UNL     1      25.576  -6.993  23.408  0.00  0.00    +0.000 C 
ATOM     19  C   UNL     1      24.976  -8.353  23.727  0.00  0.00    +0.000 C 
ENDBRANCH   1  19
TORSDOF 2
ENDMDL
MODEL 6
REMARK VINA RESULT:      -5.8     32.560     34.704
REMARK  Name = 
REMARK  2 active torsions:
REMARK  status: ('A' for Active; 'I' for Inactive)
REMARK    1  A    between atoms: C_2  and  C_3
REMARK    2  A    between atoms: N_11  and  C_12
REMARK                            x       y       z     vdW  Elec       q    Type
REMARK                         _______ _______ _______ _____ _____    ______ ____
ROOT
ATOM      1  C   UNL     1      24.149  -8.826  24.040  0.00  0.00    +0.000 A 
ATOM      2  C   UNL     1      25.118  -9.775  24.389  0.00  0.00    +0.000 A 
ATOM      3 CL   UNL     1      26.548  -9.899  23.422  0.00  0.00    +0.000 Cl
ATOM      4  N   UNL     1      24.865 -10.534  25.471  0.00  0.00    +0.000 NA
ATOM      5  C   UNL     1      23.742 -10.419  26.210  0.00  0.00    +0.000 A 
ATOM      6  N   UNL     1      23.553 -11.267  27.349  0.00  0.00    +0.000 NA
ATOM      7  N   UNL     1      22.832  -9.508  25.858  0.00  0.00    +0.000 NA
ATOM      8  C   UNL     1      23.004  -8.701  24.786  0.00  0.00    +0.000 A 
ATOM      9  N   UNL     1      22.044  -7.750  24.430  0.00  0.00    +0.000 NA
ENDROOT
BRANCH   9  10
ATOM     10  C   UNL     1      20.813  -7.492  25.086  0.00  0.00    +0.000 A 
ATOM     11  C   UNL     1      19.893  -8.510  25.229  0.00  0.00    +0.000 A 
ATOM     12  C   UNL     1      18.675  -8.324  25.851  0.00  0.00    +0.000 A 
ATOM     13  C   UNL     1      18.322  -7.094  26.362  0.00  0.00    +0.000 A 
ATOM     14  C   UNL     1      17.018  -6.845  27.041  0.00  0.00    +0.000 C 
ATOM     15  C   UNL     1      19.253  -6.091  26.209  0.00  0.00    +0.000 A 
ATOM     16  C   UNL     1      18.875  -4.754  26.760  0.00  0.00    +0.000 C 
ATOM     17  C   UNL     1      20.465  -6.268  25.593  0.00  0.00    +0.000 A 
ENDBRANCH   9  10
BRANCH   1  19
ATOM     18  C   UNL     1      23.736  -8.556  21.607  0.00  0.00    +0.000 C 
ATOM     19  C   UNL     1      24.299  -7.923  22.869  0.00  0.00    +0.000 C 
ENDBRANCH   1  19
TORSDOF 2
ENDMDL
MODEL 7
REMARK VINA RESULT:      -5.7     20.178     22.936
REMARK  Name = 
REMARK  2 active torsions:
REMARK  status: ('A' for Active; 'I' for Inactive)
REMARK    1  A    between atoms: C_2  and  C_3
REMARK    2  A    between atoms: N_11  and  C_12
REMARK                            x       y       z     vdW  Elec       q    Type
REMARK                         _______ _______ _______ _____ _____    ______ ____
ROOT
ATOM      1  C   UNL     1      22.554  11.221  37.913  0.00  0.00    +0.000 A 
ATOM      2  C   UNL     1      23.505  12.223  38.138  0.00  0.00    +0.000 A 
ATOM      3 CL   UNL     1      25.177  11.862  37.868  0.00  0.00    +0.000 Cl
ATOM      4  N   UNL     1      23.044  13.417  38.553  0.00  0.00    +0.000 NA
ATOM      5  C   UNL     1      21.736  13.676  38.757  0.00  0.00    +0.000 A 
ATOM      6  N   UNL     1      21.331  14.977  39.199  0.00  0.00    +0.000 NA
ATOM      7  N   UNL     1      20.847  12.704  38.537  0.00  0.00    +0.000 NA
ATOM      8  C   UNL     1      21.221  11.474  38.117  0.00  0.00    +0.000 A 
ATOM      9  N   UNL     1      20.279  10.468  37.887  0.00  0.00    +0.000 NA
ENDROOT
BRANCH   9  10
ATOM     10  C   UNL     1      18.873  10.560  38.049  0.00  0.00    +0.000 A 
ATOM     11  C   UNL     1      18.122  11.220  37.099  0.00  0.00    +0.000 A 
ATOM     12  C   UNL     1      16.751  11.350  37.201  0.00  0.00    +0.000 A 
ATOM     13  C   UNL     1      16.067  10.818  38.271  0.00  0.00    +0.000 A 
ATOM     14  C   UNL     1      14.588  10.934  38.425  0.00  0.00    +0.000 C 
ATOM     15  C   UNL     1      16.835  10.163  39.209  0.00  0.00    +0.000 A 
ATOM     16  C   UNL     1      16.098   9.585  40.373  0.00  0.00    +0.000 C 
ATOM     17  C   UNL     1      18.196  10.029  39.115  0.00  0.00    +0.000 A 
ENDBRANCH   9  10
BRANCH   1  19
ATOM     18  C   UNL     1      23.193   9.831  35.958  0.00  0.00    +0.000 C 
ATOM     19  C   UNL     1      22.923   9.857  37.453  0.00  0.00    +0.000 C 
ENDBRANCH   1  19
TORSDOF 2
ENDMDL
MODEL 8
REMARK VINA RESULT:      -5.6     22.277     25.304
REMARK  Name = 
REMARK  2 active torsions:
REMARK  status: ('A' for Active; 'I' for Inactive)
REMARK    1  A    between atoms: C_2  and  C_3
REMARK    2  A    between atoms: N_11  and  C_12
REMARK                            x       y       z     vdW  Elec       q    Type
REMARK                         _______ _______ _______ _____ _____    ______ ____
ROOT
ATOM      1  C   UNL     1      17.650   8.016  41.347  0.00  0.00    +0.000 A 
ATOM      2  C   UNL     1      17.224   6.802  41.900  0.00  0.00    +0.000 A 
ATOM      3 CL   UNL     1      15.939   6.820  43.060  0.00  0.00    +0.000 Cl
ATOM      4  N   UNL     1      17.855   5.689  41.483  0.00  0.00    +0.000 NA
ATOM      5  C   UNL     1      18.854   5.699  40.577  0.00  0.00    +0.000 A 
ATOM      6  N   UNL     1      19.470   4.466  40.186  0.00  0.00    +0.000 NA
ATOM      7  N   UNL     1      19.244   6.869  40.064  0.00  0.00    +0.000 NA
ATOM      8  C   UNL     1      18.666   8.037  40.425  0.00  0.00    +0.000 A 
ATOM      9  N   UNL     1      19.082   9.253  39.876  0.00  0.00    +0.000 NA
ENDROOT
BRANCH   9  10
ATOM     10  C   UNL     1      20.111   9.452  38.921  0.00  0.00    +0.000 A 
ATOM     11  C   UNL     1      19.778   9.680  37.602  0.00  0.00    +0.000 A 
ATOM     12  C   UNL     1      20.731   9.875  36.622  0.00  0.00    +0.000 A 
ATOM     13  C   UNL     1      22.074   9.850  36.926  0.00  0.00    +0.000 A 
ATOM     14  C   UNL     1      23.138  10.055  35.902  0.00  0.00    +0.000 C 
ATOM     15  C   UNL     1      22.386   9.622  38.248  0.00  0.00    +0.000 A 
ATOM     16  C   UNL     1      23.842   9.592  38.583  0.00  0.00    +0.000 C 
ATOM     17  C   UNL     1      21.446   9.427  39.227  0.00  0.00    +0.000 A 
ENDBRANCH   9  10
BRANCH   1  19
ATOM     18  C   UNL     1      15.729   9.547  40.989  0.00  0.00    +0.000 C 
ATOM     19  C   UNL     1      17.043   9.321  41.718  0.00  0.00    +0.000 C 
ENDBRANCH   1  19
TORSDOF 2
ENDMDL
MODEL 9
REMARK VINA RESULT:      -5.6      4.312      6.461
REMARK  Name = 
REMARK  2 active torsions:
REMARK  status: ('A' for Active; 'I' for Inactive)
REMARK    1  A    between atoms: C_2  and  C_3
REMARK    2  A    between atoms: N_11  and  C_12
REMARK                            x       y       z     vdW  Elec       q    Type
REMARK                         _______ _______ _______ _____ _____    ______ ____
ROOT
ATOM      1  C   UNL     1      31.605  22.021  29.802  0.00  0.00    +0.000 A 
ATOM      2  C   UNL     1      30.988  21.978  31.058  0.00  0.00    +0.000 A 
ATOM      3 CL   UNL     1      31.851  21.280  32.387  0.00  0.00    +0.000 Cl
ATOM      4  N   UNL     1      29.747  22.490  31.145  0.00  0.00    +0.000 NA
ATOM      5  C   UNL     1      29.093  23.030  30.095  0.00  0.00    +0.000 A 
ATOM      6  N   UNL     1      27.773  23.556  30.275  0.00  0.00    +0.000 NA
ATOM      7  N   UNL     1      29.702  23.060  28.907  0.00  0.00    +0.000 NA
ATOM      8  C   UNL     1      30.949  22.568  28.728  0.00  0.00    +0.000 A 
ATOM      9  N   UNL     1      31.575  22.610  27.479  0.00  0.00    +0.000 NA
ENDROOT
BRANCH   9  10
ATOM     10  C   UNL     1      31.042  23.134  26.274  0.00  0.00    +0.000 A 
ATOM     11  C   UNL     1      30.402  22.291  25.391  0.00  0.00    +0.000 A 
ATOM     12  C   UNL     1      29.867  22.736  24.198  0.00  0.00    +0.000 A 
ATOM     13  C   UNL     1      29.953  24.062  23.836  0.00  0.00    +0.000 A 
ATOM     14  C   UNL     1      29.392  24.589  22.559  0.00  0.00    +0.000 C 
ATOM     15  C   UNL     1      30.596  24.889  24.731  0.00  0.00    +0.000 A 
ATOM     16  C   UNL     1      30.694  26.328  24.342  0.00  0.00    +0.000 C 
ATOM     17  C   UNL     1      31.129  24.454  25.917  0.00  0.00    +0.000 A 
ENDBRANCH   9  10
BRANCH   1  19
ATOM     18  C   UNL     1      34.035  22.518  29.919  0.00  0.00    +0.000 C 
ATOM     19  C   UNL     1      32.973  21.491  29.564  0.00  0.00    +0.000 C 
ENDBRANCH   1  19
TORSDOF 2
ENDMDL
MODEL 10
REMARK VINA RESULT:      -5.6      4.581      8.051
REMARK  Name = 
REMARK  2 active torsions:
REMARK  status: ('A' for Active; 'I' for Inactive)
REMARK    1  A    between atoms: C_2  and  C_3
REMARK    2  A    between atoms: N_11  and  C_12
REMARK                            x       y       z     vdW  Elec       q    Type
REMARK                         _______ _______ _______ _____ _____    ______ ____
ROOT
ATOM      1  C   UNL     1      27.789  24.577  25.048  0.00  0.00    +0.000 A 
ATOM      2  C   UNL     1      28.346  23.682  24.126  0.00  0.00    +0.000 A 
ATOM      3 CL   UNL     1      30.040  23.340  24.217  0.00  0.00    +0.000 Cl
ATOM      4  N   UNL     1      27.510  23.142  23.221  0.00  0.00    +0.000 NA
ATOM      5  C   UNL     1      26.192  23.424  23.169  0.00  0.00    +0.000 A 
ATOM      6  N   UNL     1      25.371  22.803  22.172  0.00  0.00    +0.000 NA
ATOM      7  N   UNL     1      25.683  24.281  24.058  0.00  0.00    +0.000 NA
ATOM      8  C   UNL     1      26.448  24.870  25.004  0.00  0.00    +0.000 A 
ATOM      9  N   UNL     1      25.902  25.762  25.931  0.00  0.00    +0.000 NA
ENDROOT
BRANCH   9  10
ATOM     10  C   UNL     1      24.548  26.174  26.024  0.00  0.00    +0.000 A 
ATOM     11  C   UNL     1      23.776  25.736  27.080  0.00  0.00    +0.000 A 
ATOM     12  C   UNL     1      22.451  26.095  27.225  0.00  0.00    +0.000 A 
ATOM     13  C   UNL     1      21.835  26.918  26.307  0.00  0.00    +0.000 A 
ATOM     14  C   UNL     1      20.407  27.331  26.421  0.00  0.00    +0.000 C 
ATOM     15  C   UNL     1      22.623  27.344  25.260  0.00  0.00    +0.000 A 
ATOM     16  C   UNL     1      21.960  28.235  24.261  0.00  0.00    +0.000 C 
ATOM     17  C   UNL     1      23.939  26.993  25.109  0.00  0.00    +0.000 A 
ENDBRANCH   9  10
BRANCH   1  19
ATOM     18  C   UNL     1      28.716  24.376  27.342  0.00  0.00    +0.000 C 
ATOM     19  C   UNL     1      28.596  25.246  26.102  0.00  0.00    +0.000 C 
ENDBRANCH   1  19
TORSDOF 2
ENDMDL
