MODEL 1
REMARK VINA RESULT:      -5.3      0.000      0.000
REMARK  Name = 
REMARK  3 active torsions:
REMARK  status: ('A' for Active; 'I' for Inactive)
REMARK    1  A    between atoms: O_2  and  C_3
REMARK    2  A    between atoms: C_3  and  C_5
REMARK    3  A    between atoms: C_12  and  C_13
REMARK                            x       y       z     vdW  Elec       q    Type
REMARK                         _______ _______ _______ _____ _____    ______ ____
ROOT
ATOM      1  C   UNL     1      26.606  23.623  24.970  0.00  0.00    +0.000 C 
ATOM      2  C   UNL     1      25.927  24.467  25.659  0.00  0.00    +0.000 C 
ATOM      3  C   UNL     1      25.090  25.508  24.954  0.00  0.00    +0.000 C 
ATOM      4  N   UNL     1      25.873  24.498  27.070  0.00  0.00    +0.000 NA
ATOM      5  C   UNL     1      26.639  23.501  27.737  0.00  0.00    +0.000 C 
ATOM      6  S   UNL     1      26.558  23.564  29.398  0.00  0.00    +0.000 S 
ATOM      7  N   UNL     1      27.354  22.603  27.033  0.00  0.00    +0.000 NA
ATOM      8  C   UNL     1      27.522  22.525  25.560  0.00  0.00    +0.000 C 
ENDROOT
BRANCH   8   9
ATOM      9  C   UNL     1      28.923  23.230  25.400  0.00  0.00    +0.000 A 
ATOM     10  C   UNL     1      29.160  24.460  25.898  0.00  0.00    +0.000 A 
ATOM     11  C   UNL     1      30.411  25.063  25.748  0.00  0.00    +0.000 A 
ATOM     12  C   UNL     1      31.408  24.424  25.102  0.00  0.00    +0.000 A 
ATOM     13  O   UNL     1      32.693  24.995  24.926  0.00  0.00    +0.000 OA
ATOM     14  C   UNL     1      31.188  23.166  24.585  0.00  0.00    +0.000 A 
ATOM     15  C   UNL     1      29.920  22.574  24.745  0.00  0.00    +0.000 A 
ENDBRANCH   8   9
BRANCH   1  16
ATOM     16  C   UNL     1      26.564  23.669  23.524  0.00  0.00    +0.000 C 
ATOM     17  O   UNL     1      25.853  22.889  22.873  0.00  0.00    +0.000 OA
BRANCH  16  19
ATOM     18  C   UNL     1      28.253  24.126  21.861  0.00  0.00    +0.000 C 
ATOM     19  O   UNL     1      27.351  24.621  22.841  0.00  0.00    +0.000 OA
ENDBRANCH  16  19
ENDBRANCH   1  16
TORSDOF 3
ENDMDL
MODEL 2
REMARK VINA RESULT:      -5.1      3.462      5.735
REMARK  Name = 
REMARK  3 active torsions:
REMARK  status: ('A' for Active; 'I' for Inactive)
REMARK    1  A    between atoms: O_2  and  C_3
REMARK    2  A    between atoms: C_3  and  C_5
REMARK    3  A    between atoms: C_12  and  C_13
REMARK                            x       y       z     vdW  Elec       q    Type
REMARK                         _______ _______ _______ _____ _____    ______ ____
ROOT
ATOM      1  C   UNL     1      29.515  22.925  26.972  0.00  0.00    +0.000 C 
ATOM      2  C   UNL     1      29.706  23.803  26.056  0.00  0.00    +0.000 C 
ATOM      3  C   UNL     1      30.980  24.615  26.050  0.00  0.00    +0.000 C 
ATOM      4  N   UNL     1      28.809  24.074  24.999  0.00  0.00    +0.000 NA
ATOM      5  C   UNL     1      27.620  23.291  24.985  0.00  0.00    +0.000 C 
ATOM      6  S   UNL     1      26.581  23.635  23.731  0.00  0.00    +0.000 S 
ATOM      7  N   UNL     1      27.402  22.361  25.935  0.00  0.00    +0.000 NA
ATOM      8  C   UNL     1      28.250  22.045  27.112  0.00  0.00    +0.000 C 
ENDROOT
BRANCH   8   9
ATOM      9  C   UNL     1      27.486  22.850  28.232  0.00  0.00    +0.000 A 
ATOM     10  C   UNL     1      27.120  24.136  28.059  0.00  0.00    +0.000 A 
ATOM     11  C   UNL     1      26.439  24.827  29.063  0.00  0.00    +0.000 A 
ATOM     12  C   UNL     1      26.134  24.220  30.229  0.00  0.00    +0.000 A 
ATOM     13  O   UNL     1      25.445  24.880  31.275  0.00  0.00    +0.000 OA
ATOM     14  C   UNL     1      26.499  22.906  30.427  0.00  0.00    +0.000 A 
ATOM     15  C   UNL     1      27.185  22.225  29.403  0.00  0.00    +0.000 A 
ENDBRANCH   8   9
BRANCH   1  16
ATOM     16  C   UNL     1      30.520  22.714  27.993  0.00  0.00    +0.000 C 
ATOM     17  O   UNL     1      31.338  21.786  27.911  0.00  0.00    +0.000 OA
BRANCH  16  19
ATOM     18  C   UNL     1      30.664  22.980  30.388  0.00  0.00    +0.000 C 
ATOM     19  O   UNL     1      30.567  23.582  29.104  0.00  0.00    +0.000 OA
ENDBRANCH  16  19
ENDBRANCH   1  16
TORSDOF 3
ENDMDL
MODEL 3
REMARK VINA RESULT:      -5.1     32.829     34.256
REMARK  Name = 
REMARK  3 active torsions:
REMARK  status: ('A' for Active; 'I' for Inactive)
REMARK    1  A    between atoms: O_2  and  C_3
REMARK    2  A    between atoms: C_3  and  C_5
REMARK    3  A    between atoms: C_12  and  C_13
REMARK                            x       y       z     vdW  Elec       q    Type
REMARK                         _______ _______ _______ _____ _____    ______ ____
ROOT
ATOM      1  C   UNL     1      17.845 -10.159  26.611  0.00  0.00    +0.000 C 
ATOM      2  C   UNL     1      16.892 -10.474  27.411  0.00  0.00    +0.000 C 
ATOM      3  C   UNL     1      15.564 -10.928  26.851  0.00  0.00    +0.000 C 
ATOM      4  N   UNL     1      16.983 -10.456  28.820  0.00  0.00    +0.000 NA
ATOM      5  C   UNL     1      18.241 -10.055  29.351  0.00  0.00    +0.000 C 
ATOM      6  S   UNL     1      18.317 -10.040  31.013  0.00  0.00    +0.000 S 
ATOM      7  N   UNL     1      19.256  -9.725  28.529  0.00  0.00    +0.000 NA
ATOM      8  C   UNL     1      19.242  -9.655  27.046  0.00  0.00    +0.000 C 
ENDROOT
BRANCH   8   9
ATOM      9  C   UNL     1      19.045  -8.105  26.839  0.00  0.00    +0.000 A 
ATOM     10  C   UNL     1      18.047  -7.429  27.444  0.00  0.00    +0.000 A 
ATOM     11  C   UNL     1      17.895  -6.054  27.251  0.00  0.00    +0.000 A 
ATOM     12  C   UNL     1      18.745  -5.375  26.454  0.00  0.00    +0.000 A 
ATOM     13  O   UNL     1      18.631  -3.981  26.228  0.00  0.00    +0.000 OA
ATOM     14  C   UNL     1      19.772  -6.045  25.826  0.00  0.00    +0.000 A 
ATOM     15  C   UNL     1      19.910  -7.432  26.033  0.00  0.00    +0.000 A 
ENDBRANCH   8   9
BRANCH   1  16
ATOM     16  C   UNL     1      17.646 -10.242  25.179  0.00  0.00    +0.000 C 
ATOM     17  O   UNL     1      18.045 -11.218  24.528  0.00  0.00    +0.000 OA
BRANCH  16  19
ATOM     18  C   UNL     1      16.076  -9.548  23.482  0.00  0.00    +0.000 C 
ATOM     19  O   UNL     1      16.986  -9.188  24.513  0.00  0.00    +0.000 OA
ENDBRANCH  16  19
ENDBRANCH   1  16
TORSDOF 3
ENDMDL
MODEL 4
REMARK VINA RESULT:      -5.1      2.564      4.703
REMARK  Name = 
REMARK  3 active torsions:
REMARK  status: ('A' for Active; 'I' for Inactive)
REMARK    1  A    between atoms: O_2  and  C_3
REMARK    2  A    between atoms: C_3  and  C_5
REMARK    3  A    between atoms: C_12  and  C_13
REMARK                            x       y       z     vdW  Elec       q    Type
REMARK                         _______ _______ _______ _____ _____    ______ ____
ROOT
ATOM      1  C   UNL     1      27.753  23.859  27.909  0.00  0.00    +0.000 C 
ATOM      2  C   UNL     1      26.945  23.501  28.839  0.00  0.00    +0.000 C 
ATOM      3  C   UNL     1      27.209  22.232  29.615  0.00  0.00    +0.000 C 
ATOM      4  N   UNL     1      25.798  24.226  29.233  0.00  0.00    +0.000 NA
ATOM      5  C   UNL     1      25.560  25.436  28.523  0.00  0.00    +0.000 C 
ATOM      6  S   UNL     1      24.201  26.266  29.007  0.00  0.00    +0.000 S 
ATOM      7  N   UNL     1      26.399  25.832  27.547  0.00  0.00    +0.000 NA
ATOM      8  C   UNL     1      27.589  25.116  27.022  0.00  0.00    +0.000 C 
ENDROOT
BRANCH   8   9
ATOM      9  C   UNL     1      26.972  24.455  25.731  0.00  0.00    +0.000 A 
ATOM     10  C   UNL     1      25.901  23.638  25.793  0.00  0.00    +0.000 A 
ATOM     11  C   UNL     1      25.368  23.069  24.635  0.00  0.00    +0.000 A 
ATOM     12  C   UNL     1      25.916  23.324  23.429  0.00  0.00    +0.000 A 
ATOM     13  O   UNL     1      25.411  22.770  22.228  0.00  0.00    +0.000 OA
ATOM     14  C   UNL     1      27.011  24.156  23.342  0.00  0.00    +0.000 A 
ATOM     15  C   UNL     1      27.535  24.722  24.521  0.00  0.00    +0.000 A 
ENDBRANCH   8   9
BRANCH   1  16
ATOM     16  C   UNL     1      28.915  23.049  27.609  0.00  0.00    +0.000 C 
ATOM     17  O   UNL     1      28.819  21.998  26.959  0.00  0.00    +0.000 OA
BRANCH  16  19
ATOM     18  C   UNL     1      31.079  22.449  28.493  0.00  0.00    +0.000 C 
ATOM     19  O   UNL     1      30.183  23.466  28.067  0.00  0.00    +0.000 OA
ENDBRANCH  16  19
ENDBRANCH   1  16
TORSDOF 3
ENDMDL
MODEL 5
REMARK VINA RESULT:      -5.0     19.612     21.797
REMARK  Name = 
REMARK  3 active torsions:
REMARK  status: ('A' for Active; 'I' for Inactive)
REMARK    1  A    between atoms: O_2  and  C_3
REMARK    2  A    between atoms: C_3  and  C_5
REMARK    3  A    between atoms: C_12  and  C_13
REMARK                            x       y       z     vdW  Elec       q    Type
REMARK                         _______ _______ _______ _____ _____    ______ ____
ROOT
ATOM      1  C   UNL     1      19.429  10.990  37.915  0.00  0.00    +0.000 C 
ATOM      2  C   UNL     1      18.933  12.165  37.772  0.00  0.00    +0.000 C 
ATOM      3  C   UNL     1      19.677  13.364  38.312  0.00  0.00    +0.000 C 
ATOM      4  N   UNL     1      17.719  12.453  37.110  0.00  0.00    +0.000 NA
ATOM      5  C   UNL     1      17.028  11.329  36.576  0.00  0.00    +0.000 C 
ATOM      6  S   UNL     1      15.600  11.697  35.805  0.00  0.00    +0.000 S 
ATOM      7  N   UNL     1      17.534  10.088  36.711  0.00  0.00    +0.000 NA
ATOM      8  C   UNL     1      18.763   9.679  37.436  0.00  0.00    +0.000 C 
ENDROOT
BRANCH   8   9
ATOM      9  C   UNL     1      18.136   9.183  38.795  0.00  0.00    +0.000 A 
ATOM     10  C   UNL     1      17.127   9.846  39.395  0.00  0.00    +0.000 A 
ATOM     11  C   UNL     1      16.583   9.385  40.596  0.00  0.00    +0.000 A 
ATOM     12  C   UNL     1      17.059   8.266  41.180  0.00  0.00    +0.000 A 
ATOM     13  O   UNL     1      16.540   7.761  42.397  0.00  0.00    +0.000 OA
ATOM     14  C   UNL     1      18.090   7.573  40.584  0.00  0.00    +0.000 A 
ATOM     15  C   UNL     1      18.626   8.053  39.373  0.00  0.00    +0.000 A 
ENDBRANCH   8   9
BRANCH   1  16
ATOM     16  C   UNL     1      20.698  10.818  38.590  0.00  0.00    +0.000 C 
ATOM     17  O   UNL     1      20.782  10.854  39.826  0.00  0.00    +0.000 OA
BRANCH  16  19
ATOM     18  C   UNL     1      22.902  11.567  37.950  0.00  0.00    +0.000 C 
ATOM     19  O   UNL     1      21.863  10.605  37.823  0.00  0.00    +0.000 OA
ENDBRANCH  16  19
ENDBRANCH   1  16
TORSDOF 3
ENDMDL
MODEL 6
REMARK VINA RESULT:      -5.0      3.410      4.862
REMARK  Name = 
REMARK  3 active torsions:
REMARK  status: ('A' for Active; 'I' for Inactive)
REMARK    1  A    between atoms: O_2  and  C_3
REMARK    2  A    between atoms: C_3  and  C_5
REMARK    3  A    between atoms: C_12  and  C_13
REMARK                            x       y       z     vdW  Elec       q    Type
REMARK                         _______ _______ _______ _____ _____    ______ ____
ROOT
ATOM      1  C   UNL     1      29.967  23.342  25.929  0.00  0.00    +0.000 C 
ATOM      2  C   UNL     1      30.704  24.106  26.649  0.00  0.00    +0.000 C 
ATOM      3  C   UNL     1      30.186  24.616  27.974  0.00  0.00    +0.000 C 
ATOM      4  N   UNL     1      32.014  24.513  26.313  0.00  0.00    +0.000 NA
ATOM      5  C   UNL     1      32.516  24.014  25.079  0.00  0.00    +0.000 C 
ATOM      6  S   UNL     1      34.061  24.512  24.708  0.00  0.00    +0.000 S 
ATOM      7  N   UNL     1      31.761  23.206  24.310  0.00  0.00    +0.000 NA
ATOM      8  C   UNL     1      30.361  22.772  24.546  0.00  0.00    +0.000 C 
ENDROOT
BRANCH   8   9
ATOM      9  C   UNL     1      29.593  23.783  23.611  0.00  0.00    +0.000 A 
ATOM     10  C   UNL     1      29.932  25.086  23.544  0.00  0.00    +0.000 A 
ATOM     11  C   UNL     1      29.241  25.962  22.704  0.00  0.00    +0.000 A 
ATOM     12  C   UNL     1      28.220  25.520  21.942  0.00  0.00    +0.000 A 
ATOM     13  O   UNL     1      27.490  26.371  21.075  0.00  0.00    +0.000 OA
ATOM     14  C   UNL     1      27.856  24.192  21.994  0.00  0.00    +0.000 A 
ATOM     15  C   UNL     1      28.564  23.323  22.847  0.00  0.00    +0.000 A 
ENDBRANCH   8   9
BRANCH   1  16
ATOM     16  C   UNL     1      28.646  22.967  26.388  0.00  0.00    +0.000 C 
ATOM     17  O   UNL     1      28.445  21.888  26.963  0.00  0.00    +0.000 OA
BRANCH  16  19
ATOM     18  C   UNL     1      26.322  23.268  25.812  0.00  0.00    +0.000 C 
ATOM     19  O   UNL     1      27.566  23.850  26.176  0.00  0.00    +0.000 OA
ENDBRANCH  16  19
ENDBRANCH   1  16
TORSDOF 3
ENDMDL
MODEL 7
REMARK VINA RESULT:      -5.0      2.482      3.616
REMARK  Name = 
REMARK  3 active torsions:
REMARK  status: ('A' for Active; 'I' for Inactive)
REMARK    1  A    between atoms: O_2  and  C_3
REMARK    2  A    between atoms: C_3  and  C_5
REMARK    3  A    between atoms: C_12  and  C_13
REMARK                            x       y       z     vdW  Elec       q    Type
REMARK                         _______ _______ _______ _____ _____    ______ ____
ROOT
ATOM      1  C   UNL     1      27.270  24.448  26.418  0.00  0.00    +0.000 C 
ATOM      2  C   UNL     1      28.090  24.976  27.253  0.00  0.00    +0.000 C 
ATOM      3  C   UNL     1      27.818  26.360  27.796  0.00  0.00    +0.000 C 
ATOM      4  N   UNL     1      29.255  24.349  27.745  0.00  0.00    +0.000 NA
ATOM      5  C   UNL     1      29.500  23.035  27.257  0.00  0.00    +0.000 C 
ATOM      6  S   UNL     1      30.881  22.322  27.852  0.00  0.00    +0.000 S 
ATOM      7  N   UNL     1      28.650  22.460  26.384  0.00  0.00    +0.000 NA
ATOM      8  C   UNL     1      27.439  23.055  25.766  0.00  0.00    +0.000 C 
ENDROOT
BRANCH   8   9
ATOM      9  C   UNL     1      28.021  23.484  24.365  0.00  0.00    +0.000 A 
ATOM     10  C   UNL     1      27.278  23.431  23.240  0.00  0.00    +0.000 A 
ATOM     11  C   UNL     1      27.813  23.821  22.011  0.00  0.00    +0.000 A 
ATOM     12  C   UNL     1      29.086  24.260  21.924  0.00  0.00    +0.000 A 
ATOM     13  O   UNL     1      29.671  24.666  20.700  0.00  0.00    +0.000 OA
ATOM     14  C   UNL     1      29.863  24.322  23.060  0.00  0.00    +0.000 A 
ATOM     15  C   UNL     1      29.306  23.925  24.292  0.00  0.00    +0.000 A 
ENDBRANCH   8   9
BRANCH   1  16
ATOM     16  C   UNL     1      26.090  25.176  26.003  0.00  0.00    +0.000 C 
ATOM     17  O   UNL     1      26.134  26.008  25.086  0.00  0.00    +0.000 OA
BRANCH  16  19
ATOM     18  C   UNL     1      23.918  25.994  26.667  0.00  0.00    +0.000 C 
ATOM     19  O   UNL     1      24.864  24.934  26.658  0.00  0.00    +0.000 OA
ENDBRANCH  16  19
ENDBRANCH   1  16
TORSDOF 3
ENDMDL
MODEL 8
REMARK VINA RESULT:      -4.9     27.276     28.527
REMARK  Name = 
REMARK  3 active torsions:
REMARK  status: ('A' for Active; 'I' for Inactive)
REMARK    1  A    between atoms: O_2  and  C_3
REMARK    2  A    between atoms: C_3  and  C_5
REMARK    3  A    between atoms: C_12  and  C_13
REMARK                            x       y       z     vdW  Elec       q    Type
REMARK                         _______ _______ _______ _____ _____    ______ ____
ROOT
ATOM      1  C   UNL     1      34.009  -3.074  35.805  0.00  0.00    +0.000 C 
ATOM      2  C   UNL     1      34.866  -3.902  35.329  0.00  0.00    +0.000 C 
ATOM      3  C   UNL     1      36.187  -4.102  36.034  0.00  0.00    +0.000 C 
ATOM      4  N   UNL     1      34.670  -4.690  34.173  0.00  0.00    +0.000 NA
ATOM      5  C   UNL     1      33.416  -4.525  33.521  0.00  0.00    +0.000 C 
ATOM      6  S   UNL     1      33.215  -5.464  32.161  0.00  0.00    +0.000 S 
ATOM      7  N   UNL     1      32.501  -3.665  34.007  0.00  0.00    +0.000 NA
ATOM      8  C   UNL     1      32.634  -2.755  35.172  0.00  0.00    +0.000 C 
ENDROOT
BRANCH   8   9
ATOM      9  C   UNL     1      32.985  -1.405  34.435  0.00  0.00    +0.000 A 
ATOM     10  C   UNL     1      32.307  -0.266  34.679  0.00  0.00    +0.000 A 
ATOM     11  C   UNL     1      32.639   0.919  34.019  0.00  0.00    +0.000 A 
ATOM     12  C   UNL     1      33.646   0.946  33.122  0.00  0.00    +0.000 A 
ATOM     13  O   UNL     1      34.019   2.123  32.428  0.00  0.00    +0.000 OA
ATOM     14  C   UNL     1      34.353  -0.207  32.858  0.00  0.00    +0.000 A 
ATOM     15  C   UNL     1      34.004  -1.392  33.533  0.00  0.00    +0.000 A 
ENDBRANCH   8   9
BRANCH   1  16
ATOM     16  C   UNL     1      34.309  -2.338  37.015  0.00  0.00    +0.000 C 
ATOM     17  O   UNL     1      33.675  -2.534  38.062  0.00  0.00    +0.000 OA
BRANCH  16  19
ATOM     18  C   UNL     1      34.963  -0.021  37.181  0.00  0.00    +0.000 C 
ATOM     19  O   UNL     1      35.342  -1.378  37.000  0.00  0.00    +0.000 OA
ENDBRANCH  16  19
ENDBRANCH   1  16
TORSDOF 3
ENDMDL
MODEL 9
REMARK VINA RESULT:      -4.8     32.523     33.963
REMARK  Name = 
REMARK  3 active torsions:
REMARK  status: ('A' for Active; 'I' for Inactive)
REMARK    1  A    between atoms: O_2  and  C_3
REMARK    2  A    between atoms: C_3  and  C_5
REMARK    3  A    between atoms: C_12  and  C_13
REMARK                            x       y       z     vdW  Elec       q    Type
REMARK                         _______ _______ _______ _____ _____    ______ ____
ROOT
ATOM      1  C   UNL     1      17.427  -9.101  27.590  0.00  0.00    +0.000 C 
ATOM      2  C   UNL     1      17.046 -10.138  26.937  0.00  0.00    +0.000 C 
ATOM      3  C   UNL     1      17.454 -11.514  27.411  0.00  0.00    +0.000 C 
ATOM      4  N   UNL     1      16.231 -10.110  25.784  0.00  0.00    +0.000 NA
ATOM      5  C   UNL     1      15.822  -8.818  25.351  0.00  0.00    +0.000 C 
ATOM      6  S   UNL     1      14.865  -8.816  23.989  0.00  0.00    +0.000 S 
ATOM      7  N   UNL     1      16.207  -7.717  26.025  0.00  0.00    +0.000 NA
ATOM      8  C   UNL     1      17.105  -7.638  27.204  0.00  0.00    +0.000 C 
ENDROOT
BRANCH   8   9
ATOM      9  C   UNL     1      18.459  -7.243  26.499  0.00  0.00    +0.000 A 
ATOM     10  C   UNL     1      18.907  -5.971  26.484  0.00  0.00    +0.000 A 
ATOM     11  C   UNL     1      20.112  -5.645  25.859  0.00  0.00    +0.000 A 
ATOM     12  C   UNL     1      20.853  -6.598  25.256  0.00  0.00    +0.000 A 
ATOM     13  O   UNL     1      22.081  -6.315  24.610  0.00  0.00    +0.000 OA
ATOM     14  C   UNL     1      20.414  -7.904  25.259  0.00  0.00    +0.000 A 
ATOM     15  C   UNL     1      19.196  -8.214  25.895  0.00  0.00    +0.000 A 
ENDBRANCH   8   9
BRANCH   1  16
ATOM     16  C   UNL     1      18.242  -9.252  28.777  0.00  0.00    +0.000 C 
ATOM     17  O   UNL     1      17.742  -9.217  29.911  0.00  0.00    +0.000 OA
BRANCH  16  19
ATOM     18  C   UNL     1      20.322  -9.986  29.757  0.00  0.00    +0.000 C 
ATOM     19  O   UNL     1      19.633  -9.442  28.640  0.00  0.00    +0.000 OA
ENDBRANCH  16  19
ENDBRANCH   1  16
TORSDOF 3
ENDMDL
MODEL 10
REMARK VINA RESULT:      -4.8     18.723     20.676
REMARK  Name = 
REMARK  3 active torsions:
REMARK  status: ('A' for Active; 'I' for Inactive)
REMARK    1  A    between atoms: O_2  and  C_3
REMARK    2  A    between atoms: C_3  and  C_5
REMARK    3  A    between atoms: C_12  and  C_13
REMARK                            x       y       z     vdW  Elec       q    Type
REMARK                         _______ _______ _______ _____ _____    ______ ____
ROOT
ATOM      1  C   UNL     1      19.623  10.059  39.446  0.00  0.00    +0.000 C 
ATOM      2  C   UNL     1      18.746   9.226  39.018  0.00  0.00    +0.000 C 
ATOM      3  C   UNL     1      18.564   7.902  39.722  0.00  0.00    +0.000 C 
ATOM      4  N   UNL     1      17.887   9.452  37.919  0.00  0.00    +0.000 NA
ATOM      5  C   UNL     1      18.036  10.709  37.270  0.00  0.00    +0.000 C 
ATOM      6  S   UNL     1      17.014  10.946  35.978  0.00  0.00    +0.000 S 
ATOM      7  N   UNL     1      18.948  11.600  37.706  0.00  0.00    +0.000 NA
ATOM      8  C   UNL     1      19.930  11.434  38.806  0.00  0.00    +0.000 C 
ENDROOT
BRANCH   8   9
ATOM      9  C   UNL     1      21.219  11.062  37.977  0.00  0.00    +0.000 A 
ATOM     10  C   UNL     1      21.220  10.058  37.078  0.00  0.00    +0.000 A 
ATOM     11  C   UNL     1      22.372   9.750  36.351  0.00  0.00    +0.000 A 
ATOM     12  C   UNL     1      23.509  10.453  36.535  0.00  0.00    +0.000 A 
ATOM     13  O   UNL     1      24.701  10.177  35.822  0.00  0.00    +0.000 OA
ATOM     14  C   UNL     1      23.530  11.483  37.450  0.00  0.00    +0.000 A 
ATOM     15  C   UNL     1      22.359  11.780  38.173  0.00  0.00    +0.000 A 
ENDBRANCH   8   9
BRANCH   1  16
ATOM     16  C   UNL     1      20.431   9.731  40.601  0.00  0.00    +0.000 C 
ATOM     17  O   UNL     1      20.181  10.204  41.719  0.00  0.00    +0.000 OA
BRANCH  16  19
ATOM     18  C   UNL     1      22.782   9.303  40.941  0.00  0.00    +0.000 C 
ATOM     19  O   UNL     1      21.526   8.855  40.450  0.00  0.00    +0.000 OA
ENDBRANCH  16  19
ENDBRANCH   1  16
TORSDOF 3
ENDMDL
