MODEL 1
REMARK VINA RESULT:      -7.7      0.000      0.000
REMARK  Name = 
REMARK  7 active torsions:
REMARK  status: ('A' for Active; 'I' for Inactive)
REMARK    1  A    between atoms: N_2  and  C_4
REMARK    2  A    between atoms: C_7  and  C_8
REMARK    3  A    between atoms: C_9  and  N_10
REMARK    4  A    between atoms: C_9  and  C_19
REMARK    5  A    between atoms: C_11  and  C_13
REMARK    6  A    between atoms: N_21  and  N_22
REMARK    7  A    between atoms: C_23  and  C_24
REMARK                            x       y       z     vdW  Elec       q    Type
REMARK                         _______ _______ _______ _____ _____    ______ ____
ROOT
ATOM      1  C   UNL     1      36.922   2.514  13.911  0.00  0.00    +0.000 C 
ATOM      2  C   UNL     1      37.884   2.211  14.726  0.00  0.00    +0.000 C 
ENDROOT
BRANCH   1   6
ATOM      3  C   UNL     1      35.097   6.288  13.062  0.00  0.00    +0.000 A 
ATOM      4  C   UNL     1      34.747   5.503  14.135  0.00  0.00    +0.000 A 
ATOM      5  C   UNL     1      35.367   4.303  14.380  0.00  0.00    +0.000 A 
ATOM      6  C   UNL     1      36.394   3.800  13.561  0.00  0.00    +0.000 A 
ATOM      7  C   UNL     1      36.720   4.594  12.508  0.00  0.00    +0.000 A 
ATOM      8  C   UNL     1      36.108   5.797  12.250  0.00  0.00    +0.000 A 
BRANCH   3  10
ATOM      9  C   UNL     1      34.185   7.995  11.461  0.00  0.00    +0.000 C 
ATOM     10  N   UNL     1      34.454   7.524  12.799  0.00  0.00    +0.000 N 
ATOM     11  C   UNL     1      34.044   8.352  13.923  0.00  0.00    +0.000 C 
ENDBRANCH   3  10
ENDBRANCH   1   6
BRANCH   2  12
ATOM     12  N   UNL     1      38.278   0.828  14.944  0.00  0.00    +0.000 NA
ATOM     13  C   UNL     1      37.487  -0.007  15.785  0.00  0.00    +0.000 C 
ATOM     14  O   UNL     1      36.471   0.529  16.300  0.00  0.00    +0.000 OA
BRANCH  13  15
ATOM     15  C   UNL     1      37.794  -1.394  16.064  0.00  0.00    +0.000 A 
ATOM     16  C   UNL     1      36.760  -2.232  16.436  0.00  0.00    +0.000 A 
ATOM     17  C   UNL     1      36.982  -3.565  16.716  0.00  0.00    +0.000 A 
ATOM     18  C   UNL     1      38.287  -4.028  16.606  0.00  0.00    +0.000 A 
ATOM     19  C   UNL     1      39.350  -3.238  16.241  0.00  0.00    +0.000 A 
ATOM     20  C   UNL     1      39.060  -1.904  15.973  0.00  0.00    +0.000 A 
ENDBRANCH  13  15
ENDBRANCH   2  12
BRANCH   2  21
ATOM     21  C   UNL     1      38.543   3.261  15.471  0.00  0.00    +0.000 C 
ATOM     22  O   UNL     1      39.459   3.992  15.087  0.00  0.00    +0.000 OA
ATOM     23  N   UNL     1      38.076   3.485  16.822  0.00  0.00    +0.000 NA
BRANCH  23  24
ATOM     24  N   UNL     1      38.559   4.431  17.683  0.00  0.00    +0.000 NA
ATOM     25  C   UNL     1      38.263   5.655  17.782  0.00  0.00    +0.000 C 
BRANCH  25  26
ATOM     26  C   UNL     1      38.950   6.443  18.810  0.00  0.00    +0.000 A 
ATOM     27  C   UNL     1      40.144   6.133  19.435  0.00  0.00    +0.000 A 
ATOM     28  C   UNL     1      40.398   7.164  20.315  0.00  0.00    +0.000 A 
ATOM     29  C   UNL     1      39.382   8.077  20.228  0.00  0.00    +0.000 A 
ATOM     30  N   UNL     1      38.528   7.602  19.305  0.00  0.00    +0.000 N 
ATOM     31  C   UNL     1      37.295   8.301  18.915  0.00  0.00    +0.000 C 
ENDBRANCH  25  26
ENDBRANCH  23  24
ENDBRANCH   2  21
TORSDOF 7
ENDMDL
MODEL 2
REMARK VINA RESULT:      -7.5      1.399      2.119
REMARK  Name = 
REMARK  7 active torsions:
REMARK  status: ('A' for Active; 'I' for Inactive)
REMARK    1  A    between atoms: N_2  and  C_4
REMARK    2  A    between atoms: C_7  and  C_8
REMARK    3  A    between atoms: C_9  and  N_10
REMARK    4  A    between atoms: C_9  and  C_19
REMARK    5  A    between atoms: C_11  and  C_13
REMARK    6  A    between atoms: N_21  and  N_22
REMARK    7  A    between atoms: C_23  and  C_24
REMARK                            x       y       z     vdW  Elec       q    Type
REMARK                         _______ _______ _______ _____ _____    ______ ____
ROOT
ATOM      1  C   UNL     1      36.516   2.866  14.339  0.00  0.00    +0.000 C 
ATOM      2  C   UNL     1      37.557   2.669  15.087  0.00  0.00    +0.000 C 
ENDROOT
BRANCH   1   6
ATOM      3  C   UNL     1      35.029   6.570  12.802  0.00  0.00    +0.000 A 
ATOM      4  C   UNL     1      35.998   5.826  12.174  0.00  0.00    +0.000 A 
ATOM      5  C   UNL     1      36.439   4.634  12.693  0.00  0.00    +0.000 A 
ATOM      6  C   UNL     1      35.934   4.097  13.891  0.00  0.00    +0.000 A 
ATOM      7  C   UNL     1      34.977   4.851  14.493  0.00  0.00    +0.000 A 
ATOM      8  C   UNL     1      34.526   6.046  13.984  0.00  0.00    +0.000 A 
BRANCH   3  10
ATOM      9  C   UNL     1      34.586   9.032  13.037  0.00  0.00    +0.000 C 
ATOM     10  N   UNL     1      34.576   7.805  12.275  0.00  0.00    +0.000 N 
ATOM     11  C   UNL     1      34.082   7.843  10.907  0.00  0.00    +0.000 C 
ENDBRANCH   3  10
ENDBRANCH   1   6
BRANCH   2  12
ATOM     12  N   UNL     1      37.995   1.325  15.429  0.00  0.00    +0.000 NA
ATOM     13  C   UNL     1      39.038   0.711  14.678  0.00  0.00    +0.000 C 
ATOM     14  O   UNL     1      39.522   1.395  13.738  0.00  0.00    +0.000 OA
BRANCH  13  15
ATOM     15  C   UNL     1      39.544  -0.621  14.939  0.00  0.00    +0.000 A 
ATOM     16  C   UNL     1      38.840  -1.430  15.811  0.00  0.00    +0.000 A 
ATOM     17  C   UNL     1      39.266  -2.710  16.104  0.00  0.00    +0.000 A 
ATOM     18  C   UNL     1      40.429  -3.149  15.486  0.00  0.00    +0.000 A 
ATOM     19  C   UNL     1      41.166  -2.385  14.613  0.00  0.00    +0.000 A 
ATOM     20  C   UNL     1      40.684  -1.105  14.359  0.00  0.00    +0.000 A 
ENDBRANCH  13  15
ENDBRANCH   2  12
BRANCH   2  21
ATOM     21  C   UNL     1      38.265   3.805  15.633  0.00  0.00    +0.000 C 
ATOM     22  O   UNL     1      39.118   4.499  15.073  0.00  0.00    +0.000 OA
ATOM     23  N   UNL     1      37.938   4.178  16.993  0.00  0.00    +0.000 NA
BRANCH  23  24
ATOM     24  N   UNL     1      38.488   5.222  17.684  0.00  0.00    +0.000 NA
ATOM     25  C   UNL     1      39.338   5.209  18.618  0.00  0.00    +0.000 C 
BRANCH  25  26
ATOM     26  C   UNL     1      39.753   6.497  19.182  0.00  0.00    +0.000 A 
ATOM     27  C   UNL     1      39.009   7.322  20.006  0.00  0.00    +0.000 A 
ATOM     28  C   UNL     1      39.808   8.410  20.287  0.00  0.00    +0.000 A 
ATOM     29  C   UNL     1      41.009   8.251  19.648  0.00  0.00    +0.000 A 
ATOM     30  N   UNL     1      40.933   7.080  18.992  0.00  0.00    +0.000 N 
ATOM     31  C   UNL     1      42.032   6.542  18.179  0.00  0.00    +0.000 C 
ENDBRANCH  25  26
ENDBRANCH  23  24
ENDBRANCH   2  21
TORSDOF 7
ENDMDL
MODEL 3
REMARK VINA RESULT:      -7.1      2.150      7.397
REMARK  Name = 
REMARK  7 active torsions:
REMARK  status: ('A' for Active; 'I' for Inactive)
REMARK    1  A    between atoms: N_2  and  C_4
REMARK    2  A    between atoms: C_7  and  C_8
REMARK    3  A    between atoms: C_9  and  N_10
REMARK    4  A    between atoms: C_9  and  C_19
REMARK    5  A    between atoms: C_11  and  C_13
REMARK    6  A    between atoms: N_21  and  N_22
REMARK    7  A    between atoms: C_23  and  C_24
REMARK                            x       y       z     vdW  Elec       q    Type
REMARK                         _______ _______ _______ _____ _____    ______ ____
ROOT
ATOM      1  C   UNL     1      35.792   2.833  14.042  0.00  0.00    +0.000 C 
ATOM      2  C   UNL     1      36.580   3.848  13.868  0.00  0.00    +0.000 C 
ENDROOT
BRANCH   1   6
ATOM      3  C   UNL     1      36.039  -0.412  16.818  0.00  0.00    +0.000 A 
ATOM      4  C   UNL     1      36.741  -0.371  15.637  0.00  0.00    +0.000 A 
ATOM      5  C   UNL     1      36.645   0.696  14.780  0.00  0.00    +0.000 A 
ATOM      6  C   UNL     1      35.830   1.811  15.046  0.00  0.00    +0.000 A 
ATOM      7  C   UNL     1      35.145   1.746  16.218  0.00  0.00    +0.000 A 
ATOM      8  C   UNL     1      35.232   0.684  17.087  0.00  0.00    +0.000 A 
BRANCH   3  10
ATOM      9  C   UNL     1      36.620  -1.393  19.056  0.00  0.00    +0.000 C 
ATOM     10  N   UNL     1      36.128  -1.515  17.704  0.00  0.00    +0.000 N 
ATOM     11  C   UNL     1      35.704  -2.825  17.235  0.00  0.00    +0.000 C 
ENDBRANCH   3  10
ENDBRANCH   1   6
BRANCH   2  12
ATOM     12  N   UNL     1      36.368   4.787  12.777  0.00  0.00    +0.000 NA
ATOM     13  C   UNL     1      35.390   5.814  12.912  0.00  0.00    +0.000 C 
ATOM     14  O   UNL     1      34.756   5.838  13.999  0.00  0.00    +0.000 OA
BRANCH  13  15
ATOM     15  C   UNL     1      35.105   6.796  11.886  0.00  0.00    +0.000 A 
ATOM     16  C   UNL     1      34.602   8.024  12.276  0.00  0.00    +0.000 A 
ATOM     17  C   UNL     1      34.309   9.004  11.350  0.00  0.00    +0.000 A 
ATOM     18  C   UNL     1      34.541   8.707  10.014  0.00  0.00    +0.000 A 
ATOM     19  C   UNL     1      35.038   7.504   9.574  0.00  0.00    +0.000 A 
ATOM     20  C   UNL     1      35.313   6.557  10.556  0.00  0.00    +0.000 A 
ENDBRANCH  13  15
ENDBRANCH   2  12
BRANCH   2  21
ATOM     21  C   UNL     1      37.720   4.022  14.740  0.00  0.00    +0.000 C 
ATOM     22  O   UNL     1      38.826   3.483  14.648  0.00  0.00    +0.000 OA
ATOM     23  N   UNL     1      37.550   4.936  15.850  0.00  0.00    +0.000 NA
BRANCH  23  24
ATOM     24  N   UNL     1      38.506   5.244  16.778  0.00  0.00    +0.000 NA
ATOM     25  C   UNL     1      38.872   6.372  17.212  0.00  0.00    +0.000 C 
BRANCH  25  26
ATOM     26  C   UNL     1      39.935   6.404  18.221  0.00  0.00    +0.000 A 
ATOM     27  C   UNL     1      39.779   6.361  19.594  0.00  0.00    +0.000 A 
ATOM     28  C   UNL     1      41.049   6.407  20.129  0.00  0.00    +0.000 A 
ATOM     29  C   UNL     1      41.955   6.478  19.105  0.00  0.00    +0.000 A 
ATOM     30  N   UNL     1      41.238   6.473  17.968  0.00  0.00    +0.000 N 
ATOM     31  C   UNL     1      41.849   6.534  16.633  0.00  0.00    +0.000 C 
ENDBRANCH  25  26
ENDBRANCH  23  24
ENDBRANCH   2  21
TORSDOF 7
ENDMDL
MODEL 4
REMARK VINA RESULT:      -7.0      2.139      6.395
REMARK  Name = 
REMARK  7 active torsions:
REMARK  status: ('A' for Active; 'I' for Inactive)
REMARK    1  A    between atoms: N_2  and  C_4
REMARK    2  A    between atoms: C_7  and  C_8
REMARK    3  A    between atoms: C_9  and  N_10
REMARK    4  A    between atoms: C_9  and  C_19
REMARK    5  A    between atoms: C_11  and  C_13
REMARK    6  A    between atoms: N_21  and  N_22
REMARK    7  A    between atoms: C_23  and  C_24
REMARK                            x       y       z     vdW  Elec       q    Type
REMARK                         _______ _______ _______ _____ _____    ______ ____
ROOT
ATOM      1  C   UNL     1      38.608   4.631  17.695  0.00  0.00    +0.000 C 
ATOM      2  C   UNL     1      38.287   4.371  16.466  0.00  0.00    +0.000 C 
ENDROOT
BRANCH   1   6
ATOM      3  C   UNL     1      39.401   8.260  19.815  0.00  0.00    +0.000 A 
ATOM      4  C   UNL     1      40.190   7.139  19.913  0.00  0.00    +0.000 A 
ATOM      5  C   UNL     1      39.909   5.998  19.204  0.00  0.00    +0.000 A 
ATOM      6  C   UNL     1      38.806   5.897  18.338  0.00  0.00    +0.000 A 
ATOM      7  C   UNL     1      38.041   7.017  18.259  0.00  0.00    +0.000 A 
ATOM      8  C   UNL     1      38.311   8.167  18.962  0.00  0.00    +0.000 A 
BRANCH   3  10
ATOM      9  C   UNL     1      41.023   9.937  20.745  0.00  0.00    +0.000 C 
ATOM     10  N   UNL     1      39.682   9.439  20.550  0.00  0.00    +0.000 N 
ATOM     11  C   UNL     1      38.575  10.182  21.131  0.00  0.00    +0.000 C 
ENDBRANCH   3  10
ENDBRANCH   1   6
BRANCH   2  12
ATOM     12  N   UNL     1      38.127   3.001  16.004  0.00  0.00    +0.000 NA
ATOM     13  C   UNL     1      36.898   2.318  16.232  0.00  0.00    +0.000 C 
ATOM     14  O   UNL     1      36.007   2.969  16.840  0.00  0.00    +0.000 OA
BRANCH  13  15
ATOM     15  C   UNL     1      36.640   0.957  15.812  0.00  0.00    +0.000 A 
ATOM     16  C   UNL     1      37.303   0.479  14.696  0.00  0.00    +0.000 A 
ATOM     17  C   UNL     1      37.104  -0.808  14.241  0.00  0.00    +0.000 A 
ATOM     18  C   UNL     1      36.213  -1.603  14.951  0.00  0.00    +0.000 A 
ATOM     19  C   UNL     1      35.530  -1.177  16.065  0.00  0.00    +0.000 A 
ATOM     20  C   UNL     1      35.773   0.131  16.472  0.00  0.00    +0.000 A 
ENDBRANCH  13  15
ENDBRANCH   2  12
BRANCH   2  21
ATOM     21  C   UNL     1      38.135   5.458  15.524  0.00  0.00    +0.000 C 
ATOM     22  O   UNL     1      39.030   6.103  14.971  0.00  0.00    +0.000 OA
ATOM     23  N   UNL     1      36.779   5.835  15.187  0.00  0.00    +0.000 NA
BRANCH  23  24
ATOM     24  N   UNL     1      36.425   6.827  14.314  0.00  0.00    +0.000 NA
ATOM     25  C   UNL     1      35.372   7.523  14.272  0.00  0.00    +0.000 C 
BRANCH  25  26
ATOM     26  C   UNL     1      35.260   8.529  13.212  0.00  0.00    +0.000 A 
ATOM     27  C   UNL     1      35.661   9.851  13.275  0.00  0.00    +0.000 A 
ATOM     28  C   UNL     1      35.365  10.403  12.046  0.00  0.00    +0.000 A 
ATOM     29  C   UNL     1      34.798   9.440  11.256  0.00  0.00    +0.000 A 
ATOM     30  N   UNL     1      34.753   8.321  12.000  0.00  0.00    +0.000 N 
ATOM     31  C   UNL     1      34.210   7.048  11.506  0.00  0.00    +0.000 C 
ENDBRANCH  25  26
ENDBRANCH  23  24
ENDBRANCH   2  21
TORSDOF 7
ENDMDL
MODEL 5
REMARK VINA RESULT:      -6.8     25.107     29.078
REMARK  Name = 
REMARK  7 active torsions:
REMARK  status: ('A' for Active; 'I' for Inactive)
REMARK    1  A    between atoms: N_2  and  C_4
REMARK    2  A    between atoms: C_7  and  C_8
REMARK    3  A    between atoms: C_9  and  N_10
REMARK    4  A    between atoms: C_9  and  C_19
REMARK    5  A    between atoms: C_11  and  C_13
REMARK    6  A    between atoms: N_21  and  N_22
REMARK    7  A    between atoms: C_23  and  C_24
REMARK                            x       y       z     vdW  Elec       q    Type
REMARK                         _______ _______ _______ _____ _____    ______ ____
ROOT
ATOM      1  C   UNL     1      26.047  14.867  41.454  0.00  0.00    +0.000 C 
ATOM      2  C   UNL     1      26.366  14.154  40.419  0.00  0.00    +0.000 C 
ENDROOT
BRANCH   1   6
ATOM      3  C   UNL     1      22.821  17.642  41.887  0.00  0.00    +0.000 A 
ATOM      4  C   UNL     1      22.724  16.312  42.219  0.00  0.00    +0.000 A 
ATOM      5  C   UNL     1      23.788  15.456  42.078  0.00  0.00    +0.000 A 
ATOM      6  C   UNL     1      25.038  15.876  41.590  0.00  0.00    +0.000 A 
ATOM      7  C   UNL     1      25.109  17.195  41.269  0.00  0.00    +0.000 A 
ATOM      8  C   UNL     1      24.052  18.063  41.406  0.00  0.00    +0.000 A 
BRANCH   3  10
ATOM      9  C   UNL     1      20.356  18.072  42.107  0.00  0.00    +0.000 C 
ATOM     10  N   UNL     1      21.724  18.529  42.024  0.00  0.00    +0.000 N 
ATOM     11  C   UNL     1      21.983  19.959  42.087  0.00  0.00    +0.000 C 
ENDBRANCH   3  10
ENDBRANCH   1   6
BRANCH   2  12
ATOM     12  N   UNL     1      27.431  13.165  40.486  0.00  0.00    +0.000 NA
ATOM     13  C   UNL     1      27.138  11.842  40.927  0.00  0.00    +0.000 C 
ATOM     14  O   UNL     1      25.940  11.615  41.240  0.00  0.00    +0.000 OA
BRANCH  13  15
ATOM     15  C   UNL     1      28.126  10.788  41.028  0.00  0.00    +0.000 A 
ATOM     16  C   UNL     1      29.379  11.011  40.489  0.00  0.00    +0.000 A 
ATOM     17  C   UNL     1      30.367  10.049  40.550  0.00  0.00    +0.000 A 
ATOM     18  C   UNL     1      30.050   8.851  41.177  0.00  0.00    +0.000 A 
ATOM     19  C   UNL     1      28.820   8.580  41.728  0.00  0.00    +0.000 A 
ATOM     20  C   UNL     1      27.868   9.589  41.633  0.00  0.00    +0.000 A 
ENDBRANCH  13  15
ENDBRANCH   2  12
BRANCH   2  21
ATOM     21  C   UNL     1      25.687  14.380  39.162  0.00  0.00    +0.000 C 
ATOM     22  O   UNL     1      24.489  14.222  38.917  0.00  0.00    +0.000 OA
ATOM     23  N   UNL     1      26.504  14.847  38.062  0.00  0.00    +0.000 NA
BRANCH  23  24
ATOM     24  N   UNL     1      26.053  15.127  36.802  0.00  0.00    +0.000 NA
ATOM     25  C   UNL     1      26.707  15.311  35.737  0.00  0.00    +0.000 C 
BRANCH  25  26
ATOM     26  C   UNL     1      25.952  15.599  34.513  0.00  0.00    +0.000 A 
ATOM     27  C   UNL     1      25.687  14.725  33.475  0.00  0.00    +0.000 A 
ATOM     28  C   UNL     1      24.943  15.433  32.554  0.00  0.00    +0.000 A 
ATOM     29  C   UNL     1      24.761  16.707  33.021  0.00  0.00    +0.000 A 
ATOM     30  N   UNL     1      25.387  16.764  34.210  0.00  0.00    +0.000 N 
ATOM     31  C   UNL     1      25.421  17.974  35.043  0.00  0.00    +0.000 C 
ENDBRANCH  25  26
ENDBRANCH  23  24
ENDBRANCH   2  21
TORSDOF 7
ENDMDL
MODEL 6
REMARK VINA RESULT:      -6.8      3.273      7.388
REMARK  Name = 
REMARK  7 active torsions:
REMARK  status: ('A' for Active; 'I' for Inactive)
REMARK    1  A    between atoms: N_2  and  C_4
REMARK    2  A    between atoms: C_7  and  C_8
REMARK    3  A    between atoms: C_9  and  N_10
REMARK    4  A    between atoms: C_9  and  C_19
REMARK    5  A    between atoms: C_11  and  C_13
REMARK    6  A    between atoms: N_21  and  N_22
REMARK    7  A    between atoms: C_23  and  C_24
REMARK                            x       y       z     vdW  Elec       q    Type
REMARK                         _______ _______ _______ _____ _____    ______ ____
ROOT
ATOM      1  C   UNL     1      38.595  -0.915  13.132  0.00  0.00    +0.000 C 
ATOM      2  C   UNL     1      38.994   0.263  12.765  0.00  0.00    +0.000 C 
ENDROOT
BRANCH   1   6
ATOM      3  C   UNL     1      38.310  -2.479  17.103  0.00  0.00    +0.000 A 
ATOM      4  C   UNL     1      37.328  -1.714  16.519  0.00  0.00    +0.000 A 
ATOM      5  C   UNL     1      37.452  -1.243  15.236  0.00  0.00    +0.000 A 
ATOM      6  C   UNL     1      38.580  -1.507  14.437  0.00  0.00    +0.000 A 
ATOM      7  C   UNL     1      39.535  -2.264  15.037  0.00  0.00    +0.000 A 
ATOM      8  C   UNL     1      39.425  -2.743  16.321  0.00  0.00    +0.000 A 
BRANCH   3  10
ATOM      9  C   UNL     1      37.547  -2.209  19.481  0.00  0.00    +0.000 C 
ATOM     10  N   UNL     1      38.190  -2.962  18.430  0.00  0.00    +0.000 N 
ATOM     11  C   UNL     1      38.735  -4.272  18.749  0.00  0.00    +0.000 C 
ENDBRANCH   3  10
ENDBRANCH   1   6
BRANCH   2  12
ATOM     12  N   UNL     1      38.923   0.681  11.373  0.00  0.00    +0.000 NA
ATOM     13  C   UNL     1      37.669   1.066  10.816  0.00  0.00    +0.000 C 
ATOM     14  O   UNL     1      36.678   1.012  11.590  0.00  0.00    +0.000 OA
BRANCH  13  15
ATOM     15  C   UNL     1      37.494   1.497   9.444  0.00  0.00    +0.000 A 
ATOM     16  C   UNL     1      36.469   2.380   9.162  0.00  0.00    +0.000 A 
ATOM     17  C   UNL     1      36.247   2.832   7.877  0.00  0.00    +0.000 A 
ATOM     18  C   UNL     1      37.096   2.364   6.882  0.00  0.00    +0.000 A 
ATOM     19  C   UNL     1      38.128   1.487   7.111  0.00  0.00    +0.000 A 
ATOM     20  C   UNL     1      38.300   1.069   8.426  0.00  0.00    +0.000 A 
ENDBRANCH  13  15
ENDBRANCH   2  12
BRANCH   2  21
ATOM     21  C   UNL     1      39.567   1.158  13.745  0.00  0.00    +0.000 C 
ATOM     22  O   UNL     1      40.756   1.272  14.054  0.00  0.00    +0.000 OA
ATOM     23  N   UNL     1      38.643   2.025  14.446  0.00  0.00    +0.000 NA
BRANCH  23  24
ATOM     24  N   UNL     1      38.985   2.945  15.398  0.00  0.00    +0.000 NA
ATOM     25  C   UNL     1      38.425   4.037  15.698  0.00  0.00    +0.000 C 
BRANCH  25  26
ATOM     26  C   UNL     1      39.017   4.833  16.778  0.00  0.00    +0.000 A 
ATOM     27  C   UNL     1      38.684   4.791  18.120  0.00  0.00    +0.000 A 
ATOM     28  C   UNL     1      39.505   5.703  18.750  0.00  0.00    +0.000 A 
ATOM     29  C   UNL     1      40.317   6.285  17.814  0.00  0.00    +0.000 A 
ATOM     30  N   UNL     1      39.989   5.729  16.634  0.00  0.00    +0.000 N 
ATOM     31  C   UNL     1      40.642   6.087  15.368  0.00  0.00    +0.000 C 
ENDBRANCH  25  26
ENDBRANCH  23  24
ENDBRANCH   2  21
TORSDOF 7
ENDMDL
MODEL 7
REMARK VINA RESULT:      -6.7     26.520     27.629
REMARK  Name = 
REMARK  7 active torsions:
REMARK  status: ('A' for Active; 'I' for Inactive)
REMARK    1  A    between atoms: N_2  and  C_4
REMARK    2  A    between atoms: C_7  and  C_8
REMARK    3  A    between atoms: C_9  and  N_10
REMARK    4  A    between atoms: C_9  and  C_19
REMARK    5  A    between atoms: C_11  and  C_13
REMARK    6  A    between atoms: N_21  and  N_22
REMARK    7  A    between atoms: C_23  and  C_24
REMARK                            x       y       z     vdW  Elec       q    Type
REMARK                         _______ _______ _______ _____ _____    ______ ____
ROOT
ATOM      1  C   UNL     1      12.905   0.738  26.838  0.00  0.00    +0.000 C 
ATOM      2  C   UNL     1      13.779  -0.053  27.379  0.00  0.00    +0.000 C 
ENDROOT
BRANCH   1   6
ATOM      3  C   UNL     1       9.608   2.772  28.650  0.00  0.00    +0.000 A 
ATOM      4  C   UNL     1      10.800   3.385  28.347  0.00  0.00    +0.000 A 
ATOM      5  C   UNL     1      11.830   2.699  27.752  0.00  0.00    +0.000 A 
ATOM      6  C   UNL     1      11.738   1.337  27.414  0.00  0.00    +0.000 A 
ATOM      7  C   UNL     1      10.550   0.754  27.724  0.00  0.00    +0.000 A 
ATOM      8  C   UNL     1       9.510   1.429  28.320  0.00  0.00    +0.000 A 
BRANCH   3  10
ATOM      9  C   UNL     1       8.727   4.285  30.451  0.00  0.00    +0.000 C 
ATOM     10  N   UNL     1       8.544   3.473  29.271  0.00  0.00    +0.000 N 
ATOM     11  C   UNL     1       7.212   3.376  28.696  0.00  0.00    +0.000 C 
ENDBRANCH   3  10
ENDBRANCH   1   6
BRANCH   2  12
ATOM     12  N   UNL     1      14.911  -0.557  26.617  0.00  0.00    +0.000 NA
ATOM     13  C   UNL     1      16.086   0.238  26.490  0.00  0.00    +0.000 C 
ATOM     14  O   UNL     1      16.061   1.359  27.063  0.00  0.00    +0.000 OA
BRANCH  13  15
ATOM     15  C   UNL     1      17.264  -0.173  25.755  0.00  0.00    +0.000 A 
ATOM     16  C   UNL     1      17.945   0.781  25.021  0.00  0.00    +0.000 A 
ATOM     17  C   UNL     1      19.074   0.457  24.298  0.00  0.00    +0.000 A 
ATOM     18  C   UNL     1      19.498  -0.865  24.339  0.00  0.00    +0.000 A 
ATOM     19  C   UNL     1      18.858  -1.850  25.052  0.00  0.00    +0.000 A 
ATOM     20  C   UNL     1      17.726  -1.460  25.759  0.00  0.00    +0.000 A 
ENDBRANCH  13  15
ENDBRANCH   2  12
BRANCH   2  21
ATOM     21  C   UNL     1      13.599  -0.483  28.748  0.00  0.00    +0.000 C 
ATOM     22  O   UNL     1      12.883  -1.399  29.160  0.00  0.00    +0.000 OA
ATOM     23  N   UNL     1      14.346   0.240  29.755  0.00  0.00    +0.000 NA
BRANCH  23  24
ATOM     24  N   UNL     1      14.322  -0.017  31.098  0.00  0.00    +0.000 NA
ATOM     25  C   UNL     1      14.699   0.708  32.062  0.00  0.00    +0.000 C 
BRANCH  25  26
ATOM     26  C   UNL     1      14.553   0.170  33.418  0.00  0.00    +0.000 A 
ATOM     27  C   UNL     1      15.434  -0.666  34.080  0.00  0.00    +0.000 A 
ATOM     28  C   UNL     1      14.886  -0.898  35.324  0.00  0.00    +0.000 A 
ATOM     29  C   UNL     1      13.700  -0.221  35.416  0.00  0.00    +0.000 A 
ATOM     30  N   UNL     1      13.538   0.413  34.241  0.00  0.00    +0.000 N 
ATOM     31  C   UNL     1      12.375   1.260  33.939  0.00  0.00    +0.000 C 
ENDBRANCH  25  26
ENDBRANCH  23  24
ENDBRANCH   2  21
TORSDOF 7
ENDMDL
MODEL 8
REMARK VINA RESULT:      -6.7      2.421      7.171
REMARK  Name = 
REMARK  7 active torsions:
REMARK  status: ('A' for Active; 'I' for Inactive)
REMARK    1  A    between atoms: N_2  and  C_4
REMARK    2  A    between atoms: C_7  and  C_8
REMARK    3  A    between atoms: C_9  and  N_10
REMARK    4  A    between atoms: C_9  and  C_19
REMARK    5  A    between atoms: C_11  and  C_13
REMARK    6  A    between atoms: N_21  and  N_22
REMARK    7  A    between atoms: C_23  and  C_24
REMARK                            x       y       z     vdW  Elec       q    Type
REMARK                         _______ _______ _______ _____ _____    ______ ____
ROOT
ATOM      1  C   UNL     1      39.181   6.712  15.576  0.00  0.00    +0.000 C 
ATOM      2  C   UNL     1      39.569   5.779  16.390  0.00  0.00    +0.000 C 
ENDROOT
BRANCH   1   6
ATOM      3  C   UNL     1      35.773   6.902  12.999  0.00  0.00    +0.000 A 
ATOM      4  C   UNL     1      36.949   6.281  12.653  0.00  0.00    +0.000 A 
ATOM      5  C   UNL     1      38.016   6.229  13.515  0.00  0.00    +0.000 A 
ATOM      6  C   UNL     1      37.980   6.802  14.799  0.00  0.00    +0.000 A 
ATOM      7  C   UNL     1      36.808   7.410  15.117  0.00  0.00    +0.000 A 
ATOM      8  C   UNL     1      35.731   7.469  14.264  0.00  0.00    +0.000 A 
BRANCH   3  10
ATOM      9  C   UNL     1      34.825   6.981  10.675  0.00  0.00    +0.000 C 
ATOM     10  N   UNL     1      34.671   6.964  12.111  0.00  0.00    +0.000 N 
ATOM     11  C   UNL     1      33.327   7.010  12.665  0.00  0.00    +0.000 C 
ENDBRANCH   3  10
ENDBRANCH   1   6
BRANCH   2  12
ATOM     12  N   UNL     1      40.837   5.877  17.096  0.00  0.00    +0.000 NA
ATOM     13  C   UNL     1      40.867   6.390  18.425  0.00  0.00    +0.000 C 
ATOM     14  O   UNL     1      39.758   6.737  18.910  0.00  0.00    +0.000 OA
BRANCH  13  15
ATOM     15  C   UNL     1      42.075   6.527  19.211  0.00  0.00    +0.000 A 
ATOM     16  C   UNL     1      43.233   6.922  18.568  0.00  0.00    +0.000 A 
ATOM     17  C   UNL     1      44.420   7.072  19.257  0.00  0.00    +0.000 A 
ATOM     18  C   UNL     1      44.400   6.811  20.621  0.00  0.00    +0.000 A 
ATOM     19  C   UNL     1      43.277   6.415  21.307  0.00  0.00    +0.000 A 
ATOM     20  C   UNL     1      42.114   6.282  20.556  0.00  0.00    +0.000 A 
ENDBRANCH  13  15
ENDBRANCH   2  12
BRANCH   2  21
ATOM     21  C   UNL     1      38.753   4.598  16.560  0.00  0.00    +0.000 C 
ATOM     22  O   UNL     1      37.876   4.407  17.407  0.00  0.00    +0.000 OA
ATOM     23  N   UNL     1      38.986   3.512  15.632  0.00  0.00    +0.000 NA
BRANCH  23  24
ATOM     24  N   UNL     1      38.316   2.320  15.620  0.00  0.00    +0.000 NA
ATOM     25  C   UNL     1      37.170   2.047  15.167  0.00  0.00    +0.000 C 
BRANCH  25  26
ATOM     26  C   UNL     1      36.697   0.664  15.291  0.00  0.00    +0.000 A 
ATOM     27  C   UNL     1      37.174  -0.441  14.610  0.00  0.00    +0.000 A 
ATOM     28  C   UNL     1      36.437  -1.517  15.057  0.00  0.00    +0.000 A 
ATOM     29  C   UNL     1      35.534  -1.077  15.987  0.00  0.00    +0.000 A 
ATOM     30  N   UNL     1      35.726   0.249  16.099  0.00  0.00    +0.000 N 
ATOM     31  C   UNL     1      34.947   1.100  17.008  0.00  0.00    +0.000 C 
ENDBRANCH  25  26
ENDBRANCH  23  24
ENDBRANCH   2  21
TORSDOF 7
ENDMDL
MODEL 9
REMARK VINA RESULT:      -6.7      2.233      7.207
REMARK  Name = 
REMARK  7 active torsions:
REMARK  status: ('A' for Active; 'I' for Inactive)
REMARK    1  A    between atoms: N_2  and  C_4
REMARK    2  A    between atoms: C_7  and  C_8
REMARK    3  A    between atoms: C_9  and  N_10
REMARK    4  A    between atoms: C_9  and  C_19
REMARK    5  A    between atoms: C_11  and  C_13
REMARK    6  A    between atoms: N_21  and  N_22
REMARK    7  A    between atoms: C_23  and  C_24
REMARK                            x       y       z     vdW  Elec       q    Type
REMARK                         _______ _______ _______ _____ _____    ______ ____
ROOT
ATOM      1  C   UNL     1      37.706   6.300  14.386  0.00  0.00    +0.000 C 
ATOM      2  C   UNL     1      37.664   5.537  15.434  0.00  0.00    +0.000 C 
ENDROOT
BRANCH   1   6
ATOM      3  C   UNL     1      36.149   5.624  10.460  0.00  0.00    +0.000 A 
ATOM      4  C   UNL     1      37.254   4.975  10.958  0.00  0.00    +0.000 A 
ATOM      5  C   UNL     1      37.714   5.210  12.230  0.00  0.00    +0.000 A 
ATOM      6  C   UNL     1      37.093   6.121  13.103  0.00  0.00    +0.000 A 
ATOM      7  C   UNL     1      36.004   6.750  12.588  0.00  0.00    +0.000 A 
ATOM      8  C   UNL     1      35.532   6.524  11.317  0.00  0.00    +0.000 A 
BRANCH   3  10
ATOM      9  C   UNL     1      36.030   4.217   8.383  0.00  0.00    +0.000 C 
ATOM     10  N   UNL     1      35.674   5.390   9.146  0.00  0.00    +0.000 N 
ATOM     11  C   UNL     1      34.788   6.371   8.538  0.00  0.00    +0.000 C 
ENDBRANCH   3  10
ENDBRANCH   1   6
BRANCH   2  12
ATOM     12  N   UNL     1      38.359   5.902  16.659  0.00  0.00    +0.000 NA
ATOM     13  C   UNL     1      39.780   5.805  16.719  0.00  0.00    +0.000 C 
ATOM     14  O   UNL     1      40.352   5.394  15.676  0.00  0.00    +0.000 OA
BRANCH  13  15
ATOM     15  C   UNL     1      40.563   6.144  17.889  0.00  0.00    +0.000 A 
ATOM     16  C   UNL     1      39.932   6.154  19.119  0.00  0.00    +0.000 A 
ATOM     17  C   UNL     1      40.619   6.468  20.274  0.00  0.00    +0.000 A 
ATOM     18  C   UNL     1      41.969   6.771  20.149  0.00  0.00    +0.000 A 
ATOM     19  C   UNL     1      42.642   6.775  18.951  0.00  0.00    +0.000 A 
ATOM     20  C   UNL     1      41.894   6.451  17.824  0.00  0.00    +0.000 A 
ENDBRANCH  13  15
ENDBRANCH   2  12
BRANCH   2  21
ATOM     21  C   UNL     1      36.957   4.278  15.371  0.00  0.00    +0.000 C 
ATOM     22  O   UNL     1      35.783   4.091  15.039  0.00  0.00    +0.000 OA
ATOM     23  N   UNL     1      37.709   3.096  15.734  0.00  0.00    +0.000 NA
BRANCH  23  24
ATOM     24  N   UNL     1      37.227   1.816  15.731  0.00  0.00    +0.000 NA
ATOM     25  C   UNL     1      37.233   0.957  14.805  0.00  0.00    +0.000 C 
BRANCH  25  26
ATOM     26  C   UNL     1      36.638  -0.353  15.085  0.00  0.00    +0.000 A 
ATOM     27  C   UNL     1      35.673  -0.643  16.032  0.00  0.00    +0.000 A 
ATOM     28  C   UNL     1      35.420  -1.994  15.926  0.00  0.00    +0.000 A 
ATOM     29  C   UNL     1      36.212  -2.514  14.938  0.00  0.00    +0.000 A 
ATOM     30  N   UNL     1      36.933  -1.487  14.455  0.00  0.00    +0.000 N 
ATOM     31  C   UNL     1      37.911  -1.632  13.368  0.00  0.00    +0.000 C 
ENDBRANCH  25  26
ENDBRANCH  23  24
ENDBRANCH   2  21
TORSDOF 7
ENDMDL
MODEL 10
REMARK VINA RESULT:      -6.6      3.592      8.139
REMARK  Name = 
REMARK  7 active torsions:
REMARK  status: ('A' for Active; 'I' for Inactive)
REMARK    1  A    between atoms: N_2  and  C_4
REMARK    2  A    between atoms: C_7  and  C_8
REMARK    3  A    between atoms: C_9  and  N_10
REMARK    4  A    between atoms: C_9  and  C_19
REMARK    5  A    between atoms: C_11  and  C_13
REMARK    6  A    between atoms: N_21  and  N_22
REMARK    7  A    between atoms: C_23  and  C_24
REMARK                            x       y       z     vdW  Elec       q    Type
REMARK                         _______ _______ _______ _____ _____    ______ ____
ROOT
ATOM      1  C   UNL     1      39.529   7.750  19.997  0.00  0.00    +0.000 C 
ATOM      2  C   UNL     1      40.188   6.666  19.729  0.00  0.00    +0.000 C 
ENDROOT
BRANCH   1   6
ATOM      3  C   UNL     1      36.785   9.960  17.572  0.00  0.00    +0.000 A 
ATOM      4  C   UNL     1      38.149  10.006  17.405  0.00  0.00    +0.000 A 
ATOM      5  C   UNL     1      38.995   9.270  18.196  0.00  0.00    +0.000 A 
ATOM      6  C   UNL     1      38.532   8.426  19.221  0.00  0.00    +0.000 A 
ATOM      7  C   UNL     1      37.181   8.399  19.367  0.00  0.00    +0.000 A 
ATOM      8  C   UNL     1      36.321   9.130  18.582  0.00  0.00    +0.000 A 
BRANCH   3  10
ATOM      9  C   UNL     1      36.371  11.754  15.863  0.00  0.00    +0.000 C 
ATOM     10  N   UNL     1      35.907  10.724  16.764  0.00  0.00    +0.000 N 
ATOM     11  C   UNL     1      34.479  10.460  16.839  0.00  0.00    +0.000 C 
ENDBRANCH   3  10
ENDBRANCH   1   6
BRANCH   2  12
ATOM     12  N   UNL     1      41.169   6.132  20.662  0.00  0.00    +0.000 NA
ATOM     13  C   UNL     1      42.474   6.702  20.717  0.00  0.00    +0.000 C 
ATOM     14  O   UNL     1      42.694   7.658  19.928  0.00  0.00    +0.000 OA
BRANCH  13  15
ATOM     15  C   UNL     1      43.518   6.243  21.609  0.00  0.00    +0.000 A 
ATOM     16  C   UNL     1      43.858   7.042  22.685  0.00  0.00    +0.000 A 
ATOM     17  C   UNL     1      44.844   6.664  23.574  0.00  0.00    +0.000 A 
ATOM     18  C   UNL     1      45.477   5.450  23.343  0.00  0.00    +0.000 A 
ATOM     19  C   UNL     1      45.177   4.621  22.289  0.00  0.00    +0.000 A 
ATOM     20  C   UNL     1      44.175   5.058  21.429  0.00  0.00    +0.000 A 
ENDBRANCH  13  15
ENDBRANCH   2  12
BRANCH   2  21
ATOM     21  C   UNL     1      39.984   6.003  18.460  0.00  0.00    +0.000 C 
ATOM     22  O   UNL     1      40.607   6.182  17.411  0.00  0.00    +0.000 OA
ATOM     23  N   UNL     1      38.929   5.013  18.411  0.00  0.00    +0.000 NA
BRANCH  23  24
ATOM     24  N   UNL     1      38.585   4.274  17.314  0.00  0.00    +0.000 NA
ATOM     25  C   UNL     1      37.446   3.885  16.931  0.00  0.00    +0.000 C 
BRANCH  25  26
ATOM     26  C   UNL     1      37.372   3.094  15.699  0.00  0.00    +0.000 A 
ATOM     27  C   UNL     1      38.433   2.554  14.993  0.00  0.00    +0.000 A 
ATOM     28  C   UNL     1      37.882   1.891  13.916  0.00  0.00    +0.000 A 
ATOM     29  C   UNL     1      36.521   2.026  13.965  0.00  0.00    +0.000 A 
ATOM     30  N   UNL     1      36.255   2.760  15.060  0.00  0.00    +0.000 N 
ATOM     31  C   UNL     1      34.893   3.127  15.470  0.00  0.00    +0.000 C 
ENDBRANCH  25  26
ENDBRANCH  23  24
ENDBRANCH   2  21
TORSDOF 7
ENDMDL
