MODEL 1
REMARK VINA RESULT:      -6.9      0.000      0.000
REMARK  Name = 
REMARK  4 active torsions:
REMARK  status: ('A' for Active; 'I' for Inactive)
REMARK    1  A    between atoms: C_2  and  O_5
REMARK    2  A    between atoms: O_5  and  C_6
REMARK    3  A    between atoms: N_8  and  C_9
REMARK    4  A    between atoms: C_16  and  C_17
REMARK                            x       y       z     vdW  Elec       q    Type
REMARK                         _______ _______ _______ _____ _____    ______ ____
ROOT
ATOM      1  C   UNL     1      14.326  12.806  34.182  0.00  0.00    +0.000 A 
ATOM      2  C   UNL     1      13.793  13.802  34.971  0.00  0.00    +0.000 A 
ATOM      3  C   UNL     1      13.257  14.940  34.371  0.00  0.00    +0.000 A 
ATOM      4  C   UNL     1      13.230  15.124  33.006  0.00  0.00    +0.000 A 
ATOM      5  C   UNL     1      13.766  14.120  32.229  0.00  0.00    +0.000 A 
ATOM      6  N   UNL     1      13.873  14.033  30.883  0.00  0.00    +0.000 NA
ATOM      7  C   UNL     1      14.469  12.859  30.615  0.00  0.00    +0.000 A 
ATOM      8  C   UNL     1      14.746  12.189  31.780  0.00  0.00    +0.000 A 
ATOM      9  C   UNL     1      14.306  12.977  32.815  0.00  0.00    +0.000 A 
ENDROOT
BRANCH   1  12
ATOM     10  C   UNL     1      15.943  11.590  35.647  0.00  0.00    +0.000 C 
ATOM     11  O   UNL     1      16.378  12.705  36.038  0.00  0.00    +0.000 OA
ATOM     12  N   UNL     1      14.896  11.609  34.701  0.00  0.00    +0.000 NA
BRANCH  10  13
ATOM     13  O   UNL     1      16.495  10.409  36.150  0.00  0.00    +0.000 OA
BRANCH  13  15
ATOM     14  C   UNL     1      18.785  10.321  36.696  0.00  0.00    +0.000 C 
ATOM     15  C   UNL     1      17.746   9.933  35.674  0.00  0.00    +0.000 C 
ATOM     16  C   UNL     1      17.619   8.420  35.564  0.00  0.00    +0.000 C 
ATOM     17  C   UNL     1      18.008  10.567  34.325  0.00  0.00    +0.000 C 
ENDBRANCH  13  15
ENDBRANCH  10  13
ENDBRANCH   1  12
BRANCH   8  18
ATOM     18  C   UNL     1      15.387  10.887  31.913  0.00  0.00    +0.000 C 
ATOM     19  O   UNL     1      14.706   9.829  31.833  0.00  0.00    +0.000 OA
ENDBRANCH   8  18
TORSDOF 4
ENDMDL
MODEL 2
REMARK VINA RESULT:      -6.0     20.191     21.108
REMARK  Name = 
REMARK  4 active torsions:
REMARK  status: ('A' for Active; 'I' for Inactive)
REMARK    1  A    between atoms: C_2  and  O_5
REMARK    2  A    between atoms: O_5  and  C_6
REMARK    3  A    between atoms: N_8  and  C_9
REMARK    4  A    between atoms: C_16  and  C_17
REMARK                            x       y       z     vdW  Elec       q    Type
REMARK                         _______ _______ _______ _____ _____    ______ ____
ROOT
ATOM      1  C   UNL     1      28.742  23.817  24.842  0.00  0.00    +0.000 A 
ATOM      2  C   UNL     1      28.250  23.378  26.052  0.00  0.00    +0.000 A 
ATOM      3  C   UNL     1      26.943  22.898  26.127  0.00  0.00    +0.000 A 
ATOM      4  C   UNL     1      26.104  22.837  25.037  0.00  0.00    +0.000 A 
ATOM      5  C   UNL     1      26.609  23.279  23.833  0.00  0.00    +0.000 A 
ATOM      6  N   UNL     1      26.019  23.335  22.617  0.00  0.00    +0.000 NA
ATOM      7  C   UNL     1      26.927  23.843  21.767  0.00  0.00    +0.000 A 
ATOM      8  C   UNL     1      28.099  24.115  22.428  0.00  0.00    +0.000 A 
ATOM      9  C   UNL     1      27.913  23.762  23.743  0.00  0.00    +0.000 A 
ENDROOT
BRANCH   1  12
ATOM     10  C   UNL     1      31.207  23.506  24.589  0.00  0.00    +0.000 C 
ATOM     11  O   UNL     1      31.029  22.264  24.687  0.00  0.00    +0.000 OA
ATOM     12  N   UNL     1      30.060  24.324  24.664  0.00  0.00    +0.000 NA
BRANCH  10  13
ATOM     13  O   UNL     1      32.497  24.014  24.414  0.00  0.00    +0.000 OA
BRANCH  13  15
ATOM     14  C   UNL     1      32.712  26.209  25.241  0.00  0.00    +0.000 C 
ATOM     15  C   UNL     1      33.124  24.772  25.439  0.00  0.00    +0.000 C 
ATOM     16  C   UNL     1      32.602  24.226  26.760  0.00  0.00    +0.000 C 
ATOM     17  C   UNL     1      34.621  24.585  25.313  0.00  0.00    +0.000 C 
ENDBRANCH  13  15
ENDBRANCH  10  13
ENDBRANCH   1  12
BRANCH   8  18
ATOM     18  C   UNL     1      29.319  24.672  21.860  0.00  0.00    +0.000 C 
ATOM     19  O   UNL     1      29.651  24.404  20.674  0.00  0.00    +0.000 OA
ENDBRANCH   8  18
TORSDOF 4
ENDMDL
MODEL 3
REMARK VINA RESULT:      -5.9     18.084     18.998
REMARK  Name = 
REMARK  4 active torsions:
REMARK  status: ('A' for Active; 'I' for Inactive)
REMARK    1  A    between atoms: C_2  and  O_5
REMARK    2  A    between atoms: O_5  and  C_6
REMARK    3  A    between atoms: N_8  and  C_9
REMARK    4  A    between atoms: C_16  and  C_17
REMARK                            x       y       z     vdW  Elec       q    Type
REMARK                         _______ _______ _______ _____ _____    ______ ____
ROOT
ATOM      1  C   UNL     1      29.353  22.803  26.052  0.00  0.00    +0.000 A 
ATOM      2  C   UNL     1      30.680  22.827  26.423  0.00  0.00    +0.000 A 
ATOM      3  C   UNL     1      31.645  23.209  25.491  0.00  0.00    +0.000 A 
ATOM      4  C   UNL     1      31.337  23.569  24.199  0.00  0.00    +0.000 A 
ATOM      5  C   UNL     1      30.006  23.541  23.841  0.00  0.00    +0.000 A 
ATOM      6  N   UNL     1      29.421  23.840  22.659  0.00  0.00    +0.000 NA
ATOM      7  C   UNL     1      28.101  23.655  22.819  0.00  0.00    +0.000 A 
ATOM      8  C   UNL     1      27.830  23.240  24.098  0.00  0.00    +0.000 A 
ATOM      9  C   UNL     1      29.030  23.162  24.761  0.00  0.00    +0.000 A 
ENDROOT
BRANCH   1  12
ATOM     10  C   UNL     1      27.701  23.311  27.855  0.00  0.00    +0.000 C 
ATOM     11  O   UNL     1      28.147  24.488  27.888  0.00  0.00    +0.000 OA
ATOM     12  N   UNL     1      28.296  22.428  26.930  0.00  0.00    +0.000 NA
BRANCH  10  13
ATOM     13  O   UNL     1      26.664  22.933  28.712  0.00  0.00    +0.000 OA
BRANCH  13  15
ATOM     14  C   UNL     1      28.391  22.606  30.279  0.00  0.00    +0.000 C 
ATOM     15  C   UNL     1      26.901  22.745  30.100  0.00  0.00    +0.000 C 
ATOM     16  C   UNL     1      26.375  23.991  30.800  0.00  0.00    +0.000 C 
ATOM     17  C   UNL     1      26.154  21.505  30.541  0.00  0.00    +0.000 C 
ENDBRANCH  13  15
ENDBRANCH  10  13
ENDBRANCH   1  12
BRANCH   8  18
ATOM     18  C   UNL     1      26.522  22.934  24.664  0.00  0.00    +0.000 C 
ATOM     19  O   UNL     1      25.473  23.141  23.997  0.00  0.00    +0.000 OA
ENDBRANCH   8  18
TORSDOF 4
ENDMDL
MODEL 4
REMARK VINA RESULT:      -5.7      2.602      4.055
REMARK  Name = 
REMARK  4 active torsions:
REMARK  status: ('A' for Active; 'I' for Inactive)
REMARK    1  A    between atoms: C_2  and  O_5
REMARK    2  A    between atoms: O_5  and  C_6
REMARK    3  A    between atoms: N_8  and  C_9
REMARK    4  A    between atoms: C_16  and  C_17
REMARK                            x       y       z     vdW  Elec       q    Type
REMARK                         _______ _______ _______ _____ _____    ______ ____
ROOT
ATOM      1  C   UNL     1      16.006  11.027  36.800  0.00  0.00    +0.000 A 
ATOM      2  C   UNL     1      15.011  11.711  37.464  0.00  0.00    +0.000 A 
ATOM      3  C   UNL     1      14.126  12.509  36.740  0.00  0.00    +0.000 A 
ATOM      4  C   UNL     1      14.195  12.651  35.372  0.00  0.00    +0.000 A 
ATOM      5  C   UNL     1      15.194  11.962  34.720  0.00  0.00    +0.000 A 
ATOM      6  N   UNL     1      15.495  11.916  33.402  0.00  0.00    +0.000 NA
ATOM      7  C   UNL     1      16.556  11.103  33.273  0.00  0.00    +0.000 A 
ATOM      8  C   UNL     1      16.942  10.624  34.500  0.00  0.00    +0.000 A 
ATOM      9  C   UNL     1      16.087  11.161  35.431  0.00  0.00    +0.000 A 
ENDROOT
BRANCH   1  12
ATOM     10  C   UNL     1      18.146  10.669  38.038  0.00  0.00    +0.000 C 
ATOM     11  O   UNL     1      18.354  11.909  37.971  0.00  0.00    +0.000 OA
ATOM     12  N   UNL     1      16.957  10.189  37.450  0.00  0.00    +0.000 NA
BRANCH  10  13
ATOM     13  O   UNL     1      19.072   9.838  38.674  0.00  0.00    +0.000 OA
BRANCH  13  15
ATOM     14  C   UNL     1      18.994   7.785  39.825  0.00  0.00    +0.000 C 
ATOM     15  C   UNL     1      18.787   9.274  39.946  0.00  0.00    +0.000 C 
ATOM     16  C   UNL     1      19.777   9.891  40.923  0.00  0.00    +0.000 C 
ATOM     17  C   UNL     1      17.360   9.624  40.307  0.00  0.00    +0.000 C 
ENDBRANCH  13  15
ENDBRANCH  10  13
ENDBRANCH   1  12
BRANCH   8  18
ATOM     18  C   UNL     1      18.047   9.718  34.781  0.00  0.00    +0.000 C 
ATOM     19  O   UNL     1      17.833   8.492  34.983  0.00  0.00    +0.000 OA
ENDBRANCH   8  18
TORSDOF 4
ENDMDL
MODEL 5
REMARK VINA RESULT:      -5.6     20.677     22.083
REMARK  Name = 
REMARK  4 active torsions:
REMARK  status: ('A' for Active; 'I' for Inactive)
REMARK    1  A    between atoms: C_2  and  O_5
REMARK    2  A    between atoms: O_5  and  C_6
REMARK    3  A    between atoms: N_8  and  C_9
REMARK    4  A    between atoms: C_16  and  C_17
REMARK                            x       y       z     vdW  Elec       q    Type
REMARK                         _______ _______ _______ _____ _____    ______ ____
ROOT
ATOM      1  C   UNL     1      33.447   1.704  34.399  0.00  0.00    +0.000 A 
ATOM      2  C   UNL     1      33.419   2.624  33.374  0.00  0.00    +0.000 A 
ATOM      3  C   UNL     1      33.753   3.953  33.635  0.00  0.00    +0.000 A 
ATOM      4  C   UNL     1      34.117   4.401  34.885  0.00  0.00    +0.000 A 
ATOM      5  C   UNL     1      34.141   3.470  35.901  0.00  0.00    +0.000 A 
ATOM      6  N   UNL     1      34.456   3.624  37.208  0.00  0.00    +0.000 NA
ATOM      7  C   UNL     1      34.328   2.418  37.785  0.00  0.00    +0.000 A 
ATOM      8  C   UNL     1      33.934   1.486  36.858  0.00  0.00    +0.000 A 
ATOM      9  C   UNL     1      33.810   2.139  35.655  0.00  0.00    +0.000 A 
ENDROOT
BRANCH   1  12
ATOM     10  C   UNL     1      33.850  -0.549  33.400  0.00  0.00    +0.000 C 
ATOM     11  O   UNL     1      34.834  -0.064  32.781  0.00  0.00    +0.000 OA
ATOM     12  N   UNL     1      33.124   0.328  34.232  0.00  0.00    +0.000 NA
BRANCH  10  13
ATOM     13  O   UNL     1      33.524  -1.899  33.243  0.00  0.00    +0.000 OA
BRANCH  13  15
ATOM     14  C   UNL     1      33.718  -4.180  33.800  0.00  0.00    +0.000 C 
ATOM     15  C   UNL     1      33.554  -2.786  34.352  0.00  0.00    +0.000 C 
ATOM     16  C   UNL     1      34.756  -2.383  35.195  0.00  0.00    +0.000 C 
ATOM     17  C   UNL     1      32.259  -2.624  35.119  0.00  0.00    +0.000 C 
ENDBRANCH  13  15
ENDBRANCH  10  13
ENDBRANCH   1  12
BRANCH   8  18
ATOM     18  C   UNL     1      33.687   0.069  37.087  0.00  0.00    +0.000 C 
ATOM     19  O   UNL     1      32.765  -0.302  37.863  0.00  0.00    +0.000 OA
ENDBRANCH   8  18
TORSDOF 4
ENDMDL
MODEL 6
REMARK VINA RESULT:      -5.6     20.133     22.685
REMARK  Name = 
REMARK  4 active torsions:
REMARK  status: ('A' for Active; 'I' for Inactive)
REMARK    1  A    between atoms: C_2  and  O_5
REMARK    2  A    between atoms: O_5  and  C_6
REMARK    3  A    between atoms: N_8  and  C_9
REMARK    4  A    between atoms: C_16  and  C_17
REMARK                            x       y       z     vdW  Elec       q    Type
REMARK                         _______ _______ _______ _____ _____    ______ ____
ROOT
ATOM      1  C   UNL     1      20.207  -7.285  25.690  0.00  0.00    +0.000 A 
ATOM      2  C   UNL     1      20.112  -5.915  25.583  0.00  0.00    +0.000 A 
ATOM      3  C   UNL     1      19.126  -5.237  26.299  0.00  0.00    +0.000 A 
ATOM      4  C   UNL     1      18.228  -5.876  27.123  0.00  0.00    +0.000 A 
ATOM      5  C   UNL     1      18.334  -7.247  27.222  0.00  0.00    +0.000 A 
ATOM      6  N   UNL     1      17.598  -8.122  27.945  0.00  0.00    +0.000 NA
ATOM      7  C   UNL     1      18.096  -9.345  27.702  0.00  0.00    +0.000 A 
ATOM      8  C   UNL     1      19.150  -9.265  26.827  0.00  0.00    +0.000 A 
ATOM      9  C   UNL     1      19.314  -7.938  26.512  0.00  0.00    +0.000 A 
ENDROOT
BRANCH   1  12
ATOM     10  C   UNL     1      22.537  -7.702  24.893  0.00  0.00    +0.000 C 
ATOM     11  O   UNL     1      22.885  -6.626  25.447  0.00  0.00    +0.000 OA
ATOM     12  N   UNL     1      21.178  -8.065  25.000  0.00  0.00    +0.000 NA
BRANCH  10  13
ATOM     13  O   UNL     1      23.482  -8.475  24.213  0.00  0.00    +0.000 OA
BRANCH  13  15
ATOM     14  C   UNL     1      24.612  -9.240  22.293  0.00  0.00    +0.000 C 
ATOM     15  C   UNL     1      24.034  -8.030  22.982  0.00  0.00    +0.000 C 
ATOM     16  C   UNL     1      22.883  -7.436  22.182  0.00  0.00    +0.000 C 
ATOM     17  C   UNL     1      25.090  -6.990  23.290  0.00  0.00    +0.000 C 
ENDBRANCH  13  15
ENDBRANCH  10  13
ENDBRANCH   1  12
BRANCH   8  18
ATOM     18  C   UNL     1      19.954 -10.367  26.317  0.00  0.00    +0.000 C 
ATOM     19  O   UNL     1      20.904 -10.835  27.002  0.00  0.00    +0.000 OA
ENDBRANCH   8  18
TORSDOF 4
ENDMDL
MODEL 7
REMARK VINA RESULT:      -5.5     18.041     19.087
REMARK  Name = 
REMARK  4 active torsions:
REMARK  status: ('A' for Active; 'I' for Inactive)
REMARK    1  A    between atoms: C_2  and  O_5
REMARK    2  A    between atoms: O_5  and  C_6
REMARK    3  A    between atoms: N_8  and  C_9
REMARK    4  A    between atoms: C_16  and  C_17
REMARK                            x       y       z     vdW  Elec       q    Type
REMARK                         _______ _______ _______ _____ _____    ______ ____
ROOT
ATOM      1  C   UNL     1      27.052  23.257  24.648  0.00  0.00    +0.000 A 
ATOM      2  C   UNL     1      26.081  23.403  23.681  0.00  0.00    +0.000 A 
ATOM      3  C   UNL     1      26.455  23.720  22.376  0.00  0.00    +0.000 A 
ATOM      4  C   UNL     1      27.766  23.899  21.995  0.00  0.00    +0.000 A 
ATOM      5  C   UNL     1      28.727  23.751  22.972  0.00  0.00    +0.000 A 
ATOM      6  N   UNL     1      30.072  23.866  22.886  0.00  0.00    +0.000 NA
ATOM      7  C   UNL     1      30.563  23.629  24.113  0.00  0.00    +0.000 A 
ATOM      8  C   UNL     1      29.542  23.359  24.991  0.00  0.00    +0.000 A 
ATOM      9  C   UNL     1      28.368  23.433  24.281  0.00  0.00    +0.000 A 
ENDROOT
BRANCH   1  12
ATOM     10  C   UNL     1      26.167  23.833  26.911  0.00  0.00    +0.000 C 
ATOM     11  O   UNL     1      25.871  24.974  26.470  0.00  0.00    +0.000 OA
ATOM     12  N   UNL     1      26.771  22.935  26.006  0.00  0.00    +0.000 NA
BRANCH  10  13
ATOM     13  O   UNL     1      25.895  23.506  28.243  0.00  0.00    +0.000 OA
BRANCH  13  15
ATOM     14  C   UNL     1      26.144  24.116  30.504  0.00  0.00    +0.000 C 
ATOM     15  C   UNL     1      26.875  23.701  29.252  0.00  0.00    +0.000 C 
ATOM     16  C   UNL     1      27.573  22.361  29.440  0.00  0.00    +0.000 C 
ATOM     17  C   UNL     1      27.839  24.765  28.774  0.00  0.00    +0.000 C 
ENDBRANCH  13  15
ENDBRANCH  10  13
ENDBRANCH   1  12
BRANCH   8  18
ATOM     18  C   UNL     1      29.662  23.052  26.409  0.00  0.00    +0.000 C 
ATOM     19  O   UNL     1      29.937  21.882  26.789  0.00  0.00    +0.000 OA
ENDBRANCH   8  18
TORSDOF 4
ENDMDL
MODEL 8
REMARK VINA RESULT:      -5.4     18.943     20.253
REMARK  Name = 
REMARK  4 active torsions:
REMARK  status: ('A' for Active; 'I' for Inactive)
REMARK    1  A    between atoms: C_2  and  O_5
REMARK    2  A    between atoms: O_5  and  C_6
REMARK    3  A    between atoms: N_8  and  C_9
REMARK    4  A    between atoms: C_16  and  C_17
REMARK                            x       y       z     vdW  Elec       q    Type
REMARK                         _______ _______ _______ _____ _____    ______ ____
ROOT
ATOM      1  C   UNL     1      29.560  22.781  26.208  0.00  0.00    +0.000 A 
ATOM      2  C   UNL     1      30.774  22.428  26.755  0.00  0.00    +0.000 A 
ATOM      3  C   UNL     1      30.901  22.335  28.141  0.00  0.00    +0.000 A 
ATOM      4  C   UNL     1      29.859  22.580  29.006  0.00  0.00    +0.000 A 
ATOM      5  C   UNL     1      28.649  22.931  28.446  0.00  0.00    +0.000 A 
ATOM      6  N   UNL     1      27.472  23.224  29.044  0.00  0.00    +0.000 NA
ATOM      7  C   UNL     1      26.596  23.503  28.064  0.00  0.00    +0.000 A 
ATOM      8  C   UNL     1      27.202  23.391  26.838  0.00  0.00    +0.000 A 
ATOM      9  C   UNL     1      28.507  23.029  27.063  0.00  0.00    +0.000 A 
ENDROOT
BRANCH   1  12
ATOM     10  C   UNL     1      30.011  23.824  23.984  0.00  0.00    +0.000 C 
ATOM     11  O   UNL     1      30.860  24.568  24.541  0.00  0.00    +0.000 OA
ATOM     12  N   UNL     1      29.331  22.902  24.808  0.00  0.00    +0.000 NA
BRANCH  10  13
ATOM     13  O   UNL     1      29.779  23.935  22.611  0.00  0.00    +0.000 OA
BRANCH  13  15
ATOM     14  C   UNL     1      29.299  25.395  20.826  0.00  0.00    +0.000 C 
ATOM     15  C   UNL     1      28.775  24.809  22.113  0.00  0.00    +0.000 C 
ATOM     16  C   UNL     1      27.541  23.952  21.866  0.00  0.00    +0.000 C 
ATOM     17  C   UNL     1      28.514  25.870  23.159  0.00  0.00    +0.000 C 
ENDBRANCH  13  15
ENDBRANCH  10  13
ENDBRANCH   1  12
BRANCH   8  18
ATOM     18  C   UNL     1      26.591  23.612  25.534  0.00  0.00    +0.000 C 
ATOM     19  O   UNL     1      25.858  22.728  25.013  0.00  0.00    +0.000 OA
ENDBRANCH   8  18
TORSDOF 4
ENDMDL
MODEL 9
REMARK VINA RESULT:      -5.4     20.486     22.011
REMARK  Name = 
REMARK  4 active torsions:
REMARK  status: ('A' for Active; 'I' for Inactive)
REMARK    1  A    between atoms: C_2  and  O_5
REMARK    2  A    between atoms: O_5  and  C_6
REMARK    3  A    between atoms: N_8  and  C_9
REMARK    4  A    between atoms: C_16  and  C_17
REMARK                            x       y       z     vdW  Elec       q    Type
REMARK                         _______ _______ _______ _____ _____    ______ ____
ROOT
ATOM      1  C   UNL     1      29.316  24.316  23.809  0.00  0.00    +0.000 A 
ATOM      2  C   UNL     1      30.670  24.063  23.856  0.00  0.00    +0.000 A 
ATOM      3  C   UNL     1      31.162  23.127  24.764  0.00  0.00    +0.000 A 
ATOM      4  C   UNL     1      30.352  22.428  25.631  0.00  0.00    +0.000 A 
ATOM      5  C   UNL     1      29.000  22.691  25.574  0.00  0.00    +0.000 A 
ATOM      6  N   UNL     1      27.985  22.162  26.296  0.00  0.00    +0.000 NA
ATOM      7  C   UNL     1      26.855  22.746  25.864  0.00  0.00    +0.000 A 
ATOM      8  C   UNL     1      27.135  23.647  24.868  0.00  0.00    +0.000 A 
ATOM      9  C   UNL     1      28.494  23.624  24.672  0.00  0.00    +0.000 A 
ENDROOT
BRANCH   1  12
ATOM     10  C   UNL     1      28.905  25.228  21.521  0.00  0.00    +0.000 C 
ATOM     11  O   UNL     1      29.642  24.317  21.060  0.00  0.00    +0.000 OA
ATOM     12  N   UNL     1      28.719  25.253  22.919  0.00  0.00    +0.000 NA
BRANCH  10  13
ATOM     13  O   UNL     1      28.314  26.152  20.655  0.00  0.00    +0.000 OA
BRANCH  13  15
ATOM     14  C   UNL     1      30.066  27.232  19.509  0.00  0.00    +0.000 C 
ATOM     15  C   UNL     1      28.901  27.429  20.446  0.00  0.00    +0.000 C 
ATOM     16  C   UNL     1      27.825  28.300  19.813  0.00  0.00    +0.000 C 
ATOM     17  C   UNL     1      29.334  27.973  21.790  0.00  0.00    +0.000 C 
ENDBRANCH  13  15
ENDBRANCH  10  13
ENDBRANCH   1  12
BRANCH   8  18
ATOM     18  C   UNL     1      26.183  24.480  24.145  0.00  0.00    +0.000 C 
ATOM     19  O   UNL     1      25.777  25.565  24.642  0.00  0.00    +0.000 OA
ENDBRANCH   8  18
TORSDOF 4
ENDMDL
MODEL 10
REMARK VINA RESULT:      -5.3     18.934     19.950
REMARK  Name = 
REMARK  4 active torsions:
REMARK  status: ('A' for Active; 'I' for Inactive)
REMARK    1  A    between atoms: C_2  and  O_5
REMARK    2  A    between atoms: O_5  and  C_6
REMARK    3  A    between atoms: N_8  and  C_9
REMARK    4  A    between atoms: C_16  and  C_17
REMARK                            x       y       z     vdW  Elec       q    Type
REMARK                         _______ _______ _______ _____ _____    ______ ____
ROOT
ATOM      1  C   UNL     1      28.915  24.147  24.223  0.00  0.00    +0.000 A 
ATOM      2  C   UNL     1      29.893  24.687  23.416  0.00  0.00    +0.000 A 
ATOM      3  C   UNL     1      29.645  24.851  22.054  0.00  0.00    +0.000 A 
ATOM      4  C   UNL     1      28.453  24.497  21.462  0.00  0.00    +0.000 A 
ATOM      5  C   UNL     1      27.484  23.958  22.280  0.00  0.00    +0.000 A 
ATOM      6  N   UNL     1      26.238  23.527  21.977  0.00  0.00    +0.000 NA
ATOM      7  C   UNL     1      25.688  23.090  23.122  0.00  0.00    +0.000 A 
ATOM      8  C   UNL     1      26.570  23.238  24.162  0.00  0.00    +0.000 A 
ATOM      9  C   UNL     1      27.718  23.788  23.644  0.00  0.00    +0.000 A 
ENDROOT
BRANCH   1  12
ATOM     10  C   UNL     1      29.789  22.856  26.174  0.00  0.00    +0.000 C 
ATOM     11  O   UNL     1      30.306  22.042  25.364  0.00  0.00    +0.000 OA
ATOM     12  N   UNL     1      29.073  23.939  25.623  0.00  0.00    +0.000 NA
BRANCH  10  13
ATOM     13  O   UNL     1      29.938  22.661  27.550  0.00  0.00    +0.000 OA
BRANCH  13  15
ATOM     14  C   UNL     1      31.910  23.911  27.233  0.00  0.00    +0.000 C 
ATOM     15  C   UNL     1      31.109  23.102  28.223  0.00  0.00    +0.000 C 
ATOM     16  C   UNL     1      30.640  23.964  29.387  0.00  0.00    +0.000 C 
ATOM     17  C   UNL     1      31.862  21.881  28.704  0.00  0.00    +0.000 C 
ENDBRANCH  13  15
ENDBRANCH  10  13
ENDBRANCH   1  12
BRANCH   8  18
ATOM     18  C   UNL     1      26.351  22.882  25.557  0.00  0.00    +0.000 C 
ATOM     19  O   UNL     1      25.682  23.640  26.312  0.00  0.00    +0.000 OA
ENDBRANCH   8  18
TORSDOF 4
ENDMDL
