MODEL 1
REMARK VINA RESULT:      -6.5      0.000      0.000
REMARK  Name = 
REMARK  2 active torsions:
REMARK  status: ('A' for Active; 'I' for Inactive)
REMARK    1  A    between atoms: N_13  and  C_14
REMARK    2  A    between atoms: C_14  and  C_15
REMARK                            x       y       z     vdW  Elec       q    Type
REMARK                         _______ _______ _______ _____ _____    ______ ____
ROOT
ATOM      1  O   UNL     1      20.025  11.763  39.244  0.00  0.00    +0.000 OA
ATOM      2  C   UNL     1      19.126  11.584  38.356  0.00  0.00    +0.000 C 
ATOM      3  N   UNL     1      18.561  12.572  37.495  0.00  0.00    +0.000 NA
ATOM      4  C   UNL     1      17.421  11.962  36.847  0.00  0.00    +0.000 C 
ATOM      5  C   UNL     1      17.393  12.234  35.356  0.00  0.00    +0.000 C 
ATOM      6  C   UNL     1      16.430  11.199  34.760  0.00  0.00    +0.000 C 
ATOM      7  C   UNL     1      15.053  11.786  34.579  0.00  0.00    +0.000 C 
ATOM      8  C   UNL     1      14.258  11.834  35.837  0.00  0.00    +0.000 C 
ATOM      9  C   UNL     1      15.032  11.448  37.069  0.00  0.00    +0.000 C 
ATOM     10  C   UNL     1      16.105  12.446  37.416  0.00  0.00    +0.000 C 
ATOM     11  C   UNL     1      17.597  10.496  37.060  0.00  0.00    +0.000 C 
ATOM     12  O   UNL     1      16.989   9.608  36.407  0.00  0.00    +0.000 OA
ATOM     13  N   UNL     1      18.551  10.312  38.105  0.00  0.00    +0.000 N 
ENDROOT
BRANCH  13  14
ATOM     14  C   UNL     1      18.808   9.038  38.723  0.00  0.00    +0.000 C 
BRANCH  14  15
ATOM     15  C   UNL     1      17.811   8.672  39.740  0.00  0.00    +0.000 A 
ATOM     16  C   UNL     1      16.862   9.540  40.219  0.00  0.00    +0.000 A 
ATOM     17  C   UNL     1      15.943   9.160  41.175  0.00  0.00    +0.000 A 
ATOM     18  C   UNL     1      15.946   7.888  41.683  0.00  0.00    +0.000 A 
ATOM     19  C   UNL     1      16.887   6.997  41.220  0.00  0.00    +0.000 A 
ATOM     20  C   UNL     1      17.815   7.395  40.250  0.00  0.00    +0.000 A 
ATOM     21  F   UNL     1      18.696   6.450  39.861  0.00  0.00    +0.000 F 
ENDBRANCH  14  15
ENDBRANCH  13  14
TORSDOF 2
ENDMDL
MODEL 2
REMARK VINA RESULT:      -6.4      3.155      5.084
REMARK  Name = 
REMARK  2 active torsions:
REMARK  status: ('A' for Active; 'I' for Inactive)
REMARK    1  A    between atoms: N_13  and  C_14
REMARK    2  A    between atoms: C_14  and  C_15
REMARK                            x       y       z     vdW  Elec       q    Type
REMARK                         _______ _______ _______ _____ _____    ______ ____
ROOT
ATOM      1  O   UNL     1      19.930   8.877  40.177  0.00  0.00    +0.000 OA
ATOM      2  C   UNL     1      19.201   9.564  39.386  0.00  0.00    +0.000 C 
ATOM      3  N   UNL     1      17.879   9.253  38.949  0.00  0.00    +0.000 NA
ATOM      4  C   UNL     1      17.562  10.176  37.881  0.00  0.00    +0.000 C 
ATOM      5  C   UNL     1      16.181  10.783  38.037  0.00  0.00    +0.000 C 
ATOM      6  C   UNL     1      16.165  12.020  37.129  0.00  0.00    +0.000 C 
ATOM      7  C   UNL     1      15.535  11.702  35.797  0.00  0.00    +0.000 C 
ATOM      8  C   UNL     1      16.454  11.001  34.858  0.00  0.00    +0.000 C 
ATOM      9  C   UNL     1      17.768  10.595  35.472  0.00  0.00    +0.000 C 
ATOM     10  C   UNL     1      17.613   9.522  36.518  0.00  0.00    +0.000 C 
ATOM     11  C   UNL     1      18.576  11.264  38.000  0.00  0.00    +0.000 C 
ATOM     12  O   UNL     1      18.469  12.393  37.455  0.00  0.00    +0.000 OA
ATOM     13  N   UNL     1      19.643  10.787  38.819  0.00  0.00    +0.000 N 
ENDROOT
BRANCH  13  14
ATOM     14  C   UNL     1      20.891  11.486  38.973  0.00  0.00    +0.000 C 
BRANCH  14  15
ATOM     15  C   UNL     1      21.906  11.092  37.983  0.00  0.00    +0.000 A 
ATOM     16  C   UNL     1      21.746  10.047  37.108  0.00  0.00    +0.000 A 
ATOM     17  C   UNL     1      22.721   9.707  36.194  0.00  0.00    +0.000 A 
ATOM     18  C   UNL     1      23.895  10.411  36.126  0.00  0.00    +0.000 A 
ATOM     19  C   UNL     1      24.080  11.464  36.994  0.00  0.00    +0.000 A 
ATOM     20  C   UNL     1      23.084  11.798  37.918  0.00  0.00    +0.000 A 
ATOM     21  F   UNL     1      23.360  12.845  38.722  0.00  0.00    +0.000 F 
ENDBRANCH  14  15
ENDBRANCH  13  14
TORSDOF 2
ENDMDL
MODEL 3
REMARK VINA RESULT:      -6.4     21.588     22.757
REMARK  Name = 
REMARK  2 active torsions:
REMARK  status: ('A' for Active; 'I' for Inactive)
REMARK    1  A    between atoms: N_13  and  C_14
REMARK    2  A    between atoms: C_14  and  C_15
REMARK                            x       y       z     vdW  Elec       q    Type
REMARK                         _______ _______ _______ _____ _____    ______ ____
ROOT
ATOM      1  O   UNL     1      16.699 -11.312  28.584  0.00  0.00    +0.000 OA
ATOM      2  C   UNL     1      17.318 -10.451  27.873  0.00  0.00    +0.000 C 
ATOM      3  N   UNL     1      18.470  -9.698  28.248  0.00  0.00    +0.000 NA
ATOM      4  C   UNL     1      18.659  -8.686  27.231  0.00  0.00    +0.000 C 
ATOM      5  C   UNL     1      20.103  -8.588  26.778  0.00  0.00    +0.000 C 
ATOM      6  C   UNL     1      20.072  -7.832  25.444  0.00  0.00    +0.000 C 
ATOM      7  C   UNL     1      20.360  -6.366  25.648  0.00  0.00    +0.000 C 
ATOM      8  C   UNL     1      19.186  -5.592  26.138  0.00  0.00    +0.000 C 
ATOM      9  C   UNL     1      17.995  -6.442  26.495  0.00  0.00    +0.000 C 
ATOM     10  C   UNL     1      18.241  -7.310  27.701  0.00  0.00    +0.000 C 
ATOM     11  C   UNL     1      17.829  -9.141  26.078  0.00  0.00    +0.000 C 
ATOM     12  O   UNL     1      17.950  -8.705  24.903  0.00  0.00    +0.000 OA
ATOM     13  N   UNL     1      16.913 -10.126  26.553  0.00  0.00    +0.000 N 
ENDROOT
BRANCH  13  14
ATOM     14  C   UNL     1      15.817 -10.628  25.767  0.00  0.00    +0.000 C 
BRANCH  14  15
ATOM     15  C   UNL     1      14.508 -10.105  26.188  0.00  0.00    +0.000 A 
ATOM     16  C   UNL     1      13.643 -10.794  27.001  0.00  0.00    +0.000 A 
ATOM     17  C   UNL     1      12.423 -10.270  27.375  0.00  0.00    +0.000 A 
ATOM     18  C   UNL     1      12.030  -9.030  26.944  0.00  0.00    +0.000 A 
ATOM     19  C   UNL     1      12.881  -8.319  26.128  0.00  0.00    +0.000 A 
ATOM     20  C   UNL     1      14.116  -8.861  25.754  0.00  0.00    +0.000 A 
ATOM     21  F   UNL     1      14.877  -8.086  24.954  0.00  0.00    +0.000 F 
ENDBRANCH  14  15
ENDBRANCH  13  14
TORSDOF 2
ENDMDL
MODEL 4
REMARK VINA RESULT:      -6.3     21.267     23.067
REMARK  Name = 
REMARK  2 active torsions:
REMARK  status: ('A' for Active; 'I' for Inactive)
REMARK    1  A    between atoms: N_13  and  C_14
REMARK    2  A    between atoms: C_14  and  C_15
REMARK                            x       y       z     vdW  Elec       q    Type
REMARK                         _______ _______ _______ _____ _____    ______ ____
ROOT
ATOM      1  O   UNL     1      31.109  -5.841  34.288  0.00  0.00    +0.000 OA
ATOM      2  C   UNL     1      31.809  -5.859  33.220  0.00  0.00    +0.000 C 
ATOM      3  N   UNL     1      31.458  -6.458  31.974  0.00  0.00    +0.000 NA
ATOM      4  C   UNL     1      32.648  -6.445  31.152  0.00  0.00    +0.000 C 
ATOM      5  C   UNL     1      32.368  -5.964  29.742  0.00  0.00    +0.000 C 
ATOM      6  C   UNL     1      33.733  -5.589  29.150  0.00  0.00    +0.000 C 
ATOM      7  C   UNL     1      34.290  -6.719  28.322  0.00  0.00    +0.000 C 
ATOM      8  C   UNL     1      34.916  -7.798  29.134  0.00  0.00    +0.000 C 
ATOM      9  C   UNL     1      34.724  -7.639  30.619  0.00  0.00    +0.000 C 
ATOM     10  C   UNL     1      33.289  -7.812  31.041  0.00  0.00    +0.000 C 
ATOM     11  C   UNL     1      33.562  -5.469  31.815  0.00  0.00    +0.000 C 
ATOM     12  O   UNL     1      34.567  -4.952  31.261  0.00  0.00    +0.000 OA
ATOM     13  N   UNL     1      33.088  -5.251  33.143  0.00  0.00    +0.000 N 
ENDROOT
BRANCH  13  14
ATOM     14  C   UNL     1      33.840  -4.538  34.141  0.00  0.00    +0.000 C 
BRANCH  14  15
ATOM     15  C   UNL     1      33.424  -3.135  34.294  0.00  0.00    +0.000 A 
ATOM     16  C   UNL     1      33.857  -2.122  33.474  0.00  0.00    +0.000 A 
ATOM     17  C   UNL     1      33.444  -0.818  33.649  0.00  0.00    +0.000 A 
ATOM     18  C   UNL     1      32.579  -0.486  34.658  0.00  0.00    +0.000 A 
ATOM     19  C   UNL     1      32.130  -1.483  35.494  0.00  0.00    +0.000 A 
ATOM     20  C   UNL     1      32.556  -2.803  35.307  0.00  0.00    +0.000 A 
ATOM     21  F   UNL     1      32.060  -3.707  36.177  0.00  0.00    +0.000 F 
ENDBRANCH  14  15
ENDBRANCH  13  14
TORSDOF 2
ENDMDL
MODEL 5
REMARK VINA RESULT:      -6.3     20.511     22.575
REMARK  Name = 
REMARK  2 active torsions:
REMARK  status: ('A' for Active; 'I' for Inactive)
REMARK    1  A    between atoms: N_13  and  C_14
REMARK    2  A    between atoms: C_14  and  C_15
REMARK                            x       y       z     vdW  Elec       q    Type
REMARK                         _______ _______ _______ _____ _____    ______ ____
ROOT
ATOM      1  O   UNL     1      29.501  23.961  21.876  0.00  0.00    +0.000 OA
ATOM      2  C   UNL     1      28.730  23.980  22.893  0.00  0.00    +0.000 C 
ATOM      3  N   UNL     1      27.486  24.667  23.013  0.00  0.00    +0.000 NA
ATOM      4  C   UNL     1      27.105  24.605  24.408  0.00  0.00    +0.000 C 
ATOM      5  C   UNL     1      25.650  24.219  24.590  0.00  0.00    +0.000 C 
ATOM      6  C   UNL     1      25.516  23.771  26.051  0.00  0.00    +0.000 C 
ATOM      7  C   UNL     1      25.005  24.895  26.916  0.00  0.00    +0.000 C 
ATOM      8  C   UNL     1      26.057  25.879  27.292  0.00  0.00    +0.000 C 
ATOM      9  C   UNL     1      27.379  25.660  26.606  0.00  0.00    +0.000 C 
ATOM     10  C   UNL     1      27.314  25.921  25.124  0.00  0.00    +0.000 C 
ATOM     11  C   UNL     1      27.958  23.528  24.991  0.00  0.00    +0.000 C 
ATOM     12  O   UNL     1      27.730  22.964  26.093  0.00  0.00    +0.000 OA
ATOM     13  N   UNL     1      29.034  23.279  24.088  0.00  0.00    +0.000 N 
ENDROOT
BRANCH  13  14
ATOM     14  C   UNL     1      30.169  22.460  24.421  0.00  0.00    +0.000 C 
BRANCH  14  15
ATOM     15  C   UNL     1      31.192  23.170  25.205  0.00  0.00    +0.000 A 
ATOM     16  C   UNL     1      32.093  24.048  24.656  0.00  0.00    +0.000 A 
ATOM     17  C   UNL     1      33.038  24.696  25.423  0.00  0.00    +0.000 A 
ATOM     18  C   UNL     1      33.110  24.483  26.775  0.00  0.00    +0.000 A 
ATOM     19  C   UNL     1      32.217  23.607  27.350  0.00  0.00    +0.000 A 
ATOM     20  C   UNL     1      31.263  22.955  26.561  0.00  0.00    +0.000 A 
ATOM     21  F   UNL     1      30.434  22.118  27.218  0.00  0.00    +0.000 F 
ENDBRANCH  14  15
ENDBRANCH  13  14
TORSDOF 2
ENDMDL
MODEL 6
REMARK VINA RESULT:      -6.2     19.039     21.901
REMARK  Name = 
REMARK  2 active torsions:
REMARK  status: ('A' for Active; 'I' for Inactive)
REMARK    1  A    between atoms: N_13  and  C_14
REMARK    2  A    between atoms: C_14  and  C_15
REMARK                            x       y       z     vdW  Elec       q    Type
REMARK                         _______ _______ _______ _____ _____    ______ ____
ROOT
ATOM      1  O   UNL     1      24.736  25.396  24.950  0.00  0.00    +0.000 OA
ATOM      2  C   UNL     1      25.453  24.749  25.785  0.00  0.00    +0.000 C 
ATOM      3  N   UNL     1      25.589  25.007  27.181  0.00  0.00    +0.000 NA
ATOM      4  C   UNL     1      26.683  24.189  27.656  0.00  0.00    +0.000 C 
ATOM      5  C   UNL     1      26.344  23.466  28.944  0.00  0.00    +0.000 C 
ATOM      6  C   UNL     1      27.378  22.340  29.077  0.00  0.00    +0.000 C 
ATOM      7  C   UNL     1      28.517  22.757  29.973  0.00  0.00    +0.000 C 
ATOM      8  C   UNL     1      29.518  23.626  29.295  0.00  0.00    +0.000 C 
ATOM      9  C   UNL     1      29.120  24.058  27.909  0.00  0.00    +0.000 C 
ATOM     10  C   UNL     1      27.939  24.993  27.909  0.00  0.00    +0.000 C 
ATOM     11  C   UNL     1      26.895  23.173  26.583  0.00  0.00    +0.000 C 
ATOM     12  O   UNL     1      27.546  22.107  26.738  0.00  0.00    +0.000 OA
ATOM     13  N   UNL     1      26.242  23.634  25.401  0.00  0.00    +0.000 N 
ENDROOT
BRANCH  13  14
ATOM     14  C   UNL     1      26.416  23.018  24.113  0.00  0.00    +0.000 C 
BRANCH  14  15
ATOM     15  C   UNL     1      27.368  23.733  23.248  0.00  0.00    +0.000 A 
ATOM     16  C   UNL     1      26.992  24.675  22.323  0.00  0.00    +0.000 A 
ATOM     17  C   UNL     1      27.913  25.325  21.530  0.00  0.00    +0.000 A 
ATOM     18  C   UNL     1      29.251  25.049  21.640  0.00  0.00    +0.000 A 
ATOM     19  C   UNL     1      29.655  24.108  22.560  0.00  0.00    +0.000 A 
ATOM     20  C   UNL     1      28.709  23.455  23.359  0.00  0.00    +0.000 A 
ATOM     21  F   UNL     1      29.205  22.551  24.229  0.00  0.00    +0.000 F 
ENDBRANCH  14  15
ENDBRANCH  13  14
TORSDOF 2
ENDMDL
MODEL 7
REMARK VINA RESULT:      -6.2     22.712     25.652
REMARK  Name = 
REMARK  2 active torsions:
REMARK  status: ('A' for Active; 'I' for Inactive)
REMARK    1  A    between atoms: N_13  and  C_14
REMARK    2  A    between atoms: C_14  and  C_15
REMARK                            x       y       z     vdW  Elec       q    Type
REMARK                         _______ _______ _______ _____ _____    ______ ____
ROOT
ATOM      1  O   UNL     1      29.805  25.500  19.972  0.00  0.00    +0.000 OA
ATOM      2  C   UNL     1      29.349  25.142  21.110  0.00  0.00    +0.000 C 
ATOM      3  N   UNL     1      29.169  23.808  21.581  0.00  0.00    +0.000 NA
ATOM      4  C   UNL     1      28.402  23.894  22.804  0.00  0.00    +0.000 C 
ATOM      5  C   UNL     1      28.981  23.032  23.909  0.00  0.00    +0.000 C 
ATOM      6  C   UNL     1      28.361  23.550  25.213  0.00  0.00    +0.000 C 
ATOM      7  C   UNL     1      27.169  22.718  25.611  0.00  0.00    +0.000 C 
ATOM      8  C   UNL     1      25.929  23.060  24.861  0.00  0.00    +0.000 C 
ATOM      9  C   UNL     1      26.139  24.043  23.740  0.00  0.00    +0.000 C 
ATOM     10  C   UNL     1      26.961  23.474  22.615  0.00  0.00    +0.000 C 
ATOM     11  C   UNL     1      28.500  25.325  23.218  0.00  0.00    +0.000 C 
ATOM     12  O   UNL     1      28.225  25.748  24.371  0.00  0.00    +0.000 OA
ATOM     13  N   UNL     1      28.947  26.081  22.094  0.00  0.00    +0.000 N 
ENDROOT
BRANCH  13  14
ATOM     14  C   UNL     1      28.949  27.520  22.062  0.00  0.00    +0.000 C 
BRANCH  14  15
ATOM     15  C   UNL     1      28.135  28.081  20.973  0.00  0.00    +0.000 A 
ATOM     16  C   UNL     1      26.784  27.871  20.851  0.00  0.00    +0.000 A 
ATOM     17  C   UNL     1      26.054  28.414  19.815  0.00  0.00    +0.000 A 
ATOM     18  C   UNL     1      26.659  29.191  18.862  0.00  0.00    +0.000 A 
ATOM     19  C   UNL     1      28.014  29.416  18.962  0.00  0.00    +0.000 A 
ATOM     20  C   UNL     1      28.744  28.859  20.017  0.00  0.00    +0.000 A 
ATOM     21  F   UNL     1      30.064  29.139  20.027  0.00  0.00    +0.000 F 
ENDBRANCH  14  15
ENDBRANCH  13  14
TORSDOF 2
ENDMDL
MODEL 8
REMARK VINA RESULT:      -6.1     19.961     22.336
REMARK  Name = 
REMARK  2 active torsions:
REMARK  status: ('A' for Active; 'I' for Inactive)
REMARK    1  A    between atoms: N_13  and  C_14
REMARK    2  A    between atoms: C_14  and  C_15
REMARK                            x       y       z     vdW  Elec       q    Type
REMARK                         _______ _______ _______ _____ _____    ______ ____
ROOT
ATOM      1  O   UNL     1      30.119  22.083  25.552  0.00  0.00    +0.000 OA
ATOM      2  C   UNL     1      29.581  22.907  24.739  0.00  0.00    +0.000 C 
ATOM      3  N   UNL     1      30.249  23.735  23.788  0.00  0.00    +0.000 NA
ATOM      4  C   UNL     1      29.266  24.667  23.280  0.00  0.00    +0.000 C 
ATOM      5  C   UNL     1      29.315  24.785  21.769  0.00  0.00    +0.000 C 
ATOM      6  C   UNL     1      27.983  25.428  21.358  0.00  0.00    +0.000 C 
ATOM      7  C   UNL     1      28.138  26.916  21.170  0.00  0.00    +0.000 C 
ATOM      8  C   UNL     1      28.135  27.679  22.449  0.00  0.00    +0.000 C 
ATOM      9  C   UNL     1      28.150  26.814  23.681  0.00  0.00    +0.000 C 
ATOM     10  C   UNL     1      29.442  26.059  23.846  0.00  0.00    +0.000 C 
ATOM     11  C   UNL     1      27.948  24.085  23.669  0.00  0.00    +0.000 C 
ATOM     12  O   UNL     1      26.847  24.428  23.164  0.00  0.00    +0.000 OA
ATOM     13  N   UNL     1      28.178  23.106  24.681  0.00  0.00    +0.000 N 
ENDROOT
BRANCH  13  14
ATOM     14  C   UNL     1      27.120  22.497  25.442  0.00  0.00    +0.000 C 
BRANCH  14  15
ATOM     15  C   UNL     1      26.627  23.345  26.539  0.00  0.00    +0.000 A 
ATOM     16  C   UNL     1      25.560  24.199  26.416  0.00  0.00    +0.000 A 
ATOM     17  C   UNL     1      25.127  24.979  27.467  0.00  0.00    +0.000 A 
ATOM     18  C   UNL     1      25.754  24.927  28.684  0.00  0.00    +0.000 A 
ATOM     19  C   UNL     1      26.828  24.079  28.833  0.00  0.00    +0.000 A 
ATOM     20  C   UNL     1      27.259  23.293  27.759  0.00  0.00    +0.000 A 
ATOM     21  F   UNL     1      28.318  22.494  28.006  0.00  0.00    +0.000 F 
ENDBRANCH  14  15
ENDBRANCH  13  14
TORSDOF 2
ENDMDL
MODEL 9
REMARK VINA RESULT:      -6.1     18.714     20.701
REMARK  Name = 
REMARK  2 active torsions:
REMARK  status: ('A' for Active; 'I' for Inactive)
REMARK    1  A    between atoms: N_13  and  C_14
REMARK    2  A    between atoms: C_14  and  C_15
REMARK                            x       y       z     vdW  Elec       q    Type
REMARK                         _______ _______ _______ _____ _____    ______ ____
ROOT
ATOM      1  O   UNL     1      28.893  23.524  31.003  0.00  0.00    +0.000 OA
ATOM      2  C   UNL     1      29.116  23.350  29.758  0.00  0.00    +0.000 C 
ATOM      3  N   UNL     1      30.370  23.459  29.088  0.00  0.00    +0.000 NA
ATOM      4  C   UNL     1      30.092  23.425  27.668  0.00  0.00    +0.000 C 
ATOM      5  C   UNL     1      31.025  22.491  26.922  0.00  0.00    +0.000 C 
ATOM      6  C   UNL     1      30.352  22.222  25.569  0.00  0.00    +0.000 C 
ATOM      7  C   UNL     1      30.908  23.130  24.501  0.00  0.00    +0.000 C 
ATOM      8  C   UNL     1      30.338  24.505  24.535  0.00  0.00    +0.000 C 
ATOM      9  C   UNL     1      29.451  24.775  25.722  0.00  0.00    +0.000 C 
ATOM     10  C   UNL     1      30.210  24.788  27.022  0.00  0.00    +0.000 C 
ATOM     11  C   UNL     1      28.702  22.893  27.563  0.00  0.00    +0.000 C 
ATOM     12  O   UNL     1      28.199  22.434  26.504  0.00  0.00    +0.000 OA
ATOM     13  N   UNL     1      28.087  23.004  28.845  0.00  0.00    +0.000 N 
ENDROOT
BRANCH  13  14
ATOM     14  C   UNL     1      26.682  22.789  29.067  0.00  0.00    +0.000 C 
BRANCH  14  15
ATOM     15  C   UNL     1      25.891  24.030  29.049  0.00  0.00    +0.000 A 
ATOM     16  C   UNL     1      25.667  24.802  30.161  0.00  0.00    +0.000 A 
ATOM     17  C   UNL     1      24.920  25.960  30.105  0.00  0.00    +0.000 A 
ATOM     18  C   UNL     1      24.371  26.384  28.923  0.00  0.00    +0.000 A 
ATOM     19  C   UNL     1      24.582  25.627  27.792  0.00  0.00    +0.000 A 
ATOM     20  C   UNL     1      25.341  24.454  27.862  0.00  0.00    +0.000 A 
ATOM     21  F   UNL     1      25.491  23.784  26.701  0.00  0.00    +0.000 F 
ENDBRANCH  14  15
ENDBRANCH  13  14
TORSDOF 2
ENDMDL
MODEL 10
REMARK VINA RESULT:      -6.1     19.236     21.576
REMARK  Name = 
REMARK  2 active torsions:
REMARK  status: ('A' for Active; 'I' for Inactive)
REMARK    1  A    between atoms: N_13  and  C_14
REMARK    2  A    between atoms: C_14  and  C_15
REMARK                            x       y       z     vdW  Elec       q    Type
REMARK                         _______ _______ _______ _____ _____    ______ ____
ROOT
ATOM      1  O   UNL     1      31.101  22.140  27.019  0.00  0.00    +0.000 OA
ATOM      2  C   UNL     1      30.365  22.762  26.183  0.00  0.00    +0.000 C 
ATOM      3  N   UNL     1      30.236  22.495  24.788  0.00  0.00    +0.000 NA
ATOM      4  C   UNL     1      29.497  23.599  24.215  0.00  0.00    +0.000 C 
ATOM      5  C   UNL     1      28.396  23.132  23.283  0.00  0.00    +0.000 C 
ATOM      6  C   UNL     1      27.454  24.332  23.115  0.00  0.00    +0.000 C 
ATOM      7  C   UNL     1      27.773  25.095  21.855  0.00  0.00    +0.000 C 
ATOM      8  C   UNL     1      28.943  26.007  21.992  0.00  0.00    +0.000 C 
ATOM      9  C   UNL     1      29.681  25.867  23.297  0.00  0.00    +0.000 C 
ATOM     10  C   UNL     1      30.382  24.541  23.428  0.00  0.00    +0.000 C 
ATOM     11  C   UNL     1      28.872  24.289  25.381  0.00  0.00    +0.000 C 
ATOM     12  O   UNL     1      27.920  25.107  25.292  0.00  0.00    +0.000 OA
ATOM     13  N   UNL     1      29.540  23.852  26.564  0.00  0.00    +0.000 N 
ENDROOT
BRANCH  13  14
ATOM     14  C   UNL     1      29.348  24.467  27.850  0.00  0.00    +0.000 C 
BRANCH  14  15
ATOM     15  C   UNL     1      28.326  23.799  28.670  0.00  0.00    +0.000 A 
ATOM     16  C   UNL     1      26.980  24.038  28.547  0.00  0.00    +0.000 A 
ATOM     17  C   UNL     1      26.051  23.391  29.334  0.00  0.00    +0.000 A 
ATOM     18  C   UNL     1      26.444  22.477  30.276  0.00  0.00    +0.000 A 
ATOM     19  C   UNL     1      27.789  22.219  30.419  0.00  0.00    +0.000 A 
ATOM     20  C   UNL     1      28.722  22.882  29.615  0.00  0.00    +0.000 A 
ATOM     21  F   UNL     1      30.015  22.560  29.831  0.00  0.00    +0.000 F 
ENDBRANCH  14  15
ENDBRANCH  13  14
TORSDOF 2
ENDMDL
