MODEL 1
REMARK VINA RESULT:      -7.6      0.000      0.000
REMARK  Name = 
REMARK  9 active torsions:
REMARK  status: ('A' for Active; 'I' for Inactive)
REMARK    1  A    between atoms: C_2  and  N_3
REMARK    2  A    between atoms: N_3  and  C_4
REMARK    3  A    between atoms: N_3  and  C_6
REMARK    4  A    between atoms: C_9  and  C_10
REMARK    5  A    between atoms: C_10  and  O_12
REMARK    6  A    between atoms: O_12  and  C_13
REMARK    7  A    between atoms: C_13  and  C_14
REMARK    8  A    between atoms: N_16  and  C_17
REMARK    9  A    between atoms: C_22  and  C_23
REMARK                            x       y       z     vdW  Elec       q    Type
REMARK                         _______ _______ _______ _____ _____    ______ ____
ROOT
ATOM      1  C   UNL     1      38.231   2.552  14.665  0.00  0.00    +0.000 C 
ENDROOT
BRANCH   1   2
ATOM      2  C   UNL     1      37.169   1.569  14.935  0.00  0.00    +0.000 C 
ATOM      3  O   UNL     1      36.111   1.496  14.228  0.00  0.00    +0.000 OA
ATOM      4  N   UNL     1      37.278   0.652  16.004  0.00  0.00    +0.000 NA
BRANCH   4   5
ATOM      5  C   UNL     1      36.302  -0.323  16.327  0.00  0.00    +0.000 A 
ATOM      6  C   UNL     1      35.144  -0.099  17.014  0.00  0.00    +0.000 A 
ATOM      7  C   UNL     1      34.223  -1.083  17.303  0.00  0.00    +0.000 A 
ATOM      8  C   UNL     1      34.486  -2.363  16.877  0.00  0.00    +0.000 A 
ATOM      9  C   UNL     1      35.651  -2.632  16.176  0.00  0.00    +0.000 A 
ATOM     10  C   UNL     1      36.559  -1.627  15.899  0.00  0.00    +0.000 A 
BRANCH  10  11
ATOM     11  C   UNL     1      37.777  -1.943  15.163  0.00  0.00    +0.000 A 
ATOM     12  C   UNL     1      38.931  -2.230  15.867  0.00  0.00    +0.000 A 
ATOM     13  C   UNL     1      40.128  -2.539  15.257  0.00  0.00    +0.000 A 
ATOM     14  C   UNL     1      40.168  -2.560  13.862  0.00  0.00    +0.000 A 
ATOM     15  C   UNL     1      39.032  -2.278  13.145  0.00  0.00    +0.000 A 
ATOM     16  C   UNL     1      37.850  -1.972  13.800  0.00  0.00    +0.000 A 
ENDBRANCH  10  11
ENDBRANCH   4   5
ENDBRANCH   1   2
BRANCH   1  17
ATOM     17  O   UNL     1      38.721   3.203  15.794  0.00  0.00    +0.000 OA
BRANCH  17  18
ATOM     18  C   UNL     1      38.421   4.493  16.194  0.00  0.00    +0.000 C 
ATOM     19  O   UNL     1      37.372   5.009  15.735  0.00  0.00    +0.000 OA
BRANCH  18  23
ATOM     20  C   UNL     1      41.037   6.631  18.859  0.00  0.00    +0.000 A 
ATOM     21  C   UNL     1      39.880   6.029  19.290  0.00  0.00    +0.000 A 
ATOM     22  C   UNL     1      39.016   5.331  18.459  0.00  0.00    +0.000 A 
ATOM     23  C   UNL     1      39.304   5.215  17.116  0.00  0.00    +0.000 A 
ATOM     24  C   UNL     1      40.456   5.811  16.660  0.00  0.00    +0.000 A 
ATOM     25  C   UNL     1      41.312   6.502  17.488  0.00  0.00    +0.000 A 
BRANCH  20  26
ATOM     26  N   UNL     1      41.916   7.345  19.706  0.00  0.00    +0.000 N 
BRANCH  26  28
ATOM     27  C   UNL     1      43.192   6.036  21.309  0.00  0.00    +0.000 C 
ATOM     28  C   UNL     1      43.212   6.798  20.012  0.00  0.00    +0.000 C 
ENDBRANCH  26  28
BRANCH  26  29
ATOM     29  C   UNL     1      41.501   8.629  20.266  0.00  0.00    +0.000 C 
ATOM     30  C   UNL     1      41.370   9.651  19.137  0.00  0.00    +0.000 C 
ENDBRANCH  26  29
ENDBRANCH  20  26
ENDBRANCH  18  23
ENDBRANCH  17  18
ENDBRANCH   1  17
TORSDOF 9
ENDMDL
MODEL 2
REMARK VINA RESULT:      -7.6      0.120      1.815
REMARK  Name = 
REMARK  9 active torsions:
REMARK  status: ('A' for Active; 'I' for Inactive)
REMARK    1  A    between atoms: C_2  and  N_3
REMARK    2  A    between atoms: N_3  and  C_4
REMARK    3  A    between atoms: N_3  and  C_6
REMARK    4  A    between atoms: C_9  and  C_10
REMARK    5  A    between atoms: C_10  and  O_12
REMARK    6  A    between atoms: O_12  and  C_13
REMARK    7  A    between atoms: C_13  and  C_14
REMARK    8  A    between atoms: N_16  and  C_17
REMARK    9  A    between atoms: C_22  and  C_23
REMARK                            x       y       z     vdW  Elec       q    Type
REMARK                         _______ _______ _______ _____ _____    ______ ____
ROOT
ATOM      1  C   UNL     1      38.324   2.536  14.680  0.00  0.00    +0.000 C 
ENDROOT
BRANCH   1   2
ATOM      2  C   UNL     1      37.260   1.553  14.945  0.00  0.00    +0.000 C 
ATOM      3  O   UNL     1      36.219   1.461  14.216  0.00  0.00    +0.000 OA
ATOM      4  N   UNL     1      37.349   0.658  16.034  0.00  0.00    +0.000 NA
BRANCH   4   5
ATOM      5  C   UNL     1      36.370  -0.314  16.355  0.00  0.00    +0.000 A 
ATOM      6  C   UNL     1      35.190  -0.081  17.000  0.00  0.00    +0.000 A 
ATOM      7  C   UNL     1      34.267  -1.062  17.288  0.00  0.00    +0.000 A 
ATOM      8  C   UNL     1      34.550  -2.351  16.905  0.00  0.00    +0.000 A 
ATOM      9  C   UNL     1      35.738  -2.631  16.247  0.00  0.00    +0.000 A 
ATOM     10  C   UNL     1      36.647  -1.627  15.969  0.00  0.00    +0.000 A 
BRANCH  10  11
ATOM     11  C   UNL     1      37.889  -1.954  15.278  0.00  0.00    +0.000 A 
ATOM     12  C   UNL     1      37.888  -2.032  13.898  0.00  0.00    +0.000 A 
ATOM     13  C   UNL     1      39.012  -2.334  13.160  0.00  0.00    +0.000 A 
ATOM     14  C   UNL     1      40.204  -2.573  13.848  0.00  0.00    +0.000 A 
ATOM     15  C   UNL     1      40.224  -2.500  15.218  0.00  0.00    +0.000 A 
ATOM     16  C   UNL     1      39.069  -2.192  15.919  0.00  0.00    +0.000 A 
ENDBRANCH  10  11
ENDBRANCH   4   5
ENDBRANCH   1   2
BRANCH   1  17
ATOM     17  O   UNL     1      38.801   3.195  15.810  0.00  0.00    +0.000 OA
BRANCH  17  18
ATOM     18  C   UNL     1      38.461   4.471  16.221  0.00  0.00    +0.000 C 
ATOM     19  O   UNL     1      37.367   4.935  15.815  0.00  0.00    +0.000 OA
BRANCH  18  23
ATOM     20  C   UNL     1      41.056   6.702  18.831  0.00  0.00    +0.000 A 
ATOM     21  C   UNL     1      41.306   6.564  17.486  0.00  0.00    +0.000 A 
ATOM     22  C   UNL     1      40.490   5.854  16.618  0.00  0.00    +0.000 A 
ATOM     23  C   UNL     1      39.355   5.238  17.097  0.00  0.00    +0.000 A 
ATOM     24  C   UNL     1      39.083   5.361  18.439  0.00  0.00    +0.000 A 
ATOM     25  C   UNL     1      39.895   6.066  19.298  0.00  0.00    +0.000 A 
BRANCH  20  26
ATOM     26  N   UNL     1      41.890   7.424  19.716  0.00  0.00    +0.000 N 
BRANCH  26  28
ATOM     27  C   UNL     1      41.696   9.820  19.360  0.00  0.00    +0.000 C 
ATOM     28  C   UNL     1      41.425   8.663  20.282  0.00  0.00    +0.000 C 
ENDBRANCH  26  28
BRANCH  26  29
ATOM     29  C   UNL     1      43.216   6.907  20.048  0.00  0.00    +0.000 C 
ATOM     30  C   UNL     1      43.104   5.963  21.244  0.00  0.00    +0.000 C 
ENDBRANCH  26  29
ENDBRANCH  20  26
ENDBRANCH  18  23
ENDBRANCH  17  18
ENDBRANCH   1  17
TORSDOF 9
ENDMDL
MODEL 3
REMARK VINA RESULT:      -7.5      1.331      3.588
REMARK  Name = 
REMARK  9 active torsions:
REMARK  status: ('A' for Active; 'I' for Inactive)
REMARK    1  A    between atoms: C_2  and  N_3
REMARK    2  A    between atoms: N_3  and  C_4
REMARK    3  A    between atoms: N_3  and  C_6
REMARK    4  A    between atoms: C_9  and  C_10
REMARK    5  A    between atoms: C_10  and  O_12
REMARK    6  A    between atoms: O_12  and  C_13
REMARK    7  A    between atoms: C_13  and  C_14
REMARK    8  A    between atoms: N_16  and  C_17
REMARK    9  A    between atoms: C_22  and  C_23
REMARK                            x       y       z     vdW  Elec       q    Type
REMARK                         _______ _______ _______ _____ _____    ______ ____
ROOT
ATOM      1  C   UNL     1      36.897   2.304  14.515  0.00  0.00    +0.000 C 
ENDROOT
BRANCH   1   2
ATOM      2  C   UNL     1      37.521   0.973  14.438  0.00  0.00    +0.000 C 
ATOM      3  O   UNL     1      37.289   0.165  13.480  0.00  0.00    +0.000 OA
ATOM      4  N   UNL     1      38.414   0.527  15.437  0.00  0.00    +0.000 NA
BRANCH   4   5
ATOM      5  C   UNL     1      39.054  -0.737  15.435  0.00  0.00    +0.000 A 
ATOM      6  C   UNL     1      40.207  -1.051  14.775  0.00  0.00    +0.000 A 
ATOM      7  C   UNL     1      40.792  -2.298  14.805  0.00  0.00    +0.000 A 
ATOM      8  C   UNL     1      40.181  -3.284  15.541  0.00  0.00    +0.000 A 
ATOM      9  C   UNL     1      39.009  -3.006  16.227  0.00  0.00    +0.000 A 
ATOM     10  C   UNL     1      38.442  -1.747  16.181  0.00  0.00    +0.000 A 
BRANCH  10  11
ATOM     11  C   UNL     1      37.206  -1.487  16.910  0.00  0.00    +0.000 A 
ATOM     12  C   UNL     1      37.278  -1.090  18.232  0.00  0.00    +0.000 A 
ATOM     13  C   UNL     1      36.165  -0.824  19.000  0.00  0.00    +0.000 A 
ATOM     14  C   UNL     1      34.909  -0.965  18.407  0.00  0.00    +0.000 A 
ATOM     15  C   UNL     1      34.818  -1.358  17.095  0.00  0.00    +0.000 A 
ATOM     16  C   UNL     1      35.963  -1.616  16.360  0.00  0.00    +0.000 A 
ENDBRANCH  10  11
ENDBRANCH   4   5
ENDBRANCH   1   2
BRANCH   1  17
ATOM     17  O   UNL     1      37.468   3.159  15.454  0.00  0.00    +0.000 OA
BRANCH  17  18
ATOM     18  C   UNL     1      38.444   4.110  15.213  0.00  0.00    +0.000 C 
ATOM     19  O   UNL     1      38.791   4.290  14.019  0.00  0.00    +0.000 OA
BRANCH  18  23
ATOM     20  C   UNL     1      40.165   6.304  18.491  0.00  0.00    +0.000 A 
ATOM     21  C   UNL     1      40.605   6.449  17.197  0.00  0.00    +0.000 A 
ATOM     22  C   UNL     1      40.071   5.759  16.118  0.00  0.00    +0.000 A 
ATOM     23  C   UNL     1      39.039   4.869  16.319  0.00  0.00    +0.000 A 
ATOM     24  C   UNL     1      38.582   4.705  17.606  0.00  0.00    +0.000 A 
ATOM     25  C   UNL     1      39.114   5.392  18.674  0.00  0.00    +0.000 A 
BRANCH  20  26
ATOM     26  N   UNL     1      40.711   7.006  19.591  0.00  0.00    +0.000 N 
BRANCH  26  28
ATOM     27  C   UNL     1      39.064   8.773  19.861  0.00  0.00    +0.000 C 
ATOM     28  C   UNL     1      39.834   7.663  20.523  0.00  0.00    +0.000 C 
ENDBRANCH  26  28
BRANCH  26  29
ATOM     29  C   UNL     1      42.161   7.059  19.769  0.00  0.00    +0.000 C 
ATOM     30  C   UNL     1      42.565   6.104  20.892  0.00  0.00    +0.000 C 
ENDBRANCH  26  29
ENDBRANCH  20  26
ENDBRANCH  18  23
ENDBRANCH  17  18
ENDBRANCH   1  17
TORSDOF 9
ENDMDL
MODEL 4
REMARK VINA RESULT:      -7.4      1.743      2.420
REMARK  Name = 
REMARK  9 active torsions:
REMARK  status: ('A' for Active; 'I' for Inactive)
REMARK    1  A    between atoms: C_2  and  N_3
REMARK    2  A    between atoms: N_3  and  C_4
REMARK    3  A    between atoms: N_3  and  C_6
REMARK    4  A    between atoms: C_9  and  C_10
REMARK    5  A    between atoms: C_10  and  O_12
REMARK    6  A    between atoms: O_12  and  C_13
REMARK    7  A    between atoms: C_13  and  C_14
REMARK    8  A    between atoms: N_16  and  C_17
REMARK    9  A    between atoms: C_22  and  C_23
REMARK                            x       y       z     vdW  Elec       q    Type
REMARK                         _______ _______ _______ _____ _____    ______ ____
ROOT
ATOM      1  C   UNL     1      35.747   1.634  15.351  0.00  0.00    +0.000 C 
ENDROOT
BRANCH   1   2
ATOM      2  C   UNL     1      36.353   0.861  16.447  0.00  0.00    +0.000 C 
ATOM      3  O   UNL     1      36.683   1.395  17.556  0.00  0.00    +0.000 OA
ATOM      4  N   UNL     1      36.599  -0.523  16.316  0.00  0.00    +0.000 NA
BRANCH   4   5
ATOM      5  C   UNL     1      37.177  -1.335  17.322  0.00  0.00    +0.000 A 
ATOM      6  C   UNL     1      36.805  -1.369  18.636  0.00  0.00    +0.000 A 
ATOM      7  C   UNL     1      37.399  -2.179  19.578  0.00  0.00    +0.000 A 
ATOM      8  C   UNL     1      38.425  -3.000  19.176  0.00  0.00    +0.000 A 
ATOM      9  C   UNL     1      38.833  -2.996  17.851  0.00  0.00    +0.000 A 
ATOM     10  C   UNL     1      38.220  -2.173  16.924  0.00  0.00    +0.000 A 
BRANCH  10  11
ATOM     11  C   UNL     1      38.674  -2.190  15.538  0.00  0.00    +0.000 A 
ATOM     12  C   UNL     1      39.754  -1.406  15.177  0.00  0.00    +0.000 A 
ATOM     13  C   UNL     1      40.252  -1.357  13.892  0.00  0.00    +0.000 A 
ATOM     14  C   UNL     1      39.630  -2.138  12.916  0.00  0.00    +0.000 A 
ATOM     15  C   UNL     1      38.557  -2.923  13.257  0.00  0.00    +0.000 A 
ATOM     16  C   UNL     1      38.089  -2.942  14.561  0.00  0.00    +0.000 A 
ENDBRANCH  10  11
ENDBRANCH   4   5
ENDBRANCH   1   2
BRANCH   1  17
ATOM     17  O   UNL     1      36.114   2.976  15.313  0.00  0.00    +0.000 OA
BRANCH  17  18
ATOM     18  C   UNL     1      37.337   3.482  14.909  0.00  0.00    +0.000 C 
ATOM     19  O   UNL     1      37.688   3.264  13.723  0.00  0.00    +0.000 OA
BRANCH  18  23
ATOM     20  C   UNL     1      39.829   5.728  17.605  0.00  0.00    +0.000 A 
ATOM     21  C   UNL     1      38.753   4.991  18.039  0.00  0.00    +0.000 A 
ATOM     22  C   UNL     1      37.932   4.255  17.198  0.00  0.00    +0.000 A 
ATOM     23  C   UNL     1      38.179   4.240  15.842  0.00  0.00    +0.000 A 
ATOM     24  C   UNL     1      39.249   4.971  15.383  0.00  0.00    +0.000 A 
ATOM     25  C   UNL     1      40.063   5.699  16.221  0.00  0.00    +0.000 A 
BRANCH  20  26
ATOM     26  N   UNL     1      40.665   6.481  18.462  0.00  0.00    +0.000 N 
BRANCH  26  28
ATOM     27  C   UNL     1      43.066   6.761  18.215  0.00  0.00    +0.000 C 
ATOM     28  C   UNL     1      41.700   7.308  17.902  0.00  0.00    +0.000 C 
ENDBRANCH  26  28
BRANCH  26  29
ATOM     29  C   UNL     1      40.471   6.410  19.909  0.00  0.00    +0.000 C 
ATOM     30  C   UNL     1      39.638   7.607  20.365  0.00  0.00    +0.000 C 
ENDBRANCH  26  29
ENDBRANCH  20  26
ENDBRANCH  18  23
ENDBRANCH  17  18
ENDBRANCH   1  17
TORSDOF 9
ENDMDL
MODEL 5
REMARK VINA RESULT:      -7.4      1.696      3.303
REMARK  Name = 
REMARK  9 active torsions:
REMARK  status: ('A' for Active; 'I' for Inactive)
REMARK    1  A    between atoms: C_2  and  N_3
REMARK    2  A    between atoms: N_3  and  C_4
REMARK    3  A    between atoms: N_3  and  C_6
REMARK    4  A    between atoms: C_9  and  C_10
REMARK    5  A    between atoms: C_10  and  O_12
REMARK    6  A    between atoms: O_12  and  C_13
REMARK    7  A    between atoms: C_13  and  C_14
REMARK    8  A    between atoms: N_16  and  C_17
REMARK    9  A    between atoms: C_22  and  C_23
REMARK                            x       y       z     vdW  Elec       q    Type
REMARK                         _______ _______ _______ _____ _____    ______ ____
ROOT
ATOM      1  C   UNL     1      35.831   1.471  17.472  0.00  0.00    +0.000 C 
ENDROOT
BRANCH   1   2
ATOM      2  C   UNL     1      36.336   0.212  16.898  0.00  0.00    +0.000 C 
ATOM      3  O   UNL     1      37.162  -0.536  17.516  0.00  0.00    +0.000 OA
ATOM      4  N   UNL     1      35.920  -0.226  15.622  0.00  0.00    +0.000 NA
BRANCH   4   5
ATOM      5  C   UNL     1      36.359  -1.422  15.002  0.00  0.00    +0.000 A 
ATOM      6  C   UNL     1      35.805  -2.658  15.165  0.00  0.00    +0.000 A 
ATOM      7  C   UNL     1      36.268  -3.794  14.537  0.00  0.00    +0.000 A 
ATOM      8  C   UNL     1      37.350  -3.676  13.699  0.00  0.00    +0.000 A 
ATOM      9  C   UNL     1      37.941  -2.438  13.505  0.00  0.00    +0.000 A 
ATOM     10  C   UNL     1      37.458  -1.313  14.147  0.00  0.00    +0.000 A 
BRANCH  10  11
ATOM     11  C   UNL     1      38.104  -0.025  13.925  0.00  0.00    +0.000 A 
ATOM     12  C   UNL     1      37.590   0.828  12.967  0.00  0.00    +0.000 A 
ATOM     13  C   UNL     1      38.134   2.063  12.689  0.00  0.00    +0.000 A 
ATOM     14  C   UNL     1      39.259   2.463  13.412  0.00  0.00    +0.000 A 
ATOM     15  C   UNL     1      39.784   1.629  14.368  0.00  0.00    +0.000 A 
ATOM     16  C   UNL     1      39.204   0.396  14.615  0.00  0.00    +0.000 A 
ENDBRANCH  10  11
ENDBRANCH   4   5
ENDBRANCH   1   2
BRANCH   1  17
ATOM     17  O   UNL     1      36.800   2.453  17.660  0.00  0.00    +0.000 OA
BRANCH  17  18
ATOM     18  C   UNL     1      37.198   3.402  16.736  0.00  0.00    +0.000 C 
ATOM     19  O   UNL     1      36.596   3.421  15.634  0.00  0.00    +0.000 OA
BRANCH  18  23
ATOM     20  C   UNL     1      40.372   6.145  17.695  0.00  0.00    +0.000 A 
ATOM     21  C   UNL     1      40.105   5.751  16.406  0.00  0.00    +0.000 A 
ATOM     22  C   UNL     1      39.089   4.871  16.063  0.00  0.00    +0.000 A 
ATOM     23  C   UNL     1      38.282   4.341  17.046  0.00  0.00    +0.000 A 
ATOM     24  C   UNL     1      38.531   4.718  18.344  0.00  0.00    +0.000 A 
ATOM     25  C   UNL     1      39.540   5.592  18.682  0.00  0.00    +0.000 A 
BRANCH  20  26
ATOM     26  N   UNL     1      41.410   7.040  18.046  0.00  0.00    +0.000 N 
BRANCH  26  28
ATOM     27  C   UNL     1      40.566   9.319  18.027  0.00  0.00    +0.000 C 
ATOM     28  C   UNL     1      41.114   8.191  18.857  0.00  0.00    +0.000 C 
ENDBRANCH  26  28
BRANCH  26  29
ATOM     29  C   UNL     1      42.772   6.790  17.579  0.00  0.00    +0.000 C 
ATOM     30  C   UNL     1      43.737   6.905  18.758  0.00  0.00    +0.000 C 
ENDBRANCH  26  29
ENDBRANCH  20  26
ENDBRANCH  18  23
ENDBRANCH  17  18
ENDBRANCH   1  17
TORSDOF 9
ENDMDL
MODEL 6
REMARK VINA RESULT:      -7.3      1.396      2.883
REMARK  Name = 
REMARK  9 active torsions:
REMARK  status: ('A' for Active; 'I' for Inactive)
REMARK    1  A    between atoms: C_2  and  N_3
REMARK    2  A    between atoms: N_3  and  C_4
REMARK    3  A    between atoms: N_3  and  C_6
REMARK    4  A    between atoms: C_9  and  C_10
REMARK    5  A    between atoms: C_10  and  O_12
REMARK    6  A    between atoms: O_12  and  C_13
REMARK    7  A    between atoms: C_13  and  C_14
REMARK    8  A    between atoms: N_16  and  C_17
REMARK    9  A    between atoms: C_22  and  C_23
REMARK                            x       y       z     vdW  Elec       q    Type
REMARK                         _______ _______ _______ _____ _____    ______ ____
ROOT
ATOM      1  C   UNL     1      36.774   3.183  16.468  0.00  0.00    +0.000 C 
ENDROOT
BRANCH   1   2
ATOM      2  C   UNL     1      36.774   1.992  15.602  0.00  0.00    +0.000 C 
ATOM      3  O   UNL     1      35.801   1.709  14.831  0.00  0.00    +0.000 OA
ATOM      4  N   UNL     1      37.869   1.100  15.590  0.00  0.00    +0.000 NA
BRANCH   4   5
ATOM      5  C   UNL     1      37.946  -0.065  14.787  0.00  0.00    +0.000 A 
ATOM      6  C   UNL     1      38.300  -0.108  13.470  0.00  0.00    +0.000 A 
ATOM      7  C   UNL     1      38.362  -1.269  12.731  0.00  0.00    +0.000 A 
ATOM      8  C   UNL     1      38.048  -2.452  13.354  0.00  0.00    +0.000 A 
ATOM      9  C   UNL     1      37.684  -2.452  14.692  0.00  0.00    +0.000 A 
ATOM     10  C   UNL     1      37.630  -1.274  15.411  0.00  0.00    +0.000 A 
BRANCH  10  11
ATOM     11  C   UNL     1      37.239  -1.306  16.816  0.00  0.00    +0.000 A 
ATOM     12  C   UNL     1      38.144  -1.767  17.753  0.00  0.00    +0.000 A 
ATOM     13  C   UNL     1      37.864  -1.834  19.101  0.00  0.00    +0.000 A 
ATOM     14  C   UNL     1      36.603  -1.416  19.531  0.00  0.00    +0.000 A 
ATOM     15  C   UNL     1      35.691  -0.956  18.614  0.00  0.00    +0.000 A 
ATOM     16  C   UNL     1      36.016  -0.905  17.269  0.00  0.00    +0.000 A 
ENDBRANCH  10  11
ENDBRANCH   4   5
ENDBRANCH   1   2
BRANCH   1  17
ATOM     17  O   UNL     1      38.024   3.539  16.967  0.00  0.00    +0.000 OA
BRANCH  17  18
ATOM     18  C   UNL     1      38.827   4.569  16.511  0.00  0.00    +0.000 C 
ATOM     19  O   UNL     1      38.894   4.740  15.269  0.00  0.00    +0.000 OA
BRANCH  18  23
ATOM     20  C   UNL     1      41.019   7.075  19.239  0.00  0.00    +0.000 A 
ATOM     21  C   UNL     1      39.861   6.429  19.601  0.00  0.00    +0.000 A 
ATOM     22  C   UNL     1      39.132   5.614  18.748  0.00  0.00    +0.000 A 
ATOM     23  C   UNL     1      39.564   5.417  17.455  0.00  0.00    +0.000 A 
ATOM     24  C   UNL     1      40.720   6.054  17.067  0.00  0.00    +0.000 A 
ATOM     25  C   UNL     1      41.441   6.862  17.917  0.00  0.00    +0.000 A 
BRANCH  20  26
ATOM     26  N   UNL     1      41.760   7.908  20.108  0.00  0.00    +0.000 N 
BRANCH  26  28
ATOM     27  C   UNL     1      42.906   6.026  21.135  0.00  0.00    +0.000 C 
ATOM     28  C   UNL     1      43.013   7.444  20.643  0.00  0.00    +0.000 C 
ENDBRANCH  26  28
BRANCH  26  29
ATOM     29  C   UNL     1      41.248   9.232  20.456  0.00  0.00    +0.000 C 
ATOM     30  C   UNL     1      41.804  10.262  19.474  0.00  0.00    +0.000 C 
ENDBRANCH  26  29
ENDBRANCH  20  26
ENDBRANCH  18  23
ENDBRANCH  17  18
ENDBRANCH   1  17
TORSDOF 9
ENDMDL
MODEL 7
REMARK VINA RESULT:      -7.2      4.626      6.197
REMARK  Name = 
REMARK  9 active torsions:
REMARK  status: ('A' for Active; 'I' for Inactive)
REMARK    1  A    between atoms: C_2  and  N_3
REMARK    2  A    between atoms: N_3  and  C_4
REMARK    3  A    between atoms: N_3  and  C_6
REMARK    4  A    between atoms: C_9  and  C_10
REMARK    5  A    between atoms: C_10  and  O_12
REMARK    6  A    between atoms: O_12  and  C_13
REMARK    7  A    between atoms: C_13  and  C_14
REMARK    8  A    between atoms: N_16  and  C_17
REMARK    9  A    between atoms: C_22  and  C_23
REMARK                            x       y       z     vdW  Elec       q    Type
REMARK                         _______ _______ _______ _____ _____    ______ ____
ROOT
ATOM      1  C   UNL     1      39.590  -2.573  15.208  0.00  0.00    +0.000 C 
ENDROOT
BRANCH   1   2
ATOM      2  C   UNL     1      38.214  -2.975  14.874  0.00  0.00    +0.000 C 
ATOM      3  O   UNL     1      37.749  -2.898  13.690  0.00  0.00    +0.000 OA
ATOM      4  N   UNL     1      37.338  -3.471  15.865  0.00  0.00    +0.000 NA
BRANCH   4   5
ATOM      5  C   UNL     1      36.003  -3.878  15.624  0.00  0.00    +0.000 A 
ATOM      6  C   UNL     1      35.615  -5.065  15.071  0.00  0.00    +0.000 A 
ATOM      7  C   UNL     1      34.300  -5.416  14.858  0.00  0.00    +0.000 A 
ATOM      8  C   UNL     1      33.322  -4.522  15.222  0.00  0.00    +0.000 A 
ATOM      9  C   UNL     1      33.674  -3.307  15.787  0.00  0.00    +0.000 A 
ATOM     10  C   UNL     1      35.001  -2.978  15.991  0.00  0.00    +0.000 A 
BRANCH  10  11
ATOM     11  C   UNL     1      35.339  -1.689  16.584  0.00  0.00    +0.000 A 
ATOM     12  C   UNL     1      35.261  -1.542  17.956  0.00  0.00    +0.000 A 
ATOM     13  C   UNL     1      35.561  -0.363  18.605  0.00  0.00    +0.000 A 
ATOM     14  C   UNL     1      35.960   0.729  17.832  0.00  0.00    +0.000 A 
ATOM     15  C   UNL     1      36.043   0.601  16.468  0.00  0.00    +0.000 A 
ATOM     16  C   UNL     1      35.733  -0.603  15.858  0.00  0.00    +0.000 A 
ENDBRANCH  10  11
ENDBRANCH   4   5
ENDBRANCH   1   2
BRANCH   1  17
ATOM     17  O   UNL     1      39.769  -1.203  15.383  0.00  0.00    +0.000 OA
BRANCH  17  18
ATOM     18  C   UNL     1      40.039  -0.277  14.392  0.00  0.00    +0.000 C 
ATOM     19  O   UNL     1      41.097  -0.430  13.733  0.00  0.00    +0.000 OA
BRANCH  18  23
ATOM     20  C   UNL     1      37.365   3.016  13.661  0.00  0.00    +0.000 A 
ATOM     21  C   UNL     1      37.203   1.789  13.063  0.00  0.00    +0.000 A 
ATOM     22  C   UNL     1      38.044   0.708  13.278  0.00  0.00    +0.000 A 
ATOM     23  C   UNL     1      39.116   0.835  14.134  0.00  0.00    +0.000 A 
ATOM     24  C   UNL     1      39.301   2.054  14.744  0.00  0.00    +0.000 A 
ATOM     25  C   UNL     1      38.463   3.125  14.529  0.00  0.00    +0.000 A 
BRANCH  20  26
ATOM     26  N   UNL     1      36.509   4.119  13.439  0.00  0.00    +0.000 N 
BRANCH  26  28
ATOM     27  C   UNL     1      34.666   3.470  14.885  0.00  0.00    +0.000 C 
ATOM     28  C   UNL     1      35.626   4.558  14.487  0.00  0.00    +0.000 C 
ENDBRANCH  26  28
BRANCH  26  29
ATOM     29  C   UNL     1      36.526   4.803  12.147  0.00  0.00    +0.000 C 
ATOM     30  C   UNL     1      35.565   5.991  12.194  0.00  0.00    +0.000 C 
ENDBRANCH  26  29
ENDBRANCH  20  26
ENDBRANCH  18  23
ENDBRANCH  17  18
ENDBRANCH   1  17
TORSDOF 9
ENDMDL
MODEL 8
REMARK VINA RESULT:      -7.2      4.908      6.105
REMARK  Name = 
REMARK  9 active torsions:
REMARK  status: ('A' for Active; 'I' for Inactive)
REMARK    1  A    between atoms: C_2  and  N_3
REMARK    2  A    between atoms: N_3  and  C_4
REMARK    3  A    between atoms: N_3  and  C_6
REMARK    4  A    between atoms: C_9  and  C_10
REMARK    5  A    between atoms: C_10  and  O_12
REMARK    6  A    between atoms: O_12  and  C_13
REMARK    7  A    between atoms: C_13  and  C_14
REMARK    8  A    between atoms: N_16  and  C_17
REMARK    9  A    between atoms: C_22  and  C_23
REMARK                            x       y       z     vdW  Elec       q    Type
REMARK                         _______ _______ _______ _____ _____    ______ ____
ROOT
ATOM      1  C   UNL     1      35.401   0.784  16.344  0.00  0.00    +0.000 C 
ENDROOT
BRANCH   1   2
ATOM      2  C   UNL     1      35.836  -0.339  17.190  0.00  0.00    +0.000 C 
ATOM      3  O   UNL     1      35.013  -1.056  17.848  0.00  0.00    +0.000 OA
ATOM      4  N   UNL     1      37.202  -0.674  17.312  0.00  0.00    +0.000 NA
BRANCH   4   5
ATOM      5  C   UNL     1      37.700  -1.738  18.104  0.00  0.00    +0.000 A 
ATOM      6  C   UNL     1      37.618  -1.831  19.464  0.00  0.00    +0.000 A 
ATOM      7  C   UNL     1      38.117  -2.890  20.190  0.00  0.00    +0.000 A 
ATOM      8  C   UNL     1      38.733  -3.912  19.509  0.00  0.00    +0.000 A 
ATOM      9  C   UNL     1      38.837  -3.856  18.128  0.00  0.00    +0.000 A 
ATOM     10  C   UNL     1      38.328  -2.782  17.422  0.00  0.00    +0.000 A 
BRANCH  10  11
ATOM     11  C   UNL     1      38.456  -2.752  15.969  0.00  0.00    +0.000 A 
ATOM     12  C   UNL     1      39.717  -2.684  15.408  0.00  0.00    +0.000 A 
ATOM     13  C   UNL     1      39.935  -2.650  14.047  0.00  0.00    +0.000 A 
ATOM     14  C   UNL     1      38.823  -2.686  13.204  0.00  0.00    +0.000 A 
ATOM     15  C   UNL     1      37.563  -2.753  13.743  0.00  0.00    +0.000 A 
ATOM     16  C   UNL     1      37.390  -2.785  15.117  0.00  0.00    +0.000 A 
ENDBRANCH  10  11
ENDBRANCH   4   5
ENDBRANCH   1   2
BRANCH   1  17
ATOM     17  O   UNL     1      35.759   0.674  15.003  0.00  0.00    +0.000 OA
BRANCH  17  18
ATOM     18  C   UNL     1      36.489   1.592  14.270  0.00  0.00    +0.000 C 
ATOM     19  O   UNL     1      35.934   2.685  13.997  0.00  0.00    +0.000 OA
BRANCH  18  23
ATOM     20  C   UNL     1      40.487   0.700  12.948  0.00  0.00    +0.000 A 
ATOM     21  C   UNL     1      40.183   0.930  14.268  0.00  0.00    +0.000 A 
ATOM     22  C   UNL     1      38.906   1.218  14.727  0.00  0.00    +0.000 A 
ATOM     23  C   UNL     1      37.858   1.286  13.836  0.00  0.00    +0.000 A 
ATOM     24  C   UNL     1      38.136   1.060  12.509  0.00  0.00    +0.000 A 
ATOM     25  C   UNL     1      39.405   0.774  12.056  0.00  0.00    +0.000 A 
BRANCH  20  26
ATOM     26  N   UNL     1      41.789   0.409  12.479  0.00  0.00    +0.000 N 
BRANCH  26  28
ATOM     27  C   UNL     1      42.461  -0.208  10.226  0.00  0.00    +0.000 C 
ATOM     28  C   UNL     1      41.991  -0.690  11.572  0.00  0.00    +0.000 C 
ENDBRANCH  26  28
BRANCH  26  29
ATOM     29  C   UNL     1      42.918   1.224  12.922  0.00  0.00    +0.000 C 
ATOM     30  C   UNL     1      43.894   0.347  13.706  0.00  0.00    +0.000 C 
ENDBRANCH  26  29
ENDBRANCH  20  26
ENDBRANCH  18  23
ENDBRANCH  17  18
ENDBRANCH   1  17
TORSDOF 9
ENDMDL
MODEL 9
REMARK VINA RESULT:      -7.1      4.966      5.844
REMARK  Name = 
REMARK  9 active torsions:
REMARK  status: ('A' for Active; 'I' for Inactive)
REMARK    1  A    between atoms: C_2  and  N_3
REMARK    2  A    between atoms: N_3  and  C_4
REMARK    3  A    between atoms: N_3  and  C_6
REMARK    4  A    between atoms: C_9  and  C_10
REMARK    5  A    between atoms: C_10  and  O_12
REMARK    6  A    between atoms: O_12  and  C_13
REMARK    7  A    between atoms: C_13  and  C_14
REMARK    8  A    between atoms: N_16  and  C_17
REMARK    9  A    between atoms: C_22  and  C_23
REMARK                            x       y       z     vdW  Elec       q    Type
REMARK                         _______ _______ _______ _____ _____    ______ ____
ROOT
ATOM      1  C   UNL     1      35.938   1.615  14.139  0.00  0.00    +0.000 C 
ENDROOT
BRANCH   1   2
ATOM      2  C   UNL     1      36.441   1.108  15.426  0.00  0.00    +0.000 C 
ATOM      3  O   UNL     1      37.162   1.814  16.203  0.00  0.00    +0.000 OA
ATOM      4  N   UNL     1      36.140  -0.202  15.861  0.00  0.00    +0.000 NA
BRANCH   4   5
ATOM      5  C   UNL     1      36.584  -0.763  17.084  0.00  0.00    +0.000 A 
ATOM      6  C   UNL     1      36.105  -0.459  18.325  0.00  0.00    +0.000 A 
ATOM      7  C   UNL     1      36.570  -1.035  19.487  0.00  0.00    +0.000 A 
ATOM      8  C   UNL     1      37.575  -1.968  19.393  0.00  0.00    +0.000 A 
ATOM      9  C   UNL     1      38.089  -2.305  18.150  0.00  0.00    +0.000 A 
ATOM     10  C   UNL     1      37.605  -1.713  16.999  0.00  0.00    +0.000 A 
BRANCH  10  11
ATOM     11  C   UNL     1      38.169  -2.086  15.707  0.00  0.00    +0.000 A 
ATOM     12  C   UNL     1      39.538  -2.028  15.531  0.00  0.00    +0.000 A 
ATOM     13  C   UNL     1      40.160  -2.361  14.347  0.00  0.00    +0.000 A 
ATOM     14  C   UNL     1      39.360  -2.775  13.279  0.00  0.00    +0.000 A 
ATOM     15  C   UNL     1      37.998  -2.839  13.436  0.00  0.00    +0.000 A 
ATOM     16  C   UNL     1      37.416  -2.495  14.645  0.00  0.00    +0.000 A 
ENDBRANCH  10  11
ENDBRANCH   4   5
ENDBRANCH   1   2
BRANCH   1  17
ATOM     17  O   UNL     1      36.927   1.904  13.202  0.00  0.00    +0.000 OA
BRANCH  17  18
ATOM     18  C   UNL     1      37.670   0.986  12.482  0.00  0.00    +0.000 C 
ATOM     19  O   UNL     1      37.053   0.262  11.661  0.00  0.00    +0.000 OA
BRANCH  18  23
ATOM     20  C   UNL     1      41.927   0.644  13.018  0.00  0.00    +0.000 A 
ATOM     21  C   UNL     1      41.103   1.170  13.984  0.00  0.00    +0.000 A 
ATOM     22  C   UNL     1      39.729   1.292  13.845  0.00  0.00    +0.000 A 
ATOM     23  C   UNL     1      39.119   0.873  12.682  0.00  0.00    +0.000 A 
ATOM     24  C   UNL     1      39.922   0.344  11.699  0.00  0.00    +0.000 A 
ATOM     25  C   UNL     1      41.286   0.224  11.841  0.00  0.00    +0.000 A 
BRANCH  20  26
ATOM     26  N   UNL     1      43.328   0.522  13.159  0.00  0.00    +0.000 N 
BRANCH  26  28
ATOM     27  C   UNL     1      44.310   2.459  12.066  0.00  0.00    +0.000 C 
ATOM     28  C   UNL     1      44.193   0.959  12.095  0.00  0.00    +0.000 C 
ENDBRANCH  26  28
BRANCH  26  29
ATOM     29  C   UNL     1      43.887  -0.049  14.383  0.00  0.00    +0.000 C 
ATOM     30  C   UNL     1      43.675  -1.563  14.375  0.00  0.00    +0.000 C 
ENDBRANCH  26  29
ENDBRANCH  20  26
ENDBRANCH  18  23
ENDBRANCH  17  18
ENDBRANCH   1  17
TORSDOF 9
ENDMDL
MODEL 10
REMARK VINA RESULT:      -7.0      1.735      3.636
REMARK  Name = 
REMARK  9 active torsions:
REMARK  status: ('A' for Active; 'I' for Inactive)
REMARK    1  A    between atoms: C_2  and  N_3
REMARK    2  A    between atoms: N_3  and  C_4
REMARK    3  A    between atoms: N_3  and  C_6
REMARK    4  A    between atoms: C_9  and  C_10
REMARK    5  A    between atoms: C_10  and  O_12
REMARK    6  A    between atoms: O_12  and  C_13
REMARK    7  A    between atoms: C_13  and  C_14
REMARK    8  A    between atoms: N_16  and  C_17
REMARK    9  A    between atoms: C_22  and  C_23
REMARK                            x       y       z     vdW  Elec       q    Type
REMARK                         _______ _______ _______ _____ _____    ______ ____
ROOT
ATOM      1  C   UNL     1      36.989   1.194  15.706  0.00  0.00    +0.000 C 
ENDROOT
BRANCH   1   2
ATOM      2  C   UNL     1      37.981   0.619  14.783  0.00  0.00    +0.000 C 
ATOM      3  O   UNL     1      39.235   0.793  14.933  0.00  0.00    +0.000 OA
ATOM      4  N   UNL     1      37.581  -0.160  13.675  0.00  0.00    +0.000 NA
BRANCH   4   5
ATOM      5  C   UNL     1      38.473  -0.747  12.743  0.00  0.00    +0.000 A 
ATOM      6  C   UNL     1      39.034  -0.121  11.668  0.00  0.00    +0.000 A 
ATOM      7  C   UNL     1      39.899  -0.736  10.790  0.00  0.00    +0.000 A 
ATOM      8  C   UNL     1      40.215  -2.055  11.006  0.00  0.00    +0.000 A 
ATOM      9  C   UNL     1      39.666  -2.727  12.087  0.00  0.00    +0.000 A 
ATOM     10  C   UNL     1      38.801  -2.088  12.954  0.00  0.00    +0.000 A 
BRANCH  10  11
ATOM     11  C   UNL     1      38.238  -2.824  14.080  0.00  0.00    +0.000 A 
ATOM     12  C   UNL     1      38.959  -2.905  15.257  0.00  0.00    +0.000 A 
ATOM     13  C   UNL     1      38.507  -3.578  16.372  0.00  0.00    +0.000 A 
ATOM     14  C   UNL     1      37.262  -4.206  16.300  0.00  0.00    +0.000 A 
ATOM     15  C   UNL     1      36.531  -4.135  15.140  0.00  0.00    +0.000 A 
ATOM     16  C   UNL     1      37.024  -3.447  14.044  0.00  0.00    +0.000 A 
ENDBRANCH  10  11
ENDBRANCH   4   5
ENDBRANCH   1   2
BRANCH   1  17
ATOM     17  O   UNL     1      37.455   2.262  16.469  0.00  0.00    +0.000 OA
BRANCH  17  18
ATOM     18  C   UNL     1      37.559   3.579  16.060  0.00  0.00    +0.000 C 
ATOM     19  O   UNL     1      36.843   3.941  15.094  0.00  0.00    +0.000 OA
BRANCH  18  23
ATOM     20  C   UNL     1      40.228   6.273  18.095  0.00  0.00    +0.000 A 
ATOM     21  C   UNL     1      40.304   6.044  16.742  0.00  0.00    +0.000 A 
ATOM     22  C   UNL     1      39.459   5.185  16.056  0.00  0.00    +0.000 A 
ATOM     23  C   UNL     1      38.475   4.504  16.738  0.00  0.00    +0.000 A 
ATOM     24  C   UNL     1      38.379   4.714  18.093  0.00  0.00    +0.000 A 
ATOM     25  C   UNL     1      39.219   5.568  18.772  0.00  0.00    +0.000 A 
BRANCH  20  26
ATOM     26  N   UNL     1      41.092   7.147  18.796  0.00  0.00    +0.000 N 
BRANCH  26  28
ATOM     27  C   UNL     1      42.031   9.387  18.887  0.00  0.00    +0.000 C 
ATOM     28  C   UNL     1      41.844   8.136  18.071  0.00  0.00    +0.000 C 
ENDBRANCH  26  28
BRANCH  26  29
ATOM     29  C   UNL     1      41.214   7.036  20.248  0.00  0.00    +0.000 C 
ATOM     30  C   UNL     1      42.431   6.176  20.586  0.00  0.00    +0.000 C 
ENDBRANCH  26  29
ENDBRANCH  20  26
ENDBRANCH  18  23
ENDBRANCH  17  18
ENDBRANCH   1  17
TORSDOF 9
ENDMDL
