MODEL 1
REMARK VINA RESULT:      -6.7      0.000      0.000
REMARK  Name = 
REMARK  2 active torsions:
REMARK  status: ('A' for Active; 'I' for Inactive)
REMARK    1  A    between atoms: C_13  and  C_14
REMARK    2  A    between atoms: C_14  and  C_15
REMARK                            x       y       z     vdW  Elec       q    Type
REMARK                         _______ _______ _______ _____ _____    ______ ____
ROOT
ATOM      1  C   UNL     1      14.471  11.427  38.005  0.00  0.00    +0.000 C 
ATOM      2  N   UNL     1      15.586  11.109  37.147  0.00  0.00    +0.000 N 
ATOM      3  C   UNL     1      16.740  10.557  37.624  0.00  0.00    +0.000 A 
ATOM      4  C   UNL     1      17.591  10.376  36.588  0.00  0.00    +0.000 A 
ATOM      5  C   UNL     1      16.953  10.830  35.417  0.00  0.00    +0.000 A 
ATOM      6  C   UNL     1      17.377  10.867  34.122  0.00  0.00    +0.000 A 
ATOM      7  C   UNL     1      16.523  11.382  33.120  0.00  0.00    +0.000 A 
ATOM      8  C   UNL     1      15.281  11.826  33.530  0.00  0.00    +0.000 A 
ATOM      9  C   UNL     1      14.873  11.780  34.843  0.00  0.00    +0.000 A 
ATOM     10  C   UNL     1      15.723  11.269  35.823  0.00  0.00    +0.000 A 
ATOM     11  C   UNL     1      18.870   9.801  36.801  0.00  0.00    +0.000 C 
ATOM     12  O   UNL     1      19.564   9.462  35.816  0.00  0.00    +0.000 OA
ATOM     13  C   UNL     1      19.502   9.544  38.224  0.00  0.00    +0.000 C 
ATOM     14  C   UNL     1      18.083   9.048  38.960  0.00  0.00    +0.000 C 
ATOM     15  C   UNL     1      17.178  10.174  38.966  0.00  0.00    +0.000 C 
ENDROOT
BRANCH  13  16
ATOM     16  C   UNL     1      19.374  11.071  38.766  0.00  0.00    +0.000 C 
BRANCH  16  17
ATOM     17  C   UNL     1      20.765  11.587  38.664  0.00  0.00    +0.000 A 
ATOM     18  N   UNL     1      21.219  12.835  38.491  0.00  0.00    +0.000 NA
ATOM     19  C   UNL     1      22.552  12.846  38.455  0.00  0.00    +0.000 A 
ATOM     20  C   UNL     1      22.971  11.548  38.613  0.00  0.00    +0.000 A 
ATOM     21  N   UNL     1      21.878  10.784  38.740  0.00  0.00    +0.000 NA
ENDBRANCH  16  17
ENDBRANCH  13  16
TORSDOF 2
ENDMDL
MODEL 2
REMARK VINA RESULT:      -6.3     16.610     18.575
REMARK  Name = 
REMARK  2 active torsions:
REMARK  status: ('A' for Active; 'I' for Inactive)
REMARK    1  A    between atoms: C_13  and  C_14
REMARK    2  A    between atoms: C_14  and  C_15
REMARK                            x       y       z     vdW  Elec       q    Type
REMARK                         _______ _______ _______ _____ _____    ______ ____
ROOT
ATOM      1  C   UNL     1      33.762   0.985  32.743  0.00  0.00    +0.000 C 
ATOM      2  N   UNL     1      33.805   1.511  34.085  0.00  0.00    +0.000 N 
ATOM      3  C   UNL     1      33.703   2.846  34.350  0.00  0.00    +0.000 A 
ATOM      4  C   UNL     1      33.776   3.027  35.688  0.00  0.00    +0.000 A 
ATOM      5  C   UNL     1      33.929   1.763  36.290  0.00  0.00    +0.000 A 
ATOM      6  C   UNL     1      34.050   1.401  37.599  0.00  0.00    +0.000 A 
ATOM      7  C   UNL     1      34.195   0.037  37.938  0.00  0.00    +0.000 A 
ATOM      8  C   UNL     1      34.206  -0.866  36.893  0.00  0.00    +0.000 A 
ATOM      9  C   UNL     1      34.084  -0.479  35.578  0.00  0.00    +0.000 A 
ATOM     10  C   UNL     1      33.941   0.869  35.255  0.00  0.00    +0.000 A 
ATOM     11  C   UNL     1      33.683   4.329  36.244  0.00  0.00    +0.000 C 
ATOM     12  O   UNL     1      33.556   4.462  37.482  0.00  0.00    +0.000 OA
ATOM     13  C   UNL     1      33.724   5.660  35.397  0.00  0.00    +0.000 C 
ATOM     14  C   UNL     1      32.806   5.085  34.121  0.00  0.00    +0.000 C 
ATOM     15  C   UNL     1      33.554   4.021  33.491  0.00  0.00    +0.000 C 
ENDROOT
BRANCH  13  16
ATOM     16  C   UNL     1      35.138   5.367  34.653  0.00  0.00    +0.000 C 
BRANCH  16  17
ATOM     17  C   UNL     1      36.148   5.754  35.673  0.00  0.00    +0.000 A 
ATOM     18  N   UNL     1      37.166   5.058  36.197  0.00  0.00    +0.000 NA
ATOM     19  C   UNL     1      37.824   5.797  37.090  0.00  0.00    +0.000 A 
ATOM     20  C   UNL     1      37.202   7.019  37.142  0.00  0.00    +0.000 A 
ATOM     21  N   UNL     1      36.180   6.989  36.276  0.00  0.00    +0.000 NA
ENDBRANCH  16  17
ENDBRANCH  13  16
TORSDOF 2
ENDMDL
MODEL 3
REMARK VINA RESULT:      -6.3     21.351     22.957
REMARK  Name = 
REMARK  2 active torsions:
REMARK  status: ('A' for Active; 'I' for Inactive)
REMARK    1  A    between atoms: C_13  and  C_14
REMARK    2  A    between atoms: C_14  and  C_15
REMARK                            x       y       z     vdW  Elec       q    Type
REMARK                         _______ _______ _______ _____ _____    ______ ____
ROOT
ATOM      1  C   UNL     1      22.037 -10.657  26.382  0.00  0.00    +0.000 C 
ATOM      2  N   UNL     1      21.648  -9.326  25.985  0.00  0.00    +0.000 N 
ATOM      3  C   UNL     1      20.448  -8.780  26.337  0.00  0.00    +0.000 A 
ATOM      4  C   UNL     1      20.373  -7.532  25.822  0.00  0.00    +0.000 A 
ATOM      5  C   UNL     1      21.568  -7.280  25.119  0.00  0.00    +0.000 A 
ATOM      6  C   UNL     1      21.986  -6.184  24.426  0.00  0.00    +0.000 A 
ATOM      7  C   UNL     1      23.255  -6.192  23.802  0.00  0.00    +0.000 A 
ATOM      8  C   UNL     1      24.007  -7.341  23.938  0.00  0.00    +0.000 A 
ATOM      9  C   UNL     1      23.565  -8.438  24.642  0.00  0.00    +0.000 A 
ATOM     10  C   UNL     1      22.313  -8.419  25.254  0.00  0.00    +0.000 A 
ATOM     11  C   UNL     1      19.227  -6.728  26.048  0.00  0.00    +0.000 C 
ATOM     12  O   UNL     1      19.253  -5.517  25.735  0.00  0.00    +0.000 OA
ATOM     13  C   UNL     1      17.884  -7.256  26.688  0.00  0.00    +0.000 C 
ATOM     14  C   UNL     1      18.609  -8.250  27.823  0.00  0.00    +0.000 C 
ATOM     15  C   UNL     1      19.312  -9.289  27.107  0.00  0.00    +0.000 C 
ENDROOT
BRANCH  13  16
ATOM     16  C   UNL     1      17.635  -8.466  25.631  0.00  0.00    +0.000 C 
BRANCH  16  17
ATOM     17  C   UNL     1      16.179  -8.737  25.761  0.00  0.00    +0.000 A 
ATOM     18  N   UNL     1      15.122  -8.058  25.296  0.00  0.00    +0.000 NA
ATOM     19  C   UNL     1      13.988  -8.662  25.649  0.00  0.00    +0.000 A 
ATOM     20  C   UNL     1      14.331  -9.778  26.371  0.00  0.00    +0.000 A 
ATOM     21  N   UNL     1      15.668  -9.820  26.438  0.00  0.00    +0.000 NA
ENDBRANCH  16  17
ENDBRANCH  13  16
TORSDOF 2
ENDMDL
MODEL 4
REMARK VINA RESULT:      -6.2     18.246     20.691
REMARK  Name = 
REMARK  2 active torsions:
REMARK  status: ('A' for Active; 'I' for Inactive)
REMARK    1  A    between atoms: C_13  and  C_14
REMARK    2  A    between atoms: C_14  and  C_15
REMARK                            x       y       z     vdW  Elec       q    Type
REMARK                         _______ _______ _______ _____ _____    ______ ____
ROOT
ATOM      1  C   UNL     1      31.464  23.326  28.851  0.00  0.00    +0.000 C 
ATOM      2  N   UNL     1      30.144  23.264  28.271  0.00  0.00    +0.000 N 
ATOM      3  C   UNL     1      29.942  23.111  26.931  0.00  0.00    +0.000 A 
ATOM      4  C   UNL     1      28.611  23.088  26.695  0.00  0.00    +0.000 A 
ATOM      5  C   UNL     1      27.948  23.231  27.930  0.00  0.00    +0.000 A 
ATOM      6  C   UNL     1      26.621  23.270  28.236  0.00  0.00    +0.000 A 
ATOM      7  C   UNL     1      26.217  23.425  29.582  0.00  0.00    +0.000 A 
ATOM      8  C   UNL     1      27.220  23.530  30.524  0.00  0.00    +0.000 A 
ATOM      9  C   UNL     1      28.556  23.489  30.193  0.00  0.00    +0.000 A 
ATOM     10  C   UNL     1      28.943  23.335  28.863  0.00  0.00    +0.000 A 
ATOM     11  C   UNL     1      28.116  22.924  25.375  0.00  0.00    +0.000 C 
ATOM     12  O   UNL     1      26.897  22.710  25.197  0.00  0.00    +0.000 OA
ATOM     13  C   UNL     1      29.013  22.990  24.078  0.00  0.00    +0.000 C 
ATOM     14  C   UNL     1      30.324  22.178  24.728  0.00  0.00    +0.000 C 
ATOM     15  C   UNL     1      30.857  22.993  25.795  0.00  0.00    +0.000 C 
ENDROOT
BRANCH  13  16
ATOM     16  C   UNL     1      29.648  24.460  24.361  0.00  0.00    +0.000 C 
BRANCH  16  17
ATOM     17  C   UNL     1      29.514  25.147  23.049  0.00  0.00    +0.000 A 
ATOM     18  N   UNL     1      29.385  26.449  22.759  0.00  0.00    +0.000 NA
ATOM     19  C   UNL     1      29.295  26.625  21.441  0.00  0.00    +0.000 A 
ATOM     20  C   UNL     1      29.369  25.383  20.860  0.00  0.00    +0.000 A 
ATOM     21  N   UNL     1      29.502  24.485  21.845  0.00  0.00    +0.000 NA
ENDBRANCH  16  17
ENDBRANCH  13  16
TORSDOF 2
ENDMDL
MODEL 5
REMARK VINA RESULT:      -6.0      3.820      6.530
REMARK  Name = 
REMARK  2 active torsions:
REMARK  status: ('A' for Active; 'I' for Inactive)
REMARK    1  A    between atoms: C_13  and  C_14
REMARK    2  A    between atoms: C_14  and  C_15
REMARK                            x       y       z     vdW  Elec       q    Type
REMARK                         _______ _______ _______ _____ _____    ______ ____
ROOT
ATOM      1  C   UNL     1      19.880  10.101  37.302  0.00  0.00    +0.000 C 
ATOM      2  N   UNL     1      21.014  10.940  37.604  0.00  0.00    +0.000 N 
ATOM      3  C   UNL     1      22.294  10.569  37.314  0.00  0.00    +0.000 A 
ATOM      4  C   UNL     1      23.130  11.556  37.712  0.00  0.00    +0.000 A 
ATOM      5  C   UNL     1      22.350  12.586  38.272  0.00  0.00    +0.000 A 
ATOM      6  C   UNL     1      22.705  13.785  38.814  0.00  0.00    +0.000 A 
ATOM      7  C   UNL     1      21.705  14.651  39.314  0.00  0.00    +0.000 A 
ATOM      8  C   UNL     1      20.399  14.213  39.219  0.00  0.00    +0.000 A 
ATOM      9  C   UNL     1      20.063  12.997  38.669  0.00  0.00    +0.000 A 
ATOM     10  C   UNL     1      21.057  12.151  38.178  0.00  0.00    +0.000 A 
ATOM     11  C   UNL     1      24.530  11.434  37.517  0.00  0.00    +0.000 C 
ATOM     12  O   UNL     1      25.266  12.428  37.709  0.00  0.00    +0.000 OA
ATOM     13  C   UNL     1      25.251  10.107  37.060  0.00  0.00    +0.000 C 
ATOM     14  C   UNL     1      24.077   9.638  35.963  0.00  0.00    +0.000 C 
ATOM     15  C   UNL     1      22.868   9.367  36.707  0.00  0.00    +0.000 C 
ENDROOT
BRANCH  13  16
ATOM     16  C   UNL     1      24.672   9.159  38.247  0.00  0.00    +0.000 C 
BRANCH  16  17
ATOM     17  C   UNL     1      25.847   8.329  38.624  0.00  0.00    +0.000 A 
ATOM     18  N   UNL     1      25.911   7.149  39.256  0.00  0.00    +0.000 NA
ATOM     19  C   UNL     1      27.179   6.762  39.390  0.00  0.00    +0.000 A 
ATOM     20  C   UNL     1      27.962   7.734  38.819  0.00  0.00    +0.000 A 
ATOM     21  N   UNL     1      27.146   8.688  38.353  0.00  0.00    +0.000 NA
ENDBRANCH  16  17
ENDBRANCH  13  16
TORSDOF 2
ENDMDL
MODEL 6
REMARK VINA RESULT:      -5.9     16.441     18.511
REMARK  Name = 
REMARK  2 active torsions:
REMARK  status: ('A' for Active; 'I' for Inactive)
REMARK    1  A    between atoms: C_13  and  C_14
REMARK    2  A    between atoms: C_14  and  C_15
REMARK                            x       y       z     vdW  Elec       q    Type
REMARK                         _______ _______ _______ _____ _____    ______ ____
ROOT
ATOM      1  C   UNL     1      25.853  23.353  25.788  0.00  0.00    +0.000 C 
ATOM      2  N   UNL     1      27.157  23.162  26.374  0.00  0.00    +0.000 N 
ATOM      3  C   UNL     1      27.342  23.048  27.721  0.00  0.00    +0.000 A 
ATOM      4  C   UNL     1      28.663  22.879  27.962  0.00  0.00    +0.000 A 
ATOM      5  C   UNL     1      29.334  22.885  26.724  0.00  0.00    +0.000 A 
ATOM      6  C   UNL     1      30.657  22.753  26.420  0.00  0.00    +0.000 A 
ATOM      7  C   UNL     1      31.073  22.797  25.070  0.00  0.00    +0.000 A 
ATOM      8  C   UNL     1      30.087  22.976  24.121  0.00  0.00    +0.000 A 
ATOM      9  C   UNL     1      28.756  23.109  24.449  0.00  0.00    +0.000 A 
ATOM     10  C   UNL     1      28.357  23.063  25.784  0.00  0.00    +0.000 A 
ATOM     11  C   UNL     1      29.137  22.720  29.289  0.00  0.00    +0.000 C 
ATOM     12  O   UNL     1      30.323  22.371  29.481  0.00  0.00    +0.000 OA
ATOM     13  C   UNL     1      28.258  22.951  30.580  0.00  0.00    +0.000 C 
ATOM     14  C   UNL     1      26.859  22.269  29.964  0.00  0.00    +0.000 C 
ATOM     15  C   UNL     1      26.423  23.092  28.859  0.00  0.00    +0.000 C 
ENDROOT
BRANCH  13  16
ATOM     16  C   UNL     1      27.800  24.470  30.227  0.00  0.00    +0.000 C 
BRANCH  16  17
ATOM     17  C   UNL     1      27.535  25.065  31.563  0.00  0.00    +0.000 A 
ATOM     18  N   UNL     1      28.380  25.550  32.483  0.00  0.00    +0.000 NA
ATOM     19  C   UNL     1      27.709  25.989  33.547  0.00  0.00    +0.000 A 
ATOM     20  C   UNL     1      26.375  25.779  33.300  0.00  0.00    +0.000 A 
ATOM     21  N   UNL     1      26.274  25.215  32.089  0.00  0.00    +0.000 NA
ENDBRANCH  16  17
ENDBRANCH  13  16
TORSDOF 2
ENDMDL
MODEL 7
REMARK VINA RESULT:      -5.8     21.966     23.123
REMARK  Name = 
REMARK  2 active torsions:
REMARK  status: ('A' for Active; 'I' for Inactive)
REMARK    1  A    between atoms: C_13  and  C_14
REMARK    2  A    between atoms: C_14  and  C_15
REMARK                            x       y       z     vdW  Elec       q    Type
REMARK                         _______ _______ _______ _____ _____    ______ ____
ROOT
ATOM      1  C   UNL     1      19.603 -10.386  25.954  0.00  0.00    +0.000 C 
ATOM      2  N   UNL     1      19.994  -9.032  25.647  0.00  0.00    +0.000 N 
ATOM      3  C   UNL     1      20.987  -8.743  24.757  0.00  0.00    +0.000 A 
ATOM      4  C   UNL     1      21.121  -7.399  24.682  0.00  0.00    +0.000 A 
ATOM      5  C   UNL     1      20.181  -6.819  25.555  0.00  0.00    +0.000 A 
ATOM      6  C   UNL     1      19.912  -5.515  25.845  0.00  0.00    +0.000 A 
ATOM      7  C   UNL     1      18.896  -5.200  26.777  0.00  0.00    +0.000 A 
ATOM      8  C   UNL     1      18.226  -6.262  27.348  0.00  0.00    +0.000 A 
ATOM      9  C   UNL     1      18.514  -7.573  27.042  0.00  0.00    +0.000 A 
ATOM     10  C   UNL     1      19.516  -7.873  26.121  0.00  0.00    +0.000 A 
ATOM     11  C   UNL     1      22.082  -6.820  23.813  0.00  0.00    +0.000 C 
ATOM     12  O   UNL     1      22.062  -5.586  23.609  0.00  0.00    +0.000 OA
ATOM     13  C   UNL     1      23.203  -7.636  23.059  0.00  0.00    +0.000 C 
ATOM     14  C   UNL     1      22.244  -8.959  22.697  0.00  0.00    +0.000 C 
ATOM     15  C   UNL     1      21.871  -9.582  23.946  0.00  0.00    +0.000 C 
ENDROOT
BRANCH  13  16
ATOM     16  C   UNL     1      23.850  -8.331  24.378  0.00  0.00    +0.000 C 
BRANCH  16  17
ATOM     17  C   UNL     1      25.239  -8.645  23.951  0.00  0.00    +0.000 A 
ATOM     18  N   UNL     1      26.057  -9.641  24.315  0.00  0.00    +0.000 NA
ATOM     19  C   UNL     1      27.225  -9.540  23.681  0.00  0.00    +0.000 A 
ATOM     20  C   UNL     1      27.154  -8.432  22.875  0.00  0.00    +0.000 A 
ATOM     21  N   UNL     1      25.941  -7.888  23.043  0.00  0.00    +0.000 NA
ENDBRANCH  16  17
ENDBRANCH  13  16
TORSDOF 2
ENDMDL
MODEL 8
REMARK VINA RESULT:      -5.8     21.390     23.093
REMARK  Name = 
REMARK  2 active torsions:
REMARK  status: ('A' for Active; 'I' for Inactive)
REMARK    1  A    between atoms: C_13  and  C_14
REMARK    2  A    between atoms: C_14  and  C_15
REMARK                            x       y       z     vdW  Elec       q    Type
REMARK                         _______ _______ _______ _____ _____    ______ ____
ROOT
ATOM      1  C   UNL     1      26.118  28.339  22.937  0.00  0.00    +0.000 C 
ATOM      2  N   UNL     1      27.152  27.602  22.253  0.00  0.00    +0.000 N 
ATOM      3  C   UNL     1      27.429  26.297  22.539  0.00  0.00    +0.000 A 
ATOM      4  C   UNL     1      28.439  25.886  21.739  0.00  0.00    +0.000 A 
ATOM      5  C   UNL     1      28.813  26.968  20.919  0.00  0.00    +0.000 A 
ATOM      6  C   UNL     1      29.769  27.073  19.954  0.00  0.00    +0.000 A 
ATOM      7  C   UNL     1      29.941  28.297  19.268  0.00  0.00    +0.000 A 
ATOM      8  C   UNL     1      29.107  29.335  19.632  0.00  0.00    +0.000 A 
ATOM      9  C   UNL     1      28.148  29.209  20.612  0.00  0.00    +0.000 A 
ATOM     10  C   UNL     1      27.987  27.996  21.281  0.00  0.00    +0.000 A 
ATOM     11  C   UNL     1      28.923  24.554  21.819  0.00  0.00    +0.000 C 
ATOM     12  O   UNL     1      29.716  24.134  20.947  0.00  0.00    +0.000 OA
ATOM     13  C   UNL     1      28.523  23.531  22.952  0.00  0.00    +0.000 C 
ATOM     14  C   UNL     1      26.913  23.983  23.037  0.00  0.00    +0.000 C 
ATOM     15  C   UNL     1      26.868  25.350  23.503  0.00  0.00    +0.000 C 
ENDROOT
BRANCH  13  16
ATOM     16  C   UNL     1      28.962  24.461  24.210  0.00  0.00    +0.000 C 
BRANCH  16  17
ATOM     17  C   UNL     1      29.269  23.471  25.276  0.00  0.00    +0.000 A 
ATOM     18  N   UNL     1      30.397  22.800  25.541  0.00  0.00    +0.000 NA
ATOM     19  C   UNL     1      30.230  22.007  26.599  0.00  0.00    +0.000 A 
ATOM     20  C   UNL     1      28.939  22.176  27.032  0.00  0.00    +0.000 A 
ATOM     21  N   UNL     1      28.356  23.070  26.222  0.00  0.00    +0.000 NA
ENDBRANCH  16  17
ENDBRANCH  13  16
TORSDOF 2
ENDMDL
MODEL 9
REMARK VINA RESULT:      -5.7     11.171     12.320
REMARK  Name = 
REMARK  2 active torsions:
REMARK  status: ('A' for Active; 'I' for Inactive)
REMARK    1  A    between atoms: C_13  and  C_14
REMARK    2  A    between atoms: C_14  and  C_15
REMARK                            x       y       z     vdW  Elec       q    Type
REMARK                         _______ _______ _______ _____ _____    ______ ____
ROOT
ATOM      1  C   UNL     1      15.727  23.657  36.603  0.00  0.00    +0.000 C 
ATOM      2  N   UNL     1      16.860  22.935  36.077  0.00  0.00    +0.000 N 
ATOM      3  C   UNL     1      18.082  22.951  36.684  0.00  0.00    +0.000 A 
ATOM      4  C   UNL     1      18.932  22.186  35.962  0.00  0.00    +0.000 A 
ATOM      5  C   UNL     1      18.223  21.668  34.862  0.00  0.00    +0.000 A 
ATOM      6  C   UNL     1      18.618  20.851  33.845  0.00  0.00    +0.000 A 
ATOM      7  C   UNL     1      17.689  20.474  32.848  0.00  0.00    +0.000 A 
ATOM      8  C   UNL     1      16.408  20.973  32.972  0.00  0.00    +0.000 A 
ATOM      9  C   UNL     1      16.030  21.798  34.007  0.00  0.00    +0.000 A 
ATOM     10  C   UNL     1      16.954  22.163  34.985  0.00  0.00    +0.000 A 
ATOM     11  C   UNL     1      20.278  22.017  36.379  0.00  0.00    +0.000 C 
ATOM     12  O   UNL     1      20.993  21.159  35.817  0.00  0.00    +0.000 OA
ATOM     13  C   UNL     1      20.961  22.850  37.533  0.00  0.00    +0.000 C 
ATOM     14  C   UNL     1      19.629  22.870  38.547  0.00  0.00    +0.000 C 
ATOM     15  C   UNL     1      18.587  23.620  37.884  0.00  0.00    +0.000 C 
ENDROOT
BRANCH  13  16
ATOM     16  C   UNL     1      20.647  24.321  36.917  0.00  0.00    +0.000 C 
BRANCH  16  17
ATOM     17  C   UNL     1      21.996  24.935  36.796  0.00  0.00    +0.000 A 
ATOM     18  N   UNL     1      23.066  24.552  36.087  0.00  0.00    +0.000 NA
ATOM     19  C   UNL     1      24.076  25.401  36.272  0.00  0.00    +0.000 A 
ATOM     20  C   UNL     1      23.636  26.371  37.138  0.00  0.00    +0.000 A 
ATOM     21  N   UNL     1      22.367  26.082  37.456  0.00  0.00    +0.000 NA
ENDBRANCH  16  17
ENDBRANCH  13  16
TORSDOF 2
ENDMDL
MODEL 10
REMARK VINA RESULT:      -5.7     21.024     23.046
REMARK  Name = 
REMARK  2 active torsions:
REMARK  status: ('A' for Active; 'I' for Inactive)
REMARK    1  A    between atoms: C_13  and  C_14
REMARK    2  A    between atoms: C_14  and  C_15
REMARK                            x       y       z     vdW  Elec       q    Type
REMARK                         _______ _______ _______ _____ _____    ______ ____
ROOT
ATOM      1  C   UNL     1      28.087   3.195  14.653  0.00  0.00    +0.000 C 
ATOM      2  N   UNL     1      27.470   3.716  15.848  0.00  0.00    +0.000 N 
ATOM      3  C   UNL     1      26.459   3.064  16.492  0.00  0.00    +0.000 A 
ATOM      4  C   UNL     1      26.092   3.794  17.570  0.00  0.00    +0.000 A 
ATOM      5  C   UNL     1      26.900   4.947  17.609  0.00  0.00    +0.000 A 
ATOM      6  C   UNL     1      26.931   5.992  18.485  0.00  0.00    +0.000 A 
ATOM      7  C   UNL     1      27.858   7.041  18.290  0.00  0.00    +0.000 A 
ATOM      8  C   UNL     1      28.694   6.938  17.197  0.00  0.00    +0.000 A 
ATOM      9  C   UNL     1      28.646   5.875  16.324  0.00  0.00    +0.000 A 
ATOM     10  C   UNL     1      27.728   4.845  16.525  0.00  0.00    +0.000 A 
ATOM     11  C   UNL     1      25.061   3.338  18.431  0.00  0.00    +0.000 C 
ATOM     12  O   UNL     1      24.868   3.919  19.522  0.00  0.00    +0.000 OA
ATOM     13  C   UNL     1      24.115   2.116  18.112  0.00  0.00    +0.000 C 
ATOM     14  C   UNL     1      25.297   1.153  17.422  0.00  0.00    +0.000 C 
ATOM     15  C   UNL     1      25.751   1.813  16.220  0.00  0.00    +0.000 C 
ENDROOT
BRANCH  13  16
ATOM     16  C   UNL     1      23.575   2.663  16.680  0.00  0.00    +0.000 C 
BRANCH  16  17
ATOM     17  C   UNL     1      22.101   2.509  16.790  0.00  0.00    +0.000 A 
ATOM     18  N   UNL     1      21.181   2.246  15.852  0.00  0.00    +0.000 NA
ATOM     19  C   UNL     1      19.964   2.194  16.393  0.00  0.00    +0.000 A 
ATOM     20  C   UNL     1      20.109   2.434  17.737  0.00  0.00    +0.000 A 
ATOM     21  N   UNL     1      21.413   2.626  17.974  0.00  0.00    +0.000 NA
ENDBRANCH  16  17
ENDBRANCH  13  16
TORSDOF 2
ENDMDL
