MODEL 1
REMARK VINA RESULT:      -8.1      0.000      0.000
REMARK  Name = 
REMARK  9 active torsions:
REMARK  status: ('A' for Active; 'I' for Inactive)
REMARK    1  A    between atoms: O_2  and  C_3
REMARK    2  A    between atoms: C_6  and  C_7
REMARK    3  A    between atoms: C_7  and  C_8
REMARK    4  A    between atoms: N_16  and  C_17
REMARK    5  A    between atoms: C_17  and  C_18
REMARK    6  A    between atoms: C_18  and  C_20
REMARK    7  A    between atoms: C_20  and  O_21
REMARK    8  A    between atoms: O_21  and  C_22
REMARK    9  A    between atoms: C_30  and  O_31
REMARK                            x       y       z     vdW  Elec       q    Type
REMARK                         _______ _______ _______ _____ _____    ______ ____
ROOT
ATOM      1  C   UNL     1      38.103   2.285  14.986  0.00  0.00    +0.000 A 
ATOM      2  N   UNL     1      39.399   2.000  14.764  0.00  0.00    +0.000 NA
ATOM      3  C   UNL     1      39.574   0.671  14.655  0.00  0.00    +0.000 A 
ATOM      4  C   UNL     1      40.696  -0.134  14.428  0.00  0.00    +0.000 A 
ATOM      5  C   UNL     1      40.501  -1.496  14.374  0.00  0.00    +0.000 A 
ATOM      6  C   UNL     1      39.273  -2.075  14.531  0.00  0.00    +0.000 A 
ATOM      7  C   UNL     1      38.182  -1.290  14.751  0.00  0.00    +0.000 A 
ATOM      8  C   UNL     1      38.343   0.103  14.813  0.00  0.00    +0.000 A 
ATOM      9  N   UNL     1      37.469   1.109  15.013  0.00  0.00    +0.000 N 
ENDROOT
BRANCH   1  10
ATOM     10  C   UNL     1      37.517   3.664  15.174  0.00  0.00    +0.000 C 
BRANCH  10  14
ATOM     11  C   UNL     1      39.847   5.795  18.124  0.00  0.00    +0.000 A 
ATOM     12  C   UNL     1      38.856   4.908  18.478  0.00  0.00    +0.000 A 
ATOM     13  C   UNL     1      38.133   4.247  17.511  0.00  0.00    +0.000 A 
ATOM     14  C   UNL     1      38.348   4.424  16.145  0.00  0.00    +0.000 A 
ATOM     15  C   UNL     1      39.339   5.311  15.793  0.00  0.00    +0.000 A 
ATOM     16  C   UNL     1      40.067   5.977  16.757  0.00  0.00    +0.000 A 
BRANCH  11  18
ATOM     17  C   UNL     1      39.917   7.107  20.130  0.00  0.00    +0.000 C 
ATOM     18  O   UNL     1      40.596   6.479  19.063  0.00  0.00    +0.000 OA
ENDBRANCH  11  18
BRANCH  16  19
ATOM     19  O   UNL     1      41.071   6.874  16.420  0.00  0.00    +0.000 OA
ATOM     20  C   UNL     1      42.126   6.421  15.586  0.00  0.00    +0.000 C 
ENDBRANCH  16  19
ENDBRANCH  10  14
ENDBRANCH   1  10
BRANCH   9  21
ATOM     21  C   UNL     1      36.078   0.881  15.232  0.00  0.00    +0.000 C 
BRANCH  21  22
ATOM     22  C   UNL     1      35.838   0.755  16.875  0.00  0.00    +0.000 C 
ATOM     23  O   UNL     1      34.534   1.569  16.905  0.00  0.00    +0.000 OA
BRANCH  22  24
ATOM     24  C   UNL     1      34.981  -0.694  16.687  0.00  0.00    +0.000 C 
BRANCH  24  25
ATOM     25  O   UNL     1      35.640  -1.422  17.682  0.00  0.00    +0.000 OA
BRANCH  25  26
ATOM     26  C   UNL     1      36.304  -2.588  17.378  0.00  0.00    +0.000 A 
ATOM     27  C   UNL     1      35.721  -3.473  16.496  0.00  0.00    +0.000 A 
ATOM     28  C   UNL     1      36.331  -4.654  16.153  0.00  0.00    +0.000 A 
ATOM     29  C   UNL     1      37.579  -4.948  16.724  0.00  0.00    +0.000 A 
ATOM     30  C   UNL     1      38.136  -4.049  17.598  0.00  0.00    +0.000 A 
ATOM     31  C   UNL     1      37.545  -2.860  17.959  0.00  0.00    +0.000 A 
ATOM     32  C   UNL     1      38.125  -1.872  18.899  0.00  0.00    +0.000 C 
ENDBRANCH  25  26
ENDBRANCH  24  25
ENDBRANCH  22  24
ENDBRANCH  21  22
ENDBRANCH   9  21
TORSDOF 9
ENDMDL
MODEL 2
REMARK VINA RESULT:      -7.1      2.891      5.777
REMARK  Name = 
REMARK  9 active torsions:
REMARK  status: ('A' for Active; 'I' for Inactive)
REMARK    1  A    between atoms: O_2  and  C_3
REMARK    2  A    between atoms: C_6  and  C_7
REMARK    3  A    between atoms: C_7  and  C_8
REMARK    4  A    between atoms: N_16  and  C_17
REMARK    5  A    between atoms: C_17  and  C_18
REMARK    6  A    between atoms: C_18  and  C_20
REMARK    7  A    between atoms: C_20  and  O_21
REMARK    8  A    between atoms: O_21  and  C_22
REMARK    9  A    between atoms: C_30  and  O_31
REMARK                            x       y       z     vdW  Elec       q    Type
REMARK                         _______ _______ _______ _____ _____    ______ ____
ROOT
ATOM      1  C   UNL     1      36.756  -0.227  15.707  0.00  0.00    +0.000 A 
ATOM      2  N   UNL     1      36.243  -0.090  16.943  0.00  0.00    +0.000 NA
ATOM      3  C   UNL     1      36.842  -0.941  17.796  0.00  0.00    +0.000 A 
ATOM      4  C   UNL     1      36.686  -1.198  19.162  0.00  0.00    +0.000 A 
ATOM      5  C   UNL     1      37.492  -2.163  19.723  0.00  0.00    +0.000 A 
ATOM      6  C   UNL     1      38.419  -2.864  19.003  0.00  0.00    +0.000 A 
ATOM      7  C   UNL     1      38.569  -2.612  17.673  0.00  0.00    +0.000 A 
ATOM      8  C   UNL     1      37.765  -1.635  17.067  0.00  0.00    +0.000 A 
ATOM      9  N   UNL     1      37.690  -1.179  15.802  0.00  0.00    +0.000 N 
ENDROOT
BRANCH   1  10
ATOM     10  C   UNL     1      36.334   0.545  14.480  0.00  0.00    +0.000 C 
BRANCH  10  14
ATOM     11  C   UNL     1      37.518   4.660  15.058  0.00  0.00    +0.000 A 
ATOM     12  C   UNL     1      38.297   3.609  15.486  0.00  0.00    +0.000 A 
ATOM     13  C   UNL     1      37.888   2.310  15.285  0.00  0.00    +0.000 A 
ATOM     14  C   UNL     1      36.691   1.978  14.652  0.00  0.00    +0.000 A 
ATOM     15  C   UNL     1      35.913   3.030  14.225  0.00  0.00    +0.000 A 
ATOM     16  C   UNL     1      36.318   4.334  14.423  0.00  0.00    +0.000 A 
BRANCH  11  18
ATOM     17  C   UNL     1      38.302   6.385  16.528  0.00  0.00    +0.000 C 
ATOM     18  O   UNL     1      37.891   5.978  15.239  0.00  0.00    +0.000 OA
ENDBRANCH  11  18
BRANCH  16  19
ATOM     19  O   UNL     1      35.547   5.407  13.998  0.00  0.00    +0.000 OA
ATOM     20  C   UNL     1      35.578   5.753  12.622  0.00  0.00    +0.000 C 
ENDBRANCH  16  19
ENDBRANCH  10  14
ENDBRANCH   1  10
BRANCH   9  21
ATOM     21  C   UNL     1      38.508  -1.695  14.754  0.00  0.00    +0.000 C 
BRANCH  21  22
ATOM     22  C   UNL     1      39.905  -0.789  14.711  0.00  0.00    +0.000 C 
ATOM     23  O   UNL     1      40.863  -1.969  14.944  0.00  0.00    +0.000 OA
BRANCH  22  24
ATOM     24  C   UNL     1      40.025  -0.967  13.030  0.00  0.00    +0.000 C 
BRANCH  24  25
ATOM     25  O   UNL     1      40.319   0.366  12.730  0.00  0.00    +0.000 OA
BRANCH  25  26
ATOM     26  C   UNL     1      39.390   1.169  12.110  0.00  0.00    +0.000 A 
ATOM     27  C   UNL     1      38.305   0.579  11.497  0.00  0.00    +0.000 A 
ATOM     28  C   UNL     1      37.344   1.325  10.861  0.00  0.00    +0.000 A 
ATOM     29  C   UNL     1      37.487   2.721  10.848  0.00  0.00    +0.000 A 
ATOM     30  C   UNL     1      38.577   3.281  11.465  0.00  0.00    +0.000 A 
ATOM     31  C   UNL     1      39.553   2.557  12.108  0.00  0.00    +0.000 A 
ATOM     32  C   UNL     1      40.738   3.137  12.783  0.00  0.00    +0.000 C 
ENDBRANCH  25  26
ENDBRANCH  24  25
ENDBRANCH  22  24
ENDBRANCH  21  22
ENDBRANCH   9  21
TORSDOF 9
ENDMDL
MODEL 3
REMARK VINA RESULT:      -7.0      2.673      4.565
REMARK  Name = 
REMARK  9 active torsions:
REMARK  status: ('A' for Active; 'I' for Inactive)
REMARK    1  A    between atoms: O_2  and  C_3
REMARK    2  A    between atoms: C_6  and  C_7
REMARK    3  A    between atoms: C_7  and  C_8
REMARK    4  A    between atoms: N_16  and  C_17
REMARK    5  A    between atoms: C_17  and  C_18
REMARK    6  A    between atoms: C_18  and  C_20
REMARK    7  A    between atoms: C_20  and  O_21
REMARK    8  A    between atoms: O_21  and  C_22
REMARK    9  A    between atoms: C_30  and  O_31
REMARK                            x       y       z     vdW  Elec       q    Type
REMARK                         _______ _______ _______ _____ _____    ______ ____
ROOT
ATOM      1  C   UNL     1      37.543   5.294  15.040  0.00  0.00    +0.000 A 
ATOM      2  N   UNL     1      37.498   6.636  14.948  0.00  0.00    +0.000 NA
ATOM      3  C   UNL     1      36.289   7.035  14.513  0.00  0.00    +0.000 A 
ATOM      4  C   UNL     1      35.730   8.291  14.250  0.00  0.00    +0.000 A 
ATOM      5  C   UNL     1      34.428   8.327  13.806  0.00  0.00    +0.000 A 
ATOM      6  C   UNL     1      33.679   7.199  13.617  0.00  0.00    +0.000 A 
ATOM      7  C   UNL     1      34.224   5.978  13.873  0.00  0.00    +0.000 A 
ATOM      8  C   UNL     1      35.550   5.903  14.327  0.00  0.00    +0.000 A 
ATOM      9  N   UNL     1      36.338   4.861  14.656  0.00  0.00    +0.000 N 
ENDROOT
BRANCH   1  10
ATOM     10  C   UNL     1      38.732   4.474  15.481  0.00  0.00    +0.000 C 
BRANCH  10  14
ATOM     11  C   UNL     1      40.599   6.419  18.857  0.00  0.00    +0.000 A 
ATOM     12  C   UNL     1      39.449   5.675  18.988  0.00  0.00    +0.000 A 
ATOM     13  C   UNL     1      38.881   5.070  17.890  0.00  0.00    +0.000 A 
ATOM     14  C   UNL     1      39.416   5.164  16.606  0.00  0.00    +0.000 A 
ATOM     15  C   UNL     1      40.566   5.908  16.477  0.00  0.00    +0.000 A 
ATOM     16  C   UNL     1      41.140   6.517  17.574  0.00  0.00    +0.000 A 
BRANCH  11  18
ATOM     17  C   UNL     1      42.172   6.323  20.665  0.00  0.00    +0.000 C 
ATOM     18  O   UNL     1      41.202   7.043  19.933  0.00  0.00    +0.000 OA
ENDBRANCH  11  18
BRANCH  16  19
ATOM     19  O   UNL     1      42.301   7.271  17.462  0.00  0.00    +0.000 OA
ATOM     20  C   UNL     1      42.201   8.587  16.940  0.00  0.00    +0.000 C 
ENDBRANCH  16  19
ENDBRANCH  10  14
ENDBRANCH   1  10
BRANCH   9  21
ATOM     21  C   UNL     1      35.893   3.509  14.568  0.00  0.00    +0.000 C 
BRANCH  21  22
ATOM     22  C   UNL     1      35.380   3.045  16.083  0.00  0.00    +0.000 C 
ATOM     23  O   UNL     1      33.882   3.016  15.738  0.00  0.00    +0.000 OA
BRANCH  22  24
ATOM     24  C   UNL     1      35.547   1.405  15.690  0.00  0.00    +0.000 C 
BRANCH  24  25
ATOM     25  O   UNL     1      36.218   1.011  16.851  0.00  0.00    +0.000 OA
BRANCH  25  26
ATOM     26  C   UNL     1      36.700  -0.270  16.984  0.00  0.00    +0.000 A 
ATOM     27  C   UNL     1      37.426  -0.818  15.947  0.00  0.00    +0.000 A 
ATOM     28  C   UNL     1      37.933  -2.092  16.018  0.00  0.00    +0.000 A 
ATOM     29  C   UNL     1      37.698  -2.837  17.184  0.00  0.00    +0.000 A 
ATOM     30  C   UNL     1      36.973  -2.267  18.199  0.00  0.00    +0.000 A 
ATOM     31  C   UNL     1      36.453  -0.995  18.153  0.00  0.00    +0.000 A 
ATOM     32  C   UNL     1      35.668  -0.355  19.235  0.00  0.00    +0.000 C 
ENDBRANCH  25  26
ENDBRANCH  24  25
ENDBRANCH  22  24
ENDBRANCH  21  22
ENDBRANCH   9  21
TORSDOF 9
ENDMDL
MODEL 4
REMARK VINA RESULT:      -7.0      2.806      3.897
REMARK  Name = 
REMARK  9 active torsions:
REMARK  status: ('A' for Active; 'I' for Inactive)
REMARK    1  A    between atoms: O_2  and  C_3
REMARK    2  A    between atoms: C_6  and  C_7
REMARK    3  A    between atoms: C_7  and  C_8
REMARK    4  A    between atoms: N_16  and  C_17
REMARK    5  A    between atoms: C_17  and  C_18
REMARK    6  A    between atoms: C_18  and  C_20
REMARK    7  A    between atoms: C_20  and  O_21
REMARK    8  A    between atoms: O_21  and  C_22
REMARK    9  A    between atoms: C_30  and  O_31
REMARK                            x       y       z     vdW  Elec       q    Type
REMARK                         _______ _______ _______ _____ _____    ______ ____
ROOT
ATOM      1  C   UNL     1      38.028   2.175  15.138  0.00  0.00    +0.000 A 
ATOM      2  N   UNL     1      39.320   1.904  14.875  0.00  0.00    +0.000 NA
ATOM      3  C   UNL     1      39.485   0.588  14.649  0.00  0.00    +0.000 A 
ATOM      4  C   UNL     1      40.600  -0.199  14.338  0.00  0.00    +0.000 A 
ATOM      5  C   UNL     1      40.396  -1.550  14.169  0.00  0.00    +0.000 A 
ATOM      6  C   UNL     1      39.167  -2.135  14.293  0.00  0.00    +0.000 A 
ATOM      7  C   UNL     1      38.083  -1.367  14.595  0.00  0.00    +0.000 A 
ATOM      8  C   UNL     1      38.253   0.015  14.774  0.00  0.00    +0.000 A 
ATOM      9  N   UNL     1      37.388   1.004  15.072  0.00  0.00    +0.000 N 
ENDROOT
BRANCH   1  10
ATOM     10  C   UNL     1      37.454   3.536  15.453  0.00  0.00    +0.000 C 
BRANCH  10  14
ATOM     11  C   UNL     1      35.971   5.483  11.892  0.00  0.00    +0.000 A 
ATOM     12  C   UNL     1      35.481   5.779  13.144  0.00  0.00    +0.000 A 
ATOM     13  C   UNL     1      35.977   5.138  14.257  0.00  0.00    +0.000 A 
ATOM     14  C   UNL     1      36.981   4.173  14.196  0.00  0.00    +0.000 A 
ATOM     15  C   UNL     1      37.469   3.878  12.943  0.00  0.00    +0.000 A 
ATOM     16  C   UNL     1      36.976   4.517  11.825  0.00  0.00    +0.000 A 
BRANCH  11  18
ATOM     17  C   UNL     1      34.504   7.093  10.889  0.00  0.00    +0.000 C 
ATOM     18  O   UNL     1      35.501   6.102  10.750  0.00  0.00    +0.000 OA
ENDBRANCH  11  18
BRANCH  16  19
ATOM     19  O   UNL     1      37.458   4.232  10.553  0.00  0.00    +0.000 OA
ATOM     20  C   UNL     1      38.142   3.005  10.353  0.00  0.00    +0.000 C 
ENDBRANCH  16  19
ENDBRANCH  10  14
ENDBRANCH   1  10
BRANCH   9  21
ATOM     21  C   UNL     1      36.000   0.764  15.290  0.00  0.00    +0.000 C 
BRANCH  21  22
ATOM     22  C   UNL     1      35.739   0.752  16.935  0.00  0.00    +0.000 C 
ATOM     23  O   UNL     1      34.443   1.578  16.894  0.00  0.00    +0.000 OA
BRANCH  22  24
ATOM     24  C   UNL     1      34.870  -0.699  16.834  0.00  0.00    +0.000 C 
BRANCH  24  25
ATOM     25  O   UNL     1      35.622  -1.422  17.764  0.00  0.00    +0.000 OA
BRANCH  25  26
ATOM     26  C   UNL     1      36.274  -2.576  17.397  0.00  0.00    +0.000 A 
ATOM     27  C   UNL     1      35.659  -3.433  16.508  0.00  0.00    +0.000 A 
ATOM     28  C   UNL     1      36.257  -4.601  16.103  0.00  0.00    +0.000 A 
ATOM     29  C   UNL     1      37.526  -4.910  16.615  0.00  0.00    +0.000 A 
ATOM     30  C   UNL     1      38.115  -4.039  17.497  0.00  0.00    +0.000 A 
ATOM     31  C   UNL     1      37.538  -2.864  17.919  0.00  0.00    +0.000 A 
ATOM     32  C   UNL     1      38.151  -1.907  18.869  0.00  0.00    +0.000 C 
ENDBRANCH  25  26
ENDBRANCH  24  25
ENDBRANCH  22  24
ENDBRANCH  21  22
ENDBRANCH   9  21
TORSDOF 9
ENDMDL
MODEL 5
REMARK VINA RESULT:      -7.0      3.039      5.843
REMARK  Name = 
REMARK  9 active torsions:
REMARK  status: ('A' for Active; 'I' for Inactive)
REMARK    1  A    between atoms: O_2  and  C_3
REMARK    2  A    between atoms: C_6  and  C_7
REMARK    3  A    between atoms: C_7  and  C_8
REMARK    4  A    between atoms: N_16  and  C_17
REMARK    5  A    between atoms: C_17  and  C_18
REMARK    6  A    between atoms: C_18  and  C_20
REMARK    7  A    between atoms: C_20  and  O_21
REMARK    8  A    between atoms: O_21  and  C_22
REMARK    9  A    between atoms: C_30  and  O_31
REMARK                            x       y       z     vdW  Elec       q    Type
REMARK                         _______ _______ _______ _____ _____    ______ ____
ROOT
ATOM      1  C   UNL     1      35.693  -0.142  17.339  0.00  0.00    +0.000 A 
ATOM      2  N   UNL     1      36.045  -0.423  18.607  0.00  0.00    +0.000 NA
ATOM      3  C   UNL     1      36.938  -1.429  18.633  0.00  0.00    +0.000 A 
ATOM      4  C   UNL     1      37.608  -2.090  19.668  0.00  0.00    +0.000 A 
ATOM      5  C   UNL     1      38.476  -3.100  19.320  0.00  0.00    +0.000 A 
ATOM      6  C   UNL     1      38.700  -3.470  18.023  0.00  0.00    +0.000 A 
ATOM      7  C   UNL     1      38.046  -2.825  17.017  0.00  0.00    +0.000 A 
ATOM      8  C   UNL     1      37.153  -1.790  17.335  0.00  0.00    +0.000 A 
ATOM      9  N   UNL     1      36.384  -0.991  16.571  0.00  0.00    +0.000 N 
ENDROOT
BRANCH   1  10
ATOM     10  C   UNL     1      34.706   0.915  16.905  0.00  0.00    +0.000 C 
BRANCH  10  14
ATOM     11  C   UNL     1      36.722   4.306  15.141  0.00  0.00    +0.000 A 
ATOM     12  C   UNL     1      35.496   3.871  14.692  0.00  0.00    +0.000 A 
ATOM     13  C   UNL     1      34.883   2.786  15.278  0.00  0.00    +0.000 A 
ATOM     14  C   UNL     1      35.444   2.073  16.336  0.00  0.00    +0.000 A 
ATOM     15  C   UNL     1      36.670   2.510  16.784  0.00  0.00    +0.000 A 
ATOM     16  C   UNL     1      37.289   3.596  16.201  0.00  0.00    +0.000 A 
BRANCH  11  18
ATOM     17  C   UNL     1      36.658   6.601  14.450  0.00  0.00    +0.000 C 
ATOM     18  O   UNL     1      37.372   5.389  14.582  0.00  0.00    +0.000 OA
ENDBRANCH  11  18
BRANCH  16  19
ATOM     19  O   UNL     1      38.526   4.051  16.641  0.00  0.00    +0.000 OA
ATOM     20  C   UNL     1      38.582   4.767  17.864  0.00  0.00    +0.000 C 
ENDBRANCH  16  19
ENDBRANCH  10  14
ENDBRANCH   1  10
BRANCH   9  21
ATOM     21  C   UNL     1      36.345  -1.098  15.150  0.00  0.00    +0.000 C 
BRANCH  21  22
ATOM     22  C   UNL     1      37.684  -0.314  14.546  0.00  0.00    +0.000 C 
ATOM     23  O   UNL     1      38.164  -1.480  13.666  0.00  0.00    +0.000 OA
BRANCH  22  24
ATOM     24  C   UNL     1      36.785   0.338  13.267  0.00  0.00    +0.000 C 
BRANCH  24  25
ATOM     25  O   UNL     1      37.590   1.456  13.034  0.00  0.00    +0.000 OA
BRANCH  25  26
ATOM     26  C   UNL     1      37.845   1.885  11.752  0.00  0.00    +0.000 A 
ATOM     27  C   UNL     1      37.142   1.317  10.709  0.00  0.00    +0.000 A 
ATOM     28  C   UNL     1      37.351   1.701   9.408  0.00  0.00    +0.000 A 
ATOM     29  C   UNL     1      38.306   2.697   9.153  0.00  0.00    +0.000 A 
ATOM     30  C   UNL     1      38.990   3.244  10.209  0.00  0.00    +0.000 A 
ATOM     31  C   UNL     1      38.801   2.878  11.521  0.00  0.00    +0.000 A 
ATOM     32  C   UNL     1      39.526   3.452  12.679  0.00  0.00    +0.000 C 
ENDBRANCH  25  26
ENDBRANCH  24  25
ENDBRANCH  22  24
ENDBRANCH  21  22
ENDBRANCH   9  21
TORSDOF 9
ENDMDL
MODEL 6
REMARK VINA RESULT:      -6.9     25.850     29.755
REMARK  Name = 
REMARK  9 active torsions:
REMARK  status: ('A' for Active; 'I' for Inactive)
REMARK    1  A    between atoms: O_2  and  C_3
REMARK    2  A    between atoms: C_6  and  C_7
REMARK    3  A    between atoms: C_7  and  C_8
REMARK    4  A    between atoms: N_16  and  C_17
REMARK    5  A    between atoms: C_17  and  C_18
REMARK    6  A    between atoms: C_18  and  C_20
REMARK    7  A    between atoms: C_20  and  O_21
REMARK    8  A    between atoms: O_21  and  C_22
REMARK    9  A    between atoms: C_30  and  O_31
REMARK                            x       y       z     vdW  Elec       q    Type
REMARK                         _______ _______ _______ _____ _____    ______ ____
ROOT
ATOM      1  C   UNL     1      26.715  15.952  36.479  0.00  0.00    +0.000 A 
ATOM      2  N   UNL     1      26.488  14.790  35.841  0.00  0.00    +0.000 NA
ATOM      3  C   UNL     1      25.966  15.018  34.622  0.00  0.00    +0.000 A 
ATOM      4  C   UNL     1      25.557  14.178  33.581  0.00  0.00    +0.000 A 
ATOM      5  C   UNL     1      25.057  14.772  32.444  0.00  0.00    +0.000 A 
ATOM      6  C   UNL     1      24.949  16.128  32.303  0.00  0.00    +0.000 A 
ATOM      7  C   UNL     1      25.348  16.944  33.318  0.00  0.00    +0.000 A 
ATOM      8  C   UNL     1      25.863  16.373  34.492  0.00  0.00    +0.000 A 
ATOM      9  N   UNL     1      26.326  16.914  35.636  0.00  0.00    +0.000 N 
ENDROOT
BRANCH   1  10
ATOM     10  C   UNL     1      27.285  16.105  37.869  0.00  0.00    +0.000 C 
BRANCH  10  14
ATOM     11  C   UNL     1      24.212  15.061  40.721  0.00  0.00    +0.000 A 
ATOM     12  C   UNL     1      24.093  16.148  39.886  0.00  0.00    +0.000 A 
ATOM     13  C   UNL     1      25.093  16.452  38.990  0.00  0.00    +0.000 A 
ATOM     14  C   UNL     1      26.261  15.701  38.868  0.00  0.00    +0.000 A 
ATOM     15  C   UNL     1      26.377  14.613  39.704  0.00  0.00    +0.000 A 
ATOM     16  C   UNL     1      25.379  14.304  40.604  0.00  0.00    +0.000 A 
BRANCH  11  18
ATOM     17  C   UNL     1      22.142  15.602  41.804  0.00  0.00    +0.000 C 
ATOM     18  O   UNL     1      23.232  14.721  41.635  0.00  0.00    +0.000 OA
ENDBRANCH  11  18
BRANCH  16  19
ATOM     19  O   UNL     1      25.480  13.210  41.454  0.00  0.00    +0.000 OA
ATOM     20  C   UNL     1      26.410  12.189  41.128  0.00  0.00    +0.000 C 
ENDBRANCH  16  19
ENDBRANCH  10  14
ENDBRANCH   1  10
BRANCH   9  21
ATOM     21  C   UNL     1      26.354  18.322  35.859  0.00  0.00    +0.000 C 
BRANCH  21  22
ATOM     22  C   UNL     1      24.799  18.812  36.199  0.00  0.00    +0.000 C 
ATOM     23  O   UNL     1      25.161  19.616  37.458  0.00  0.00    +0.000 OA
BRANCH  22  24
ATOM     24  C   UNL     1      24.967  20.186  35.221  0.00  0.00    +0.000 C 
BRANCH  24  25
ATOM     25  O   UNL     1      23.923  19.903  34.336  0.00  0.00    +0.000 OA
BRANCH  25  26
ATOM     26  C   UNL     1      23.304  20.911  33.633  0.00  0.00    +0.000 A 
ATOM     27  C   UNL     1      23.095  22.124  34.257  0.00  0.00    +0.000 A 
ATOM     28  C   UNL     1      22.482  23.169  33.611  0.00  0.00    +0.000 A 
ATOM     29  C   UNL     1      22.067  22.979  32.284  0.00  0.00    +0.000 A 
ATOM     30  C   UNL     1      22.287  21.762  31.689  0.00  0.00    +0.000 A 
ATOM     31  C   UNL     1      22.898  20.700  32.313  0.00  0.00    +0.000 A 
ATOM     32  C   UNL     1      23.149  19.377  31.694  0.00  0.00    +0.000 C 
ENDBRANCH  25  26
ENDBRANCH  24  25
ENDBRANCH  22  24
ENDBRANCH  21  22
ENDBRANCH   9  21
TORSDOF 9
ENDMDL
MODEL 7
REMARK VINA RESULT:      -6.9      3.948      7.638
REMARK  Name = 
REMARK  9 active torsions:
REMARK  status: ('A' for Active; 'I' for Inactive)
REMARK    1  A    between atoms: O_2  and  C_3
REMARK    2  A    between atoms: C_6  and  C_7
REMARK    3  A    between atoms: C_7  and  C_8
REMARK    4  A    between atoms: N_16  and  C_17
REMARK    5  A    between atoms: C_17  and  C_18
REMARK    6  A    between atoms: C_18  and  C_20
REMARK    7  A    between atoms: C_20  and  O_21
REMARK    8  A    between atoms: O_21  and  C_22
REMARK    9  A    between atoms: C_30  and  O_31
REMARK                            x       y       z     vdW  Elec       q    Type
REMARK                         _______ _______ _______ _____ _____    ______ ____
ROOT
ATOM      1  C   UNL     1      40.093  -1.868  13.739  0.00  0.00    +0.000 A 
ATOM      2  N   UNL     1      41.258  -2.518  13.572  0.00  0.00    +0.000 NA
ATOM      3  C   UNL     1      41.497  -2.723  12.263  0.00  0.00    +0.000 A 
ATOM      4  C   UNL     1      42.541  -3.336  11.563  0.00  0.00    +0.000 A 
ATOM      5  C   UNL     1      42.454  -3.365  10.189  0.00  0.00    +0.000 A 
ATOM      6  C   UNL     1      41.403  -2.825   9.502  0.00  0.00    +0.000 A 
ATOM      7  C   UNL     1      40.387  -2.228  10.186  0.00  0.00    +0.000 A 
ATOM      8  C   UNL     1      40.442  -2.180  11.587  0.00  0.00    +0.000 A 
ATOM      9  N   UNL     1      39.605  -1.668  12.511  0.00  0.00    +0.000 N 
ENDROOT
BRANCH   1  10
ATOM     10  C   UNL     1      39.481  -1.469  15.061  0.00  0.00    +0.000 C 
BRANCH  10  14
ATOM     11  C   UNL     1      37.377  -4.880  16.675  0.00  0.00    +0.000 A 
ATOM     12  C   UNL     1      36.972  -4.253  15.519  0.00  0.00    +0.000 A 
ATOM     13  C   UNL     1      37.667  -3.168  15.033  0.00  0.00    +0.000 A 
ATOM     14  C   UNL     1      38.796  -2.644  15.661  0.00  0.00    +0.000 A 
ATOM     15  C   UNL     1      39.199  -3.272  16.818  0.00  0.00    +0.000 A 
ATOM     16  C   UNL     1      38.507  -4.360  17.308  0.00  0.00    +0.000 A 
BRANCH  11  18
ATOM     17  C   UNL     1      35.652  -6.531  16.443  0.00  0.00    +0.000 C 
ATOM     18  O   UNL     1      36.709  -5.972  17.196  0.00  0.00    +0.000 OA
ENDBRANCH  11  18
BRANCH  16  19
ATOM     19  O   UNL     1      38.900  -5.006  18.473  0.00  0.00    +0.000 OA
ATOM     20  C   UNL     1      38.932  -4.258  19.679  0.00  0.00    +0.000 C 
ENDBRANCH  16  19
ENDBRANCH  10  14
ENDBRANCH   1  10
BRANCH   9  21
ATOM     21  C   UNL     1      38.380  -1.029  12.160  0.00  0.00    +0.000 C 
BRANCH  21  22
ATOM     22  C   UNL     1      38.636   0.616  12.198  0.00  0.00    +0.000 C 
ATOM     23  O   UNL     1      38.599   0.815  10.674  0.00  0.00    +0.000 OA
BRANCH  22  24
ATOM     24  C   UNL     1      36.974   0.920  12.323  0.00  0.00    +0.000 C 
BRANCH  24  25
ATOM     25  O   UNL     1      37.035   1.806  13.402  0.00  0.00    +0.000 OA
BRANCH  25  26
ATOM     26  C   UNL     1      36.274   1.597  14.528  0.00  0.00    +0.000 A 
ATOM     27  C   UNL     1      36.298   0.354  15.126  0.00  0.00    +0.000 A 
ATOM     28  C   UNL     1      35.559   0.081  16.250  0.00  0.00    +0.000 A 
ATOM     29  C   UNL     1      34.769   1.107  16.791  0.00  0.00    +0.000 A 
ATOM     30  C   UNL     1      34.764   2.333  16.177  0.00  0.00    +0.000 A 
ATOM     31  C   UNL     1      35.493   2.632  15.050  0.00  0.00    +0.000 A 
ATOM     32  C   UNL     1      35.506   3.948  14.367  0.00  0.00    +0.000 C 
ENDBRANCH  25  26
ENDBRANCH  24  25
ENDBRANCH  22  24
ENDBRANCH  21  22
ENDBRANCH   9  21
TORSDOF 9
ENDMDL
MODEL 8
REMARK VINA RESULT:      -6.9     26.154     30.366
REMARK  Name = 
REMARK  9 active torsions:
REMARK  status: ('A' for Active; 'I' for Inactive)
REMARK    1  A    between atoms: O_2  and  C_3
REMARK    2  A    between atoms: C_6  and  C_7
REMARK    3  A    between atoms: C_7  and  C_8
REMARK    4  A    between atoms: N_16  and  C_17
REMARK    5  A    between atoms: C_17  and  C_18
REMARK    6  A    between atoms: C_18  and  C_20
REMARK    7  A    between atoms: C_20  and  O_21
REMARK    8  A    between atoms: O_21  and  C_22
REMARK    9  A    between atoms: C_30  and  O_31
REMARK                            x       y       z     vdW  Elec       q    Type
REMARK                         _______ _______ _______ _____ _____    ______ ____
ROOT
ATOM      1  C   UNL     1      23.860  15.462  39.454  0.00  0.00    +0.000 A 
ATOM      2  N   UNL     1      22.891  14.978  40.252  0.00  0.00    +0.000 NA
ATOM      3  C   UNL     1      22.331  15.972  40.966  0.00  0.00    +0.000 A 
ATOM      4  C   UNL     1      21.308  16.011  41.918  0.00  0.00    +0.000 A 
ATOM      5  C   UNL     1      20.986  17.236  42.456  0.00  0.00    +0.000 A 
ATOM      6  C   UNL     1      21.621  18.392  42.097  0.00  0.00    +0.000 A 
ATOM      7  C   UNL     1      22.617  18.352  41.170  0.00  0.00    +0.000 A 
ATOM      8  C   UNL     1      22.972  17.120  40.600  0.00  0.00    +0.000 A 
ATOM      9  N   UNL     1      23.895  16.779  39.680  0.00  0.00    +0.000 N 
ENDROOT
BRANCH   1  10
ATOM     10  C   UNL     1      24.721  14.653  38.513  0.00  0.00    +0.000 C 
BRANCH  10  14
ATOM     11  C   UNL     1      28.474  13.701  40.431  0.00  0.00    +0.000 A 
ATOM     12  C   UNL     1      28.353  14.744  39.542  0.00  0.00    +0.000 A 
ATOM     13  C   UNL     1      27.141  15.018  38.949  0.00  0.00    +0.000 A 
ATOM     14  C   UNL     1      25.985  14.281  39.201  0.00  0.00    +0.000 A 
ATOM     15  C   UNL     1      26.108  13.238  40.090  0.00  0.00    +0.000 A 
ATOM     16  C   UNL     1      27.319  12.958  40.688  0.00  0.00    +0.000 A 
BRANCH  11  18
ATOM     17  C   UNL     1      30.129  14.239  42.081  0.00  0.00    +0.000 C 
ATOM     18  O   UNL     1      29.671  13.391  41.049  0.00  0.00    +0.000 OA
ENDBRANCH  11  18
BRANCH  16  19
ATOM     19  O   UNL     1      27.461  11.910  41.588  0.00  0.00    +0.000 OA
ATOM     20  C   UNL     1      27.399  10.583  41.090  0.00  0.00    +0.000 C 
ENDBRANCH  16  19
ENDBRANCH  10  14
ENDBRANCH   1  10
BRANCH   9  21
ATOM     21  C   UNL     1      24.768  17.735  39.082  0.00  0.00    +0.000 C 
BRANCH  21  22
ATOM     22  C   UNL     1      24.046  18.274  37.681  0.00  0.00    +0.000 C 
ATOM     23  O   UNL     1      24.377  19.760  37.898  0.00  0.00    +0.000 OA
BRANCH  22  24
ATOM     24  C   UNL     1      25.473  18.040  36.798  0.00  0.00    +0.000 C 
BRANCH  24  25
ATOM     25  O   UNL     1      24.886  17.936  35.535  0.00  0.00    +0.000 OA
BRANCH  25  26
ATOM     26  C   UNL     1      25.144  16.855  34.725  0.00  0.00    +0.000 A 
ATOM     27  C   UNL     1      25.717  15.730  35.282  0.00  0.00    +0.000 A 
ATOM     28  C   UNL     1      26.001  14.618  34.527  0.00  0.00    +0.000 A 
ATOM     29  C   UNL     1      25.690  14.647  33.159  0.00  0.00    +0.000 A 
ATOM     30  C   UNL     1      25.121  15.778  32.632  0.00  0.00    +0.000 A 
ATOM     31  C   UNL     1      24.827  16.905  33.365  0.00  0.00    +0.000 A 
ATOM     32  C   UNL     1      24.213  18.139  32.821  0.00  0.00    +0.000 C 
ENDBRANCH  25  26
ENDBRANCH  24  25
ENDBRANCH  22  24
ENDBRANCH  21  22
ENDBRANCH   9  21
TORSDOF 9
ENDMDL
MODEL 9
REMARK VINA RESULT:      -6.8      3.076      6.959
REMARK  Name = 
REMARK  9 active torsions:
REMARK  status: ('A' for Active; 'I' for Inactive)
REMARK    1  A    between atoms: O_2  and  C_3
REMARK    2  A    between atoms: C_6  and  C_7
REMARK    3  A    between atoms: C_7  and  C_8
REMARK    4  A    between atoms: N_16  and  C_17
REMARK    5  A    between atoms: C_17  and  C_18
REMARK    6  A    between atoms: C_18  and  C_20
REMARK    7  A    between atoms: C_20  and  O_21
REMARK    8  A    between atoms: O_21  and  C_22
REMARK    9  A    between atoms: C_30  and  O_31
REMARK                            x       y       z     vdW  Elec       q    Type
REMARK                         _______ _______ _______ _____ _____    ______ ____
ROOT
ATOM      1  C   UNL     1      40.144  -0.995  13.540  0.00  0.00    +0.000 A 
ATOM      2  N   UNL     1      41.116  -1.925  13.566  0.00  0.00    +0.000 NA
ATOM      3  C   UNL     1      41.238  -2.509  12.360  0.00  0.00    +0.000 A 
ATOM      4  C   UNL     1      42.076  -3.511  11.860  0.00  0.00    +0.000 A 
ATOM      5  C   UNL     1      41.922  -3.869  10.540  0.00  0.00    +0.000 A 
ATOM      6  C   UNL     1      40.996  -3.289   9.719  0.00  0.00    +0.000 A 
ATOM      7  C   UNL     1      40.181  -2.313  10.208  0.00  0.00    +0.000 A 
ATOM      8  C   UNL     1      40.310  -1.922  11.549  0.00  0.00    +0.000 A 
ATOM      9  N   UNL     1      39.660  -1.007  12.294  0.00  0.00    +0.000 N 
ENDROOT
BRANCH   1  10
ATOM     10  C   UNL     1      39.704  -0.138  14.703  0.00  0.00    +0.000 C 
BRANCH  10  14
ATOM     11  C   UNL     1      36.319  -1.978  16.659  0.00  0.00    +0.000 A 
ATOM     12  C   UNL     1      36.167  -0.999  15.703  0.00  0.00    +0.000 A 
ATOM     13  C   UNL     1      37.268  -0.435  15.101  0.00  0.00    +0.000 A 
ATOM     14  C   UNL     1      38.577  -0.803  15.407  0.00  0.00    +0.000 A 
ATOM     15  C   UNL     1      38.728  -1.781  16.364  0.00  0.00    +0.000 A 
ATOM     16  C   UNL     1      37.628  -2.351  16.971  0.00  0.00    +0.000 A 
BRANCH  11  18
ATOM     17  C   UNL     1      34.024  -1.856  17.342  0.00  0.00    +0.000 C 
ATOM     18  O   UNL     1      35.241  -2.570  17.288  0.00  0.00    +0.000 OA
ENDBRANCH  11  18
BRANCH  16  19
ATOM     19  O   UNL     1      37.761  -3.340  17.937  0.00  0.00    +0.000 OA
ATOM     20  C   UNL     1      38.582  -3.072  19.064  0.00  0.00    +0.000 C 
ENDBRANCH  16  19
ENDBRANCH  10  14
ENDBRANCH   1  10
BRANCH   9  21
ATOM     21  C   UNL     1      38.603  -0.206  11.770  0.00  0.00    +0.000 C 
BRANCH  21  22
ATOM     22  C   UNL     1      39.215   1.315  11.481  0.00  0.00    +0.000 C 
ATOM     23  O   UNL     1      38.988   1.289   9.960  0.00  0.00    +0.000 OA
BRANCH  22  24
ATOM     24  C   UNL     1      37.699   2.026  11.740  0.00  0.00    +0.000 C 
BRANCH  24  25
ATOM     25  O   UNL     1      38.049   2.791  12.856  0.00  0.00    +0.000 OA
BRANCH  25  26
ATOM     26  C   UNL     1      37.225   2.848  13.956  0.00  0.00    +0.000 A 
ATOM     27  C   UNL     1      35.897   2.506  13.810  0.00  0.00    +0.000 A 
ATOM     28  C   UNL     1      35.024   2.543  14.869  0.00  0.00    +0.000 A 
ATOM     29  C   UNL     1      35.516   2.938  16.123  0.00  0.00    +0.000 A 
ATOM     30  C   UNL     1      36.841   3.272  16.239  0.00  0.00    +0.000 A 
ATOM     31  C   UNL     1      37.736   3.244  15.195  0.00  0.00    +0.000 A 
ATOM     32  C   UNL     1      39.171   3.599  15.294  0.00  0.00    +0.000 C 
ENDBRANCH  25  26
ENDBRANCH  24  25
ENDBRANCH  22  24
ENDBRANCH  21  22
ENDBRANCH   9  21
TORSDOF 9
ENDMDL
MODEL 10
REMARK VINA RESULT:      -6.8      3.748      7.336
REMARK  Name = 
REMARK  9 active torsions:
REMARK  status: ('A' for Active; 'I' for Inactive)
REMARK    1  A    between atoms: O_2  and  C_3
REMARK    2  A    between atoms: C_6  and  C_7
REMARK    3  A    between atoms: C_7  and  C_8
REMARK    4  A    between atoms: N_16  and  C_17
REMARK    5  A    between atoms: C_17  and  C_18
REMARK    6  A    between atoms: C_18  and  C_20
REMARK    7  A    between atoms: C_20  and  O_21
REMARK    8  A    between atoms: O_21  and  C_22
REMARK    9  A    between atoms: C_30  and  O_31
REMARK                            x       y       z     vdW  Elec       q    Type
REMARK                         _______ _______ _______ _____ _____    ______ ____
ROOT
ATOM      1  C   UNL     1      37.634  -2.739  15.852  0.00  0.00    +0.000 A 
ATOM      2  N   UNL     1      37.342  -3.933  15.306  0.00  0.00    +0.000 NA
ATOM      3  C   UNL     1      36.015  -4.152  15.340  0.00  0.00    +0.000 A 
ATOM      4  C   UNL     1      35.206  -5.211  14.914  0.00  0.00    +0.000 A 
ATOM      5  C   UNL     1      33.849  -5.093  15.112  0.00  0.00    +0.000 A 
ATOM      6  C   UNL     1      33.278  -3.998  15.700  0.00  0.00    +0.000 A 
ATOM      7  C   UNL     1      34.068  -2.969  16.114  0.00  0.00    +0.000 A 
ATOM      8  C   UNL     1      35.456  -3.054  15.928  0.00  0.00    +0.000 A 
ATOM      9  N   UNL     1      36.464  -2.213  16.228  0.00  0.00    +0.000 N 
ENDROOT
BRANCH   1  10
ATOM     10  C   UNL     1      39.015  -2.147  16.005  0.00  0.00    +0.000 C 
BRANCH  10  14
ATOM     11  C   UNL     1      41.079  -2.719  12.252  0.00  0.00    +0.000 A 
ATOM     12  C   UNL     1      39.705  -2.687  12.332  0.00  0.00    +0.000 A 
ATOM     13  C   UNL     1      39.082  -2.503  13.545  0.00  0.00    +0.000 A 
ATOM     14  C   UNL     1      39.776  -2.341  14.743  0.00  0.00    +0.000 A 
ATOM     15  C   UNL     1      41.150  -2.374  14.661  0.00  0.00    +0.000 A 
ATOM     16  C   UNL     1      41.781  -2.557  13.448  0.00  0.00    +0.000 A 
BRANCH  11  18
ATOM     17  C   UNL     1      41.894  -1.789  10.198  0.00  0.00    +0.000 C 
ATOM     18  O   UNL     1      41.745  -2.902  11.055  0.00  0.00    +0.000 OA
ENDBRANCH  11  18
BRANCH  16  19
ATOM     19  O   UNL     1      43.166  -2.592  13.346  0.00  0.00    +0.000 OA
ATOM     20  C   UNL     1      43.928  -1.879  14.308  0.00  0.00    +0.000 C 
ENDBRANCH  16  19
ENDBRANCH  10  14
ENDBRANCH   1  10
BRANCH   9  21
ATOM     21  C   UNL     1      36.248  -0.959  16.872  0.00  0.00    +0.000 C 
BRANCH  21  22
ATOM     22  C   UNL     1      35.534   0.062  15.766  0.00  0.00    +0.000 C 
ATOM     23  O   UNL     1      34.853   0.966  16.806  0.00  0.00    +0.000 OA
BRANCH  22  24
ATOM     24  C   UNL     1      36.904   1.059  15.731  0.00  0.00    +0.000 C 
BRANCH  24  25
ATOM     25  O   UNL     1      36.999   1.184  14.343  0.00  0.00    +0.000 OA
BRANCH  25  26
ATOM     26  C   UNL     1      38.219   1.113  13.711  0.00  0.00    +0.000 A 
ATOM     27  C   UNL     1      39.365   1.280  14.461  0.00  0.00    +0.000 A 
ATOM     28  C   UNL     1      40.612   1.221  13.890  0.00  0.00    +0.000 A 
ATOM     29  C   UNL     1      40.701   0.983  12.510  0.00  0.00    +0.000 A 
ATOM     30  C   UNL     1      39.545   0.821  11.790  0.00  0.00    +0.000 A 
ATOM     31  C   UNL     1      38.284   0.875  12.336  0.00  0.00    +0.000 A 
ATOM     32  C   UNL     1      37.020   0.703  11.582  0.00  0.00    +0.000 C 
ENDBRANCH  25  26
ENDBRANCH  24  25
ENDBRANCH  22  24
ENDBRANCH  21  22
ENDBRANCH   9  21
TORSDOF 9
ENDMDL
