MODEL 1
REMARK VINA RESULT:      -8.1      0.000      0.000
REMARK  Name = 
REMARK  7 active torsions:
REMARK  status: ('A' for Active; 'I' for Inactive)
REMARK    1  A    between atoms: C_3  and  C_4
REMARK    2  A    between atoms: C_4  and  C_5
REMARK    3  A    between atoms: C_5  and  C_6
REMARK    4  A    between atoms: C_17  and  S_18
REMARK    5  A    between atoms: S_18  and  C_19
REMARK    6  A    between atoms: C_19  and  C_20
REMARK    7  A    between atoms: C_23  and  C_24
REMARK                            x       y       z     vdW  Elec       q    Type
REMARK                         _______ _______ _______ _____ _____    ______ ____
ROOT
ATOM      1  C   UNL     1      36.853   3.892  14.242  0.00  0.00    +0.000 C 
ATOM      2  N   UNL     1      37.068   3.541  15.630  0.00  0.00    +0.000 N 
ATOM      3  C   UNL     1      36.518   2.518  16.247  0.00  0.00    +0.000 A 
ATOM      4  N   UNL     1      36.954   2.531  17.529  0.00  0.00    +0.000 NA
ATOM      5  N   UNL     1      37.776   3.576  17.685  0.00  0.00    +0.000 NA
ATOM      6  C   UNL     1      37.860   4.210  16.526  0.00  0.00    +0.000 A 
ENDROOT
BRANCH   3   7
ATOM      7  C   UNL     1      35.624   1.485  15.696  0.00  0.00    +0.000 C 
BRANCH   7   8
ATOM      8  C   UNL     1      34.992   0.655  16.802  0.00  0.00    +0.000 C 
BRANCH   8   9
ATOM      9  C   UNL     1      35.775  -0.645  16.849  0.00  0.00    +0.000 A 
ATOM     10  N   UNL     1      37.065  -0.811  17.194  0.00  0.00    +0.000 NA
ATOM     11  C   UNL     1      37.374  -2.133  17.065  0.00  0.00    +0.000 A 
ATOM     12  C   UNL     1      38.520  -2.883  17.271  0.00  0.00    +0.000 A 
ATOM     13  C   UNL     1      38.509  -4.254  17.040  0.00  0.00    +0.000 A 
ATOM     14  C   UNL     1      37.349  -4.898  16.602  0.00  0.00    +0.000 A 
ATOM     15  C   UNL     1      36.226  -4.125  16.410  0.00  0.00    +0.000 A 
ATOM     16  C   UNL     1      36.245  -2.752  16.638  0.00  0.00    +0.000 A 
ATOM     17  N   UNL     1      35.258  -1.828  16.509  0.00  0.00    +0.000 NA
ENDBRANCH   8   9
ENDBRANCH   7   8
ENDBRANCH   3   7
BRANCH   6  18
ATOM     18  S   UNL     1      38.772   5.626  16.016  0.00  0.00    +0.000 S 
BRANCH  18  19
ATOM     19  C   UNL     1      39.245   6.807  17.153  0.00  0.00    +0.000 C 
BRANCH  19  20
ATOM     20  C   UNL     1      40.417   6.701  18.028  0.00  0.00    +0.000 A 
ATOM     21  C   UNL     1      41.710   6.825  17.601  0.00  0.00    +0.000 A 
ATOM     22  C   UNL     1      42.834   6.784  18.431  0.00  0.00    +0.000 A 
ATOM     23  C   UNL     1      42.653   6.604  19.795  0.00  0.00    +0.000 A 
ATOM     24  C   UNL     1      41.364   6.478  20.226  0.00  0.00    +0.000 A 
ATOM     25  C   UNL     1      40.248   6.516  19.421  0.00  0.00    +0.000 A 
BRANCH  23  26
ATOM     26  C   UNL     1      43.817   6.579  20.727  0.00  0.00    +0.000 C 
ATOM     27  C   UNL     1      45.119   6.489  19.985  0.00  0.00    +0.000 C 
ATOM     28  C   UNL     1      43.713   5.485  21.755  0.00  0.00    +0.000 C 
ATOM     29  C   UNL     1      43.878   7.873  21.534  0.00  0.00    +0.000 C 
ENDBRANCH  23  26
ENDBRANCH  19  20
ENDBRANCH  18  19
ENDBRANCH   6  18
TORSDOF 7
ENDMDL
MODEL 2
REMARK VINA RESULT:      -8.0      4.319      6.494
REMARK  Name = 
REMARK  7 active torsions:
REMARK  status: ('A' for Active; 'I' for Inactive)
REMARK    1  A    between atoms: C_3  and  C_4
REMARK    2  A    between atoms: C_4  and  C_5
REMARK    3  A    between atoms: C_5  and  C_6
REMARK    4  A    between atoms: C_17  and  S_18
REMARK    5  A    between atoms: S_18  and  C_19
REMARK    6  A    between atoms: C_19  and  C_20
REMARK    7  A    between atoms: C_23  and  C_24
REMARK                            x       y       z     vdW  Elec       q    Type
REMARK                         _______ _______ _______ _____ _____    ______ ____
ROOT
ATOM      1  C   UNL     1      36.408   2.617  13.954  0.00  0.00    +0.000 C 
ATOM      2  N   UNL     1      36.899   2.890  15.289  0.00  0.00    +0.000 N 
ATOM      3  C   UNL     1      36.365   2.431  16.401  0.00  0.00    +0.000 A 
ATOM      4  N   UNL     1      37.098   2.912  17.433  0.00  0.00    +0.000 NA
ATOM      5  N   UNL     1      38.083   3.670  16.936  0.00  0.00    +0.000 NA
ATOM      6  C   UNL     1      37.977   3.667  15.617  0.00  0.00    +0.000 A 
ENDROOT
BRANCH   3   7
ATOM      7  C   UNL     1      35.217   1.524  16.563  0.00  0.00    +0.000 C 
BRANCH   7   8
ATOM      8  C   UNL     1      35.308   0.747  17.866  0.00  0.00    +0.000 C 
BRANCH   8   9
ATOM      9  C   UNL     1      36.002  -0.561  17.527  0.00  0.00    +0.000 A 
ATOM     10  N   UNL     1      35.427  -1.720  17.158  0.00  0.00    +0.000 NA
ATOM     11  C   UNL     1      36.412  -2.647  16.983  0.00  0.00    +0.000 A 
ATOM     12  C   UNL     1      36.430  -3.982  16.616  0.00  0.00    +0.000 A 
ATOM     13  C   UNL     1      37.636  -4.667  16.529  0.00  0.00    +0.000 A 
ATOM     14  C   UNL     1      38.846  -4.026  16.803  0.00  0.00    +0.000 A 
ATOM     15  C   UNL     1      38.795  -2.697  17.162  0.00  0.00    +0.000 A 
ATOM     16  C   UNL     1      37.584  -2.018  17.253  0.00  0.00    +0.000 A 
ATOM     17  N   UNL     1      37.324  -0.728  17.586  0.00  0.00    +0.000 NA
ENDBRANCH   8   9
ENDBRANCH   7   8
ENDBRANCH   3   7
BRANCH   6  18
ATOM     18  S   UNL     1      38.943   4.419  14.352  0.00  0.00    +0.000 S 
BRANCH  18  19
ATOM     19  C   UNL     1      39.907   3.465  13.316  0.00  0.00    +0.000 C 
BRANCH  19  20
ATOM     20  C   UNL     1      39.820   2.005  13.204  0.00  0.00    +0.000 A 
ATOM     21  C   UNL     1      39.477   1.340  12.059  0.00  0.00    +0.000 A 
ATOM     22  C   UNL     1      39.445  -0.049  11.921  0.00  0.00    +0.000 A 
ATOM     23  C   UNL     1      39.780  -0.840  13.012  0.00  0.00    +0.000 A 
ATOM     24  C   UNL     1      40.121  -0.180  14.157  0.00  0.00    +0.000 A 
ATOM     25  C   UNL     1      40.157   1.188  14.309  0.00  0.00    +0.000 A 
BRANCH  23  26
ATOM     26  C   UNL     1      39.786  -2.328  12.909  0.00  0.00    +0.000 C 
ATOM     27  C   UNL     1      40.220  -2.787  11.547  0.00  0.00    +0.000 C 
ATOM     28  C   UNL     1      38.463  -2.939  13.280  0.00  0.00    +0.000 C 
ATOM     29  C   UNL     1      40.788  -2.922  13.895  0.00  0.00    +0.000 C 
ENDBRANCH  23  26
ENDBRANCH  19  20
ENDBRANCH  18  19
ENDBRANCH   6  18
TORSDOF 7
ENDMDL
MODEL 3
REMARK VINA RESULT:      -8.0      6.652     11.302
REMARK  Name = 
REMARK  7 active torsions:
REMARK  status: ('A' for Active; 'I' for Inactive)
REMARK    1  A    between atoms: C_3  and  C_4
REMARK    2  A    between atoms: C_4  and  C_5
REMARK    3  A    between atoms: C_5  and  C_6
REMARK    4  A    between atoms: C_17  and  S_18
REMARK    5  A    between atoms: S_18  and  C_19
REMARK    6  A    between atoms: C_19  and  C_20
REMARK    7  A    between atoms: C_23  and  C_24
REMARK                            x       y       z     vdW  Elec       q    Type
REMARK                         _______ _______ _______ _____ _____    ______ ____
ROOT
ATOM      1  C   UNL     1      44.102   7.653  25.340  0.00  0.00    +0.000 C 
ATOM      2  N   UNL     1      44.551   6.456  24.661  0.00  0.00    +0.000 N 
ATOM      3  C   UNL     1      44.859   5.320  25.250  0.00  0.00    +0.000 A 
ATOM      4  N   UNL     1      45.241   4.451  24.285  0.00  0.00    +0.000 NA
ATOM      5  N   UNL     1      45.164   5.071  23.101  0.00  0.00    +0.000 NA
ATOM      6  C   UNL     1      44.740   6.306  23.313  0.00  0.00    +0.000 A 
ENDROOT
BRANCH   3   7
ATOM      7  C   UNL     1      44.780   4.976  26.679  0.00  0.00    +0.000 C 
BRANCH   7   8
ATOM      8  C   UNL     1      43.759   3.876  26.927  0.00  0.00    +0.000 C 
BRANCH   8   9
ATOM      9  C   UNL     1      42.642   4.515  27.732  0.00  0.00    +0.000 A 
ATOM     10  N   UNL     1      42.040   5.697  27.503  0.00  0.00    +0.000 NA
ATOM     11  C   UNL     1      41.118   5.903  28.485  0.00  0.00    +0.000 A 
ATOM     12  C   UNL     1      40.218   6.917  28.770  0.00  0.00    +0.000 A 
ATOM     13  C   UNL     1      39.391   6.825  29.884  0.00  0.00    +0.000 A 
ATOM     14  C   UNL     1      39.447   5.714  30.729  0.00  0.00    +0.000 A 
ATOM     15  C   UNL     1      40.350   4.722  30.417  0.00  0.00    +0.000 A 
ATOM     16  C   UNL     1      41.179   4.822  29.303  0.00  0.00    +0.000 A 
ATOM     17  N   UNL     1      42.121   3.966  28.832  0.00  0.00    +0.000 NA
ENDBRANCH   8   9
ENDBRANCH   7   8
ENDBRANCH   3   7
BRANCH   6  18
ATOM     18  S   UNL     1      44.390   7.639  22.218  0.00  0.00    +0.000 S 
BRANCH  18  19
ATOM     19  C   UNL     1      44.238   7.365  20.541  0.00  0.00    +0.000 C 
BRANCH  19  20
ATOM     20  C   UNL     1      43.002   6.941  19.873  0.00  0.00    +0.000 A 
ATOM     21  C   UNL     1      41.810   6.745  20.513  0.00  0.00    +0.000 A 
ATOM     22  C   UNL     1      40.612   6.397  19.884  0.00  0.00    +0.000 A 
ATOM     23  C   UNL     1      40.603   6.231  18.505  0.00  0.00    +0.000 A 
ATOM     24  C   UNL     1      41.791   6.425  17.863  0.00  0.00    +0.000 A 
ATOM     25  C   UNL     1      42.979   6.767  18.469  0.00  0.00    +0.000 A 
BRANCH  23  26
ATOM     26  C   UNL     1      39.345   5.886  17.782  0.00  0.00    +0.000 C 
ATOM     27  C   UNL     1      38.355   7.013  17.824  0.00  0.00    +0.000 C 
ATOM     28  C   UNL     1      38.721   4.611  18.282  0.00  0.00    +0.000 C 
ATOM     29  C   UNL     1      39.636   5.631  16.306  0.00  0.00    +0.000 C 
ENDBRANCH  23  26
ENDBRANCH  19  20
ENDBRANCH  18  19
ENDBRANCH   6  18
TORSDOF 7
ENDMDL
MODEL 4
REMARK VINA RESULT:      -8.0      5.206      6.213
REMARK  Name = 
REMARK  7 active torsions:
REMARK  status: ('A' for Active; 'I' for Inactive)
REMARK    1  A    between atoms: C_3  and  C_4
REMARK    2  A    between atoms: C_4  and  C_5
REMARK    3  A    between atoms: C_5  and  C_6
REMARK    4  A    between atoms: C_17  and  S_18
REMARK    5  A    between atoms: S_18  and  C_19
REMARK    6  A    between atoms: C_19  and  C_20
REMARK    7  A    between atoms: C_23  and  C_24
REMARK                            x       y       z     vdW  Elec       q    Type
REMARK                         _______ _______ _______ _____ _____    ______ ____
ROOT
ATOM      1  C   UNL     1      34.587  -0.590  16.985  0.00  0.00    +0.000 C 
ATOM      2  N   UNL     1      35.528   0.285  17.652  0.00  0.00    +0.000 N 
ATOM      3  C   UNL     1      36.165   0.003  18.768  0.00  0.00    +0.000 A 
ATOM      4  N   UNL     1      36.941   1.069  19.076  0.00  0.00    +0.000 NA
ATOM      5  N   UNL     1      36.767   2.005  18.135  0.00  0.00    +0.000 NA
ATOM      6  C   UNL     1      35.901   1.540  17.249  0.00  0.00    +0.000 A 
ENDROOT
BRANCH   3   7
ATOM      7  C   UNL     1      36.125  -1.238  19.560  0.00  0.00    +0.000 C 
BRANCH   7   8
ATOM      8  C   UNL     1      37.450  -1.981  19.488  0.00  0.00    +0.000 C 
BRANCH   8   9
ATOM      9  C   UNL     1      37.697  -2.253  18.014  0.00  0.00    +0.000 A 
ATOM     10  N   UNL     1      38.669  -1.737  17.239  0.00  0.00    +0.000 NA
ATOM     11  C   UNL     1      38.505  -2.219  15.974  0.00  0.00    +0.000 A 
ATOM     12  C   UNL     1      39.180  -2.045  14.777  0.00  0.00    +0.000 A 
ATOM     13  C   UNL     1      38.746  -2.695  13.629  0.00  0.00    +0.000 A 
ATOM     14  C   UNL     1      37.630  -3.536  13.658  0.00  0.00    +0.000 A 
ATOM     15  C   UNL     1      36.982  -3.691  14.864  0.00  0.00    +0.000 A 
ATOM     16  C   UNL     1      37.419  -3.032  16.010  0.00  0.00    +0.000 A 
ATOM     17  N   UNL     1      36.925  -3.052  17.274  0.00  0.00    +0.000 NA
ENDBRANCH   8   9
ENDBRANCH   7   8
ENDBRANCH   3   7
BRANCH   6  18
ATOM     18  S   UNL     1      35.250   2.221  15.762  0.00  0.00    +0.000 S 
BRANCH  18  19
ATOM     19  C   UNL     1      35.806   1.675  14.244  0.00  0.00    +0.000 C 
BRANCH  19  20
ATOM     20  C   UNL     1      37.218   1.511  13.881  0.00  0.00    +0.000 A 
ATOM     21  C   UNL     1      38.264   1.776  14.720  0.00  0.00    +0.000 A 
ATOM     22  C   UNL     1      39.610   1.570  14.409  0.00  0.00    +0.000 A 
ATOM     23  C   UNL     1      39.939   1.060  13.160  0.00  0.00    +0.000 A 
ATOM     24  C   UNL     1      38.898   0.795  12.319  0.00  0.00    +0.000 A 
ATOM     25  C   UNL     1      37.567   0.993  12.611  0.00  0.00    +0.000 A 
BRANCH  23  26
ATOM     26  C   UNL     1      41.360   0.798  12.789  0.00  0.00    +0.000 C 
ATOM     27  C   UNL     1      42.107   2.072  12.520  0.00  0.00    +0.000 C 
ATOM     28  C   UNL     1      41.488  -0.150  11.627  0.00  0.00    +0.000 C 
ATOM     29  C   UNL     1      42.090   0.112  13.940  0.00  0.00    +0.000 C 
ENDBRANCH  23  26
ENDBRANCH  19  20
ENDBRANCH  18  19
ENDBRANCH   6  18
TORSDOF 7
ENDMDL
MODEL 5
REMARK VINA RESULT:      -7.9      1.844      2.634
REMARK  Name = 
REMARK  7 active torsions:
REMARK  status: ('A' for Active; 'I' for Inactive)
REMARK    1  A    between atoms: C_3  and  C_4
REMARK    2  A    between atoms: C_4  and  C_5
REMARK    3  A    between atoms: C_5  and  C_6
REMARK    4  A    between atoms: C_17  and  S_18
REMARK    5  A    between atoms: S_18  and  C_19
REMARK    6  A    between atoms: C_19  and  C_20
REMARK    7  A    between atoms: C_23  and  C_24
REMARK                            x       y       z     vdW  Elec       q    Type
REMARK                         _______ _______ _______ _____ _____    ______ ____
ROOT
ATOM      1  C   UNL     1      35.993   4.018  14.586  0.00  0.00    +0.000 C 
ATOM      2  N   UNL     1      37.311   3.508  14.275  0.00  0.00    +0.000 N 
ATOM      3  C   UNL     1      37.558   2.367  13.667  0.00  0.00    +0.000 A 
ATOM      4  N   UNL     1      38.902   2.240  13.569  0.00  0.00    +0.000 NA
ATOM      5  N   UNL     1      39.472   3.316  14.125  0.00  0.00    +0.000 NA
ATOM      6  C   UNL     1      38.507   4.109  14.565  0.00  0.00    +0.000 A 
ENDROOT
BRANCH   3   7
ATOM      7  C   UNL     1      36.600   1.388  13.127  0.00  0.00    +0.000 C 
BRANCH   7   8
ATOM      8  C   UNL     1      37.064  -0.037  13.383  0.00  0.00    +0.000 C 
BRANCH   8   9
ATOM      9  C   UNL     1      36.833  -0.293  14.862  0.00  0.00    +0.000 A 
ATOM     10  N   UNL     1      35.812   0.148  15.619  0.00  0.00    +0.000 NA
ATOM     11  C   UNL     1      36.013  -0.282  16.897  0.00  0.00    +0.000 A 
ATOM     12  C   UNL     1      35.316  -0.142  18.086  0.00  0.00    +0.000 A 
ATOM     13  C   UNL     1      35.803  -0.719  19.253  0.00  0.00    +0.000 A 
ATOM     14  C   UNL     1      36.993  -1.450  19.251  0.00  0.00    +0.000 A 
ATOM     15  C   UNL     1      37.660  -1.574  18.052  0.00  0.00    +0.000 A 
ATOM     16  C   UNL     1      37.171  -0.990  16.887  0.00  0.00    +0.000 A 
ATOM     17  N   UNL     1      37.672  -0.995  15.626  0.00  0.00    +0.000 NA
ENDBRANCH   8   9
ENDBRANCH   7   8
ENDBRANCH   3   7
BRANCH   6  18
ATOM     18  S   UNL     1      38.538   5.679  15.361  0.00  0.00    +0.000 S 
BRANCH  18  19
ATOM     19  C   UNL     1      38.539   5.786  17.064  0.00  0.00    +0.000 C 
BRANCH  19  20
ATOM     20  C   UNL     1      39.732   6.026  17.884  0.00  0.00    +0.000 A 
ATOM     21  C   UNL     1      40.989   6.212  17.379  0.00  0.00    +0.000 A 
ATOM     22  C   UNL     1      42.123   6.498  18.143  0.00  0.00    +0.000 A 
ATOM     23  C   UNL     1      41.994   6.606  19.521  0.00  0.00    +0.000 A 
ATOM     24  C   UNL     1      40.741   6.420  20.029  0.00  0.00    +0.000 A 
ATOM     25  C   UNL     1      39.614   6.137  19.290  0.00  0.00    +0.000 A 
BRANCH  23  26
ATOM     26  C   UNL     1      43.168   6.935  20.379  0.00  0.00    +0.000 C 
ATOM     27  C   UNL     1      43.341   5.939  21.489  0.00  0.00    +0.000 C 
ATOM     28  C   UNL     1      43.111   8.336  20.925  0.00  0.00    +0.000 C 
ATOM     29  C   UNL     1      44.454   6.883  19.559  0.00  0.00    +0.000 C 
ENDBRANCH  23  26
ENDBRANCH  19  20
ENDBRANCH  18  19
ENDBRANCH   6  18
TORSDOF 7
ENDMDL
MODEL 6
REMARK VINA RESULT:      -7.9      4.483      7.120
REMARK  Name = 
REMARK  7 active torsions:
REMARK  status: ('A' for Active; 'I' for Inactive)
REMARK    1  A    between atoms: C_3  and  C_4
REMARK    2  A    between atoms: C_4  and  C_5
REMARK    3  A    between atoms: C_5  and  C_6
REMARK    4  A    between atoms: C_17  and  S_18
REMARK    5  A    between atoms: S_18  and  C_19
REMARK    6  A    between atoms: C_19  and  C_20
REMARK    7  A    between atoms: C_23  and  C_24
REMARK                            x       y       z     vdW  Elec       q    Type
REMARK                         _______ _______ _______ _____ _____    ______ ____
ROOT
ATOM      1  C   UNL     1      36.664  -1.484  15.184  0.00  0.00    +0.000 C 
ATOM      2  N   UNL     1      37.334  -1.936  16.385  0.00  0.00    +0.000 N 
ATOM      3  C   UNL     1      36.828  -1.887  17.598  0.00  0.00    +0.000 A 
ATOM      4  N   UNL     1      37.755  -2.390  18.447  0.00  0.00    +0.000 NA
ATOM      5  N   UNL     1      38.833  -2.743  17.736  0.00  0.00    +0.000 NA
ATOM      6  C   UNL     1      38.592  -2.472  16.463  0.00  0.00    +0.000 A 
ENDROOT
BRANCH   3   7
ATOM      7  C   UNL     1      35.493  -1.430  18.019  0.00  0.00    +0.000 C 
BRANCH   7   8
ATOM      8  C   UNL     1      35.577  -0.134  18.810  0.00  0.00    +0.000 C 
BRANCH   8   9
ATOM      9  C   UNL     1      35.597   0.983  17.782  0.00  0.00    +0.000 A 
ATOM     10  N   UNL     1      34.602   1.349  16.953  0.00  0.00    +0.000 NA
ATOM     11  C   UNL     1      35.053   2.372  16.172  0.00  0.00    +0.000 A 
ATOM     12  C   UNL     1      34.494   3.136  15.161  0.00  0.00    +0.000 A 
ATOM     13  C   UNL     1      35.242   4.132  14.544  0.00  0.00    +0.000 A 
ATOM     14  C   UNL     1      36.560   4.385  14.931  0.00  0.00    +0.000 A 
ATOM     15  C   UNL     1      37.086   3.610  15.941  0.00  0.00    +0.000 A 
ATOM     16  C   UNL     1      36.334   2.610  16.552  0.00  0.00    +0.000 A 
ATOM     17  N   UNL     1      36.664   1.750  17.549  0.00  0.00    +0.000 NA
ENDBRANCH   8   9
ENDBRANCH   7   8
ENDBRANCH   3   7
BRANCH   6  18
ATOM     18  S   UNL     1      39.546  -2.707  15.003  0.00  0.00    +0.000 S 
BRANCH  18  19
ATOM     19  C   UNL     1      40.886  -1.703  14.674  0.00  0.00    +0.000 C 
BRANCH  19  20
ATOM     20  C   UNL     1      40.795  -0.297  14.263  0.00  0.00    +0.000 A 
ATOM     21  C   UNL     1      41.694   0.323  13.440  0.00  0.00    +0.000 A 
ATOM     22  C   UNL     1      41.590   1.643  12.994  0.00  0.00    +0.000 A 
ATOM     23  C   UNL     1      40.504   2.405  13.402  0.00  0.00    +0.000 A 
ATOM     24  C   UNL     1      39.605   1.790  14.224  0.00  0.00    +0.000 A 
ATOM     25  C   UNL     1      39.694   0.491  14.673  0.00  0.00    +0.000 A 
BRANCH  23  26
ATOM     26  C   UNL     1      40.333   3.811  12.933  0.00  0.00    +0.000 C 
ATOM     27  C   UNL     1      39.065   3.982  12.147  0.00  0.00    +0.000 C 
ATOM     28  C   UNL     1      41.517   4.307  12.148  0.00  0.00    +0.000 C 
ATOM     29  C   UNL     1      40.224   4.758  14.125  0.00  0.00    +0.000 C 
ENDBRANCH  23  26
ENDBRANCH  19  20
ENDBRANCH  18  19
ENDBRANCH   6  18
TORSDOF 7
ENDMDL
MODEL 7
REMARK VINA RESULT:      -7.7     25.332     28.694
REMARK  Name = 
REMARK  7 active torsions:
REMARK  status: ('A' for Active; 'I' for Inactive)
REMARK    1  A    between atoms: C_3  and  C_4
REMARK    2  A    between atoms: C_4  and  C_5
REMARK    3  A    between atoms: C_5  and  C_6
REMARK    4  A    between atoms: C_17  and  S_18
REMARK    5  A    between atoms: S_18  and  C_19
REMARK    6  A    between atoms: C_19  and  C_20
REMARK    7  A    between atoms: C_23  and  C_24
REMARK                            x       y       z     vdW  Elec       q    Type
REMARK                         _______ _______ _______ _____ _____    ______ ____
ROOT
ATOM      1  C   UNL     1      11.619  -0.290  29.147  0.00  0.00    +0.000 C 
ATOM      2  N   UNL     1      11.841   0.994  28.517  0.00  0.00    +0.000 N 
ATOM      3  C   UNL     1      11.129   2.079  28.736  0.00  0.00    +0.000 A 
ATOM      4  N   UNL     1      11.635   3.064  27.958  0.00  0.00    +0.000 NA
ATOM      5  N   UNL     1      12.664   2.566  27.260  0.00  0.00    +0.000 NA
ATOM      6  C   UNL     1      12.806   1.293  27.592  0.00  0.00    +0.000 A 
ENDROOT
BRANCH   3   7
ATOM      7  C   UNL     1      10.009   2.268  29.673  0.00  0.00    +0.000 C 
BRANCH   7   8
ATOM      8  C   UNL     1       9.297   3.588  29.423  0.00  0.00    +0.000 C 
BRANCH   8   9
ATOM      9  C   UNL     1       9.494   4.415  30.681  0.00  0.00    +0.000 A 
ATOM     10  N   UNL     1      10.016   4.010  31.854  0.00  0.00    +0.000 NA
ATOM     11  C   UNL     1       9.976   5.059  32.723  0.00  0.00    +0.000 A 
ATOM     12  C   UNL     1      10.360   5.238  34.042  0.00  0.00    +0.000 A 
ATOM     13  C   UNL     1      10.178   6.468  34.662  0.00  0.00    +0.000 A 
ATOM     14  C   UNL     1       9.611   7.543  33.972  0.00  0.00    +0.000 A 
ATOM     15  C   UNL     1       9.242   7.334  32.662  0.00  0.00    +0.000 A 
ATOM     16  C   UNL     1       9.423   6.098  32.047  0.00  0.00    +0.000 A 
ATOM     17  N   UNL     1       9.129   5.695  30.784  0.00  0.00    +0.000 NA
ENDBRANCH   8   9
ENDBRANCH   7   8
ENDBRANCH   3   7
BRANCH   6  18
ATOM     18  S   UNL     1      13.960   0.062  27.089  0.00  0.00    +0.000 S 
BRANCH  18  19
ATOM     19  C   UNL     1      15.614   0.214  27.480  0.00  0.00    +0.000 C 
BRANCH  19  20
ATOM     20  C   UNL     1      16.706   0.212  26.500  0.00  0.00    +0.000 A 
ATOM     21  C   UNL     1      17.404   1.326  26.123  0.00  0.00    +0.000 A 
ATOM     22  C   UNL     1      18.483   1.330  25.236  0.00  0.00    +0.000 A 
ATOM     23  C   UNL     1      18.899   0.128  24.679  0.00  0.00    +0.000 A 
ATOM     24  C   UNL     1      18.204  -0.986  25.052  0.00  0.00    +0.000 A 
ATOM     25  C   UNL     1      17.139  -1.006  25.924  0.00  0.00    +0.000 A 
BRANCH  23  26
ATOM     26  C   UNL     1      20.062   0.076  23.747  0.00  0.00    +0.000 C 
ATOM     27  C   UNL     1      20.167  -1.259  23.067  0.00  0.00    +0.000 C 
ATOM     28  C   UNL     1      21.359   0.433  24.420  0.00  0.00    +0.000 C 
ATOM     29  C   UNL     1      19.897   1.107  22.635  0.00  0.00    +0.000 C 
ENDBRANCH  23  26
ENDBRANCH  19  20
ENDBRANCH  18  19
ENDBRANCH   6  18
TORSDOF 7
ENDMDL
MODEL 8
REMARK VINA RESULT:      -7.7      2.410      3.579
REMARK  Name = 
REMARK  7 active torsions:
REMARK  status: ('A' for Active; 'I' for Inactive)
REMARK    1  A    between atoms: C_3  and  C_4
REMARK    2  A    between atoms: C_4  and  C_5
REMARK    3  A    between atoms: C_5  and  C_6
REMARK    4  A    between atoms: C_17  and  S_18
REMARK    5  A    between atoms: S_18  and  C_19
REMARK    6  A    between atoms: C_19  and  C_20
REMARK    7  A    between atoms: C_23  and  C_24
REMARK                            x       y       z     vdW  Elec       q    Type
REMARK                         _______ _______ _______ _____ _____    ______ ____
ROOT
ATOM      1  C   UNL     1      36.711   1.146  13.496  0.00  0.00    +0.000 C 
ATOM      2  N   UNL     1      38.144   1.041  13.676  0.00  0.00    +0.000 N 
ATOM      3  C   UNL     1      38.857  -0.045  13.468  0.00  0.00    +0.000 A 
ATOM      4  N   UNL     1      40.146   0.252  13.754  0.00  0.00    +0.000 NA
ATOM      5  N   UNL     1      40.210   1.532  14.141  0.00  0.00    +0.000 NA
ATOM      6  C   UNL     1      38.987   2.035  14.098  0.00  0.00    +0.000 A 
ENDROOT
BRANCH   3   7
ATOM      7  C   UNL     1      38.408  -1.357  12.972  0.00  0.00    +0.000 C 
BRANCH   7   8
ATOM      8  C   UNL     1      38.868  -2.481  13.887  0.00  0.00    +0.000 C 
BRANCH   8   9
ATOM      9  C   UNL     1      38.210  -2.222  15.231  0.00  0.00    +0.000 A 
ATOM     10  N   UNL     1      36.935  -1.856  15.461  0.00  0.00    +0.000 NA
ATOM     11  C   UNL     1      36.773  -1.698  16.805  0.00  0.00    +0.000 A 
ATOM     12  C   UNL     1      35.709  -1.338  17.616  0.00  0.00    +0.000 A 
ATOM     13  C   UNL     1      35.875  -1.264  18.993  0.00  0.00    +0.000 A 
ATOM     14  C   UNL     1      37.107  -1.552  19.585  0.00  0.00    +0.000 A 
ATOM     15  C   UNL     1      38.144  -1.910  18.752  0.00  0.00    +0.000 A 
ATOM     16  C   UNL     1      37.974  -1.977  17.372  0.00  0.00    +0.000 A 
ATOM     17  N   UNL     1      38.857  -2.304  16.394  0.00  0.00    +0.000 NA
ENDBRANCH   8   9
ENDBRANCH   7   8
ENDBRANCH   3   7
BRANCH   6  18
ATOM     18  S   UNL     1      38.357   3.642  14.442  0.00  0.00    +0.000 S 
BRANCH  18  19
ATOM     19  C   UNL     1      38.063   4.131  16.050  0.00  0.00    +0.000 C 
BRANCH  19  20
ATOM     20  C   UNL     1      38.996   4.916  16.867  0.00  0.00    +0.000 A 
ATOM     21  C   UNL     1      38.904   5.049  18.225  0.00  0.00    +0.000 A 
ATOM     22  C   UNL     1      39.816   5.745  19.023  0.00  0.00    +0.000 A 
ATOM     23  C   UNL     1      40.905   6.358  18.418  0.00  0.00    +0.000 A 
ATOM     24  C   UNL     1      40.999   6.228  17.063  0.00  0.00    +0.000 A 
ATOM     25  C   UNL     1      40.109   5.547  16.263  0.00  0.00    +0.000 A 
BRANCH  23  26
ATOM     26  C   UNL     1      41.921   7.090  19.228  0.00  0.00    +0.000 C 
ATOM     27  C   UNL     1      41.437   8.455  19.622  0.00  0.00    +0.000 C 
ATOM     28  C   UNL     1      43.256   7.177  18.539  0.00  0.00    +0.000 C 
ATOM     29  C   UNL     1      42.197   6.346  20.531  0.00  0.00    +0.000 C 
ENDBRANCH  23  26
ENDBRANCH  19  20
ENDBRANCH  18  19
ENDBRANCH   6  18
TORSDOF 7
ENDMDL
MODEL 9
REMARK VINA RESULT:      -7.6      5.270      8.463
REMARK  Name = 
REMARK  7 active torsions:
REMARK  status: ('A' for Active; 'I' for Inactive)
REMARK    1  A    between atoms: C_3  and  C_4
REMARK    2  A    between atoms: C_4  and  C_5
REMARK    3  A    between atoms: C_5  and  C_6
REMARK    4  A    between atoms: C_17  and  S_18
REMARK    5  A    between atoms: S_18  and  C_19
REMARK    6  A    between atoms: C_19  and  C_20
REMARK    7  A    between atoms: C_23  and  C_24
REMARK                            x       y       z     vdW  Elec       q    Type
REMARK                         _______ _______ _______ _____ _____    ______ ____
ROOT
ATOM      1  C   UNL     1      36.225  -1.860  15.132  0.00  0.00    +0.000 C 
ATOM      2  N   UNL     1      36.695  -1.467  16.443  0.00  0.00    +0.000 N 
ATOM      3  C   UNL     1      36.151  -0.533  17.194  0.00  0.00    +0.000 A 
ATOM      4  N   UNL     1      36.878  -0.453  18.334  0.00  0.00    +0.000 NA
ATOM      5  N   UNL     1      37.872  -1.346  18.267  0.00  0.00    +0.000 NA
ATOM      6  C   UNL     1      37.776  -1.981  17.109  0.00  0.00    +0.000 A 
ENDROOT
BRANCH   3   7
ATOM      7  C   UNL     1      34.950   0.275  16.929  0.00  0.00    +0.000 C 
BRANCH   7   8
ATOM      8  C   UNL     1      35.302   1.742  16.739  0.00  0.00    +0.000 C 
BRANCH   8   9
ATOM      9  C   UNL     1      36.345   1.783  15.637  0.00  0.00    +0.000 A 
ATOM     10  N   UNL     1      36.143   1.643  14.313  0.00  0.00    +0.000 NA
ATOM     11  C   UNL     1      37.352   1.710  13.688  0.00  0.00    +0.000 A 
ATOM     12  C   UNL     1      37.764   1.632  12.368  0.00  0.00    +0.000 A 
ATOM     13  C   UNL     1      39.113   1.740  12.050  0.00  0.00    +0.000 A 
ATOM     14  C   UNL     1      40.073   1.931  13.047  0.00  0.00    +0.000 A 
ATOM     15  C   UNL     1      39.630   2.008  14.349  0.00  0.00    +0.000 A 
ATOM     16  C   UNL     1      38.279   1.894  14.662  0.00  0.00    +0.000 A 
ATOM     17  N   UNL     1      37.650   1.941  15.864  0.00  0.00    +0.000 NA
ENDBRANCH   8   9
ENDBRANCH   7   8
ENDBRANCH   3   7
BRANCH   6  18
ATOM     18  S   UNL     1      38.722  -3.280  16.391  0.00  0.00    +0.000 S 
BRANCH  18  19
ATOM     19  C   UNL     1      40.270  -2.968  15.744  0.00  0.00    +0.000 C 
BRANCH  19  20
ATOM     20  C   UNL     1      40.521  -2.422  14.406  0.00  0.00    +0.000 A 
ATOM     21  C   UNL     1      41.669  -1.774  14.042  0.00  0.00    +0.000 A 
ATOM     22  C   UNL     1      41.946  -1.299  12.758  0.00  0.00    +0.000 A 
ATOM     23  C   UNL     1      41.003  -1.484  11.757  0.00  0.00    +0.000 A 
ATOM     24  C   UNL     1      39.855  -2.130  12.116  0.00  0.00    +0.000 A 
ATOM     25  C   UNL     1      39.567  -2.602  13.376  0.00  0.00    +0.000 A 
BRANCH  23  26
ATOM     26  C   UNL     1      41.261  -1.020  10.363  0.00  0.00    +0.000 C 
ATOM     27  C   UNL     1      39.992  -0.624   9.667  0.00  0.00    +0.000 C 
ATOM     28  C   UNL     1      42.022  -2.031   9.548  0.00  0.00    +0.000 C 
ATOM     29  C   UNL     1      42.145   0.224  10.374  0.00  0.00    +0.000 C 
ENDBRANCH  23  26
ENDBRANCH  19  20
ENDBRANCH  18  19
ENDBRANCH   6  18
TORSDOF 7
ENDMDL
MODEL 10
REMARK VINA RESULT:      -7.5      4.601      6.622
REMARK  Name = 
REMARK  7 active torsions:
REMARK  status: ('A' for Active; 'I' for Inactive)
REMARK    1  A    between atoms: C_3  and  C_4
REMARK    2  A    between atoms: C_4  and  C_5
REMARK    3  A    between atoms: C_5  and  C_6
REMARK    4  A    between atoms: C_17  and  S_18
REMARK    5  A    between atoms: S_18  and  C_19
REMARK    6  A    between atoms: C_19  and  C_20
REMARK    7  A    between atoms: C_23  and  C_24
REMARK                            x       y       z     vdW  Elec       q    Type
REMARK                         _______ _______ _______ _____ _____    ______ ____
ROOT
ATOM      1  C   UNL     1      35.846  10.658  14.618  0.00  0.00    +0.000 C 
ATOM      2  N   UNL     1      34.827   9.975  15.386  0.00  0.00    +0.000 N 
ATOM      3  C   UNL     1      34.114   8.954  14.960  0.00  0.00    +0.000 A 
ATOM      4  N   UNL     1      33.267   8.604  15.956  0.00  0.00    +0.000 NA
ATOM      5  N   UNL     1      33.470   9.425  16.994  0.00  0.00    +0.000 NA
ATOM      6  C   UNL     1      34.429  10.276  16.662  0.00  0.00    +0.000 A 
ENDROOT
BRANCH   3   7
ATOM      7  C   UNL     1      34.202   8.246  13.672  0.00  0.00    +0.000 C 
BRANCH   7   8
ATOM      8  C   UNL     1      33.755   6.799  13.806  0.00  0.00    +0.000 C 
BRANCH   8   9
ATOM      9  C   UNL     1      35.013   5.997  14.091  0.00  0.00    +0.000 A 
ATOM     10  N   UNL     1      35.102   4.678  14.344  0.00  0.00    +0.000 NA
ATOM     11  C   UNL     1      36.411   4.377  14.579  0.00  0.00    +0.000 A 
ATOM     12  C   UNL     1      37.096   3.214  14.887  0.00  0.00    +0.000 A 
ATOM     13  C   UNL     1      38.473   3.242  15.073  0.00  0.00    +0.000 A 
ATOM     14  C   UNL     1      39.190   4.435  14.949  0.00  0.00    +0.000 A 
ATOM     15  C   UNL     1      38.480   5.574  14.639  0.00  0.00    +0.000 A 
ATOM     16  C   UNL     1      37.100   5.540  14.459  0.00  0.00    +0.000 A 
ATOM     17  N   UNL     1      36.231   6.538  14.155  0.00  0.00    +0.000 NA
ENDBRANCH   8   9
ENDBRANCH   7   8
ENDBRANCH   3   7
BRANCH   6  18
ATOM     18  S   UNL     1      35.206  11.584  17.545  0.00  0.00    +0.000 S 
BRANCH  18  19
ATOM     19  C   UNL     1      36.756  11.370  18.225  0.00  0.00    +0.000 C 
BRANCH  19  20
ATOM     20  C   UNL     1      37.477  10.093  18.273  0.00  0.00    +0.000 A 
ATOM     21  C   UNL     1      38.249   9.606  17.256  0.00  0.00    +0.000 A 
ATOM     22  C   UNL     1      38.987   8.420  17.309  0.00  0.00    +0.000 A 
ATOM     23  C   UNL     1      38.950   7.659  18.469  0.00  0.00    +0.000 A 
ATOM     24  C   UNL     1      38.179   8.141  19.487  0.00  0.00    +0.000 A 
ATOM     25  C   UNL     1      37.447   9.306  19.450  0.00  0.00    +0.000 A 
BRANCH  23  26
ATOM     26  C   UNL     1      39.740   6.399  18.586  0.00  0.00    +0.000 C 
ATOM     27  C   UNL     1      40.840   6.338  17.567  0.00  0.00    +0.000 C 
ATOM     28  C   UNL     1      38.879   5.167  18.515  0.00  0.00    +0.000 C 
ATOM     29  C   UNL     1      40.421   6.327  19.950  0.00  0.00    +0.000 C 
ENDBRANCH  23  26
ENDBRANCH  19  20
ENDBRANCH  18  19
ENDBRANCH   6  18
TORSDOF 7
ENDMDL
