MODEL 1
REMARK VINA RESULT:      -8.0      0.000      0.000
REMARK  Name = 
REMARK  8 active torsions:
REMARK  status: ('A' for Active; 'I' for Inactive)
REMARK    1  A    between atoms: C_2  and  C_4
REMARK    2  A    between atoms: C_8  and  C_9
REMARK    3  A    between atoms: C_12  and  O_13
REMARK    4  A    between atoms: O_13  and  S_14
REMARK    5  A    between atoms: S_14  and  N_17
REMARK    6  A    between atoms: C_18  and  C_20
REMARK    7  A    between atoms: C_20  and  C_22
REMARK    8  A    between atoms: C_20  and  C_28
REMARK                            x       y       z     vdW  Elec       q    Type
REMARK                         _______ _______ _______ _____ _____    ______ ____
ROOT
ATOM      1  N   UNL     1      36.525   3.814  15.371  0.00  0.00    +0.000 NA
ATOM      2  C   UNL     1      37.444   4.274  16.356  0.00  0.00    +0.000 C 
ATOM      3  O   UNL     1      37.641   3.561  17.387  0.00  0.00    +0.000 OA
ENDROOT
BRANCH   1   4
ATOM      4  S   UNL     1      35.736   2.322  15.632  0.00  0.00    +0.000 S 
ATOM      5  O   UNL     1      34.543   2.583  16.540  0.00  0.00    +0.000 OA
ATOM      6  O   UNL     1      35.238   1.775  14.322  0.00  0.00    +0.000 OA
BRANCH   4   7
ATOM      7  O   UNL     1      36.746   1.130  16.297  0.00  0.00    +0.000 OA
BRANCH   7  13
ATOM      8  C   UNL     1      35.817  -1.122  16.142  0.00  0.00    +0.000 A 
ATOM      9  C   UNL     1      35.785  -2.376  15.573  0.00  0.00    +0.000 A 
ATOM     10  C   UNL     1      36.651  -2.709  14.559  0.00  0.00    +0.000 A 
ATOM     11  C   UNL     1      37.551  -1.733  14.136  0.00  0.00    +0.000 A 
ATOM     12  C   UNL     1      37.560  -0.485  14.723  0.00  0.00    +0.000 A 
ATOM     13  C   UNL     1      36.694  -0.139  15.743  0.00  0.00    +0.000 A 
BRANCH   8  15
ATOM     14  C   UNL     1      35.589  -0.747  18.591  0.00  0.00    +0.000 C 
ATOM     15  C   UNL     1      34.868  -0.764  17.259  0.00  0.00    +0.000 C 
ATOM     16  C   UNL     1      33.688  -1.694  17.307  0.00  0.00    +0.000 C 
ENDBRANCH   8  15
BRANCH  12  17
ATOM     17  C   UNL     1      38.517   0.561  14.275  0.00  0.00    +0.000 C 
ATOM     18  C   UNL     1      39.945   0.129  14.576  0.00  0.00    +0.000 C 
ATOM     19  C   UNL     1      38.319   0.927  12.823  0.00  0.00    +0.000 C 
ENDBRANCH  12  17
ENDBRANCH   7  13
ENDBRANCH   4   7
ENDBRANCH   1   4
BRANCH   2  20
ATOM     20  C   UNL     1      38.180   5.541  16.239  0.00  0.00    +0.000 C 
ATOM     21  C   UNL     1      37.278   6.588  15.560  0.00  0.00    +0.000 C 
BRANCH  20  22
ATOM     22  C   UNL     1      38.683   6.068  17.527  0.00  0.00    +0.000 A 
ATOM     23  C   UNL     1      39.712   5.531  18.248  0.00  0.00    +0.000 A 
ATOM     24  C   UNL     1      40.153   6.045  19.447  0.00  0.00    +0.000 A 
ATOM     25  C   UNL     1      39.544   7.167  19.988  0.00  0.00    +0.000 A 
ATOM     26  C   UNL     1      38.503   7.723  19.277  0.00  0.00    +0.000 A 
ATOM     27  C   UNL     1      38.076   7.190  18.075  0.00  0.00    +0.000 A 
ENDBRANCH  20  22
BRANCH  20  28
ATOM     28  C   UNL     1      39.356   5.348  15.338  0.00  0.00    +0.000 A 
ATOM     29  C   UNL     1      39.587   4.182  14.664  0.00  0.00    +0.000 A 
ATOM     30  C   UNL     1      40.680   4.027  13.837  0.00  0.00    +0.000 A 
ATOM     31  C   UNL     1      41.598   5.069  13.660  0.00  0.00    +0.000 A 
ATOM     32  C   UNL     1      41.334   6.214  14.349  0.00  0.00    +0.000 A 
ATOM     33  C   UNL     1      40.268   6.395  15.169  0.00  0.00    +0.000 A 
ENDBRANCH  20  28
ENDBRANCH   2  20
TORSDOF 8
ENDMDL
MODEL 2
REMARK VINA RESULT:      -7.9      0.126      2.915
REMARK  Name = 
REMARK  8 active torsions:
REMARK  status: ('A' for Active; 'I' for Inactive)
REMARK    1  A    between atoms: C_2  and  C_4
REMARK    2  A    between atoms: C_8  and  C_9
REMARK    3  A    between atoms: C_12  and  O_13
REMARK    4  A    between atoms: O_13  and  S_14
REMARK    5  A    between atoms: S_14  and  N_17
REMARK    6  A    between atoms: C_18  and  C_20
REMARK    7  A    between atoms: C_20  and  C_22
REMARK    8  A    between atoms: C_20  and  C_28
REMARK                            x       y       z     vdW  Elec       q    Type
REMARK                         _______ _______ _______ _____ _____    ______ ____
ROOT
ATOM      1  N   UNL     1      36.556   3.841  15.424  0.00  0.00    +0.000 NA
ATOM      2  C   UNL     1      37.481   4.294  16.407  0.00  0.00    +0.000 C 
ATOM      3  O   UNL     1      37.681   3.576  17.434  0.00  0.00    +0.000 OA
ENDROOT
BRANCH   1   4
ATOM      4  S   UNL     1      35.764   2.350  15.682  0.00  0.00    +0.000 S 
ATOM      5  O   UNL     1      34.567   2.613  16.585  0.00  0.00    +0.000 OA
ATOM      6  O   UNL     1      35.272   1.801  14.371  0.00  0.00    +0.000 OA
BRANCH   4   7
ATOM      7  O   UNL     1      36.770   1.157  16.354  0.00  0.00    +0.000 OA
BRANCH   7  13
ATOM      8  C   UNL     1      37.608  -0.430  14.699  0.00  0.00    +0.000 A 
ATOM      9  C   UNL     1      37.603  -1.677  14.116  0.00  0.00    +0.000 A 
ATOM     10  C   UNL     1      36.753  -2.660  14.565  0.00  0.00    +0.000 A 
ATOM     11  C   UNL     1      35.907  -2.341  15.624  0.00  0.00    +0.000 A 
ATOM     12  C   UNL     1      35.933  -1.084  16.191  0.00  0.00    +0.000 A 
ATOM     13  C   UNL     1      36.784  -0.089  15.747  0.00  0.00    +0.000 A 
BRANCH   8  15
ATOM     14  C   UNL     1      38.332   0.887  12.716  0.00  0.00    +0.000 C 
ATOM     15  C   UNL     1      38.539   0.646  14.198  0.00  0.00    +0.000 C 
ATOM     16  C   UNL     1      39.977   0.316  14.485  0.00  0.00    +0.000 C 
ENDBRANCH   8  15
BRANCH  12  17
ATOM     17  C   UNL     1      35.033  -0.739  17.323  0.00  0.00    +0.000 C 
ATOM     18  C   UNL     1      33.791  -1.617  17.292  0.00  0.00    +0.000 C 
ATOM     19  C   UNL     1      35.747  -0.795  18.653  0.00  0.00    +0.000 C 
ENDBRANCH  12  17
ENDBRANCH   7  13
ENDBRANCH   4   7
ENDBRANCH   1   4
BRANCH   2  20
ATOM     20  C   UNL     1      38.220   5.559  16.291  0.00  0.00    +0.000 C 
ATOM     21  C   UNL     1      37.330   6.602  15.590  0.00  0.00    +0.000 C 
BRANCH  20  22
ATOM     22  C   UNL     1      38.704   6.096  17.583  0.00  0.00    +0.000 A 
ATOM     23  C   UNL     1      39.726   5.567  18.320  0.00  0.00    +0.000 A 
ATOM     24  C   UNL     1      40.149   6.090  19.522  0.00  0.00    +0.000 A 
ATOM     25  C   UNL     1      39.528   7.213  20.048  0.00  0.00    +0.000 A 
ATOM     26  C   UNL     1      38.495   7.760  19.320  0.00  0.00    +0.000 A 
ATOM     27  C   UNL     1      38.085   7.218  18.116  0.00  0.00    +0.000 A 
ENDBRANCH  20  22
BRANCH  20  28
ATOM     28  C   UNL     1      39.409   5.358  15.410  0.00  0.00    +0.000 A 
ATOM     29  C   UNL     1      40.436   6.257  15.337  0.00  0.00    +0.000 A 
ATOM     30  C   UNL     1      41.525   6.050  14.518  0.00  0.00    +0.000 A 
ATOM     31  C   UNL     1      41.616   4.901  13.723  0.00  0.00    +0.000 A 
ATOM     32  C   UNL     1      40.574   4.030  13.822  0.00  0.00    +0.000 A 
ATOM     33  C   UNL     1      39.490   4.207  14.620  0.00  0.00    +0.000 A 
ENDBRANCH  20  28
ENDBRANCH   2  20
TORSDOF 8
ENDMDL
MODEL 3
REMARK VINA RESULT:      -7.6      2.941      7.598
REMARK  Name = 
REMARK  8 active torsions:
REMARK  status: ('A' for Active; 'I' for Inactive)
REMARK    1  A    between atoms: C_2  and  C_4
REMARK    2  A    between atoms: C_8  and  C_9
REMARK    3  A    between atoms: C_12  and  O_13
REMARK    4  A    between atoms: O_13  and  S_14
REMARK    5  A    between atoms: S_14  and  N_17
REMARK    6  A    between atoms: C_18  and  C_20
REMARK    7  A    between atoms: C_20  and  C_22
REMARK    8  A    between atoms: C_20  and  C_28
REMARK                            x       y       z     vdW  Elec       q    Type
REMARK                         _______ _______ _______ _____ _____    ______ ____
ROOT
ATOM      1  N   UNL     1      37.900   0.860  15.725  0.00  0.00    +0.000 NA
ATOM      2  C   UNL     1      36.937  -0.181  15.600  0.00  0.00    +0.000 C 
ATOM      3  O   UNL     1      35.711   0.131  15.504  0.00  0.00    +0.000 OA
ENDROOT
BRANCH   1   4
ATOM      4  S   UNL     1      37.350   2.477  15.740  0.00  0.00    +0.000 S 
ATOM      5  O   UNL     1      36.624   2.706  17.057  0.00  0.00    +0.000 OA
ATOM      6  O   UNL     1      38.524   3.414  15.663  0.00  0.00    +0.000 OA
BRANCH   4   7
ATOM      7  O   UNL     1      36.344   2.861  14.427  0.00  0.00    +0.000 OA
BRANCH   7  13
ATOM      8  C   UNL     1      37.635   2.840  12.356  0.00  0.00    +0.000 A 
ATOM      9  C   UNL     1      38.197   3.490  11.280  0.00  0.00    +0.000 A 
ATOM     10  C   UNL     1      38.068   4.851  11.135  0.00  0.00    +0.000 A 
ATOM     11  C   UNL     1      37.351   5.535  12.114  0.00  0.00    +0.000 A 
ATOM     12  C   UNL     1      36.797   4.858  13.181  0.00  0.00    +0.000 A 
ATOM     13  C   UNL     1      36.921   3.490  13.336  0.00  0.00    +0.000 A 
BRANCH   8  15
ATOM     14  C   UNL     1      39.230   0.930  12.315  0.00  0.00    +0.000 C 
ATOM     15  C   UNL     1      37.786   1.347  12.511  0.00  0.00    +0.000 C 
ATOM     16  C   UNL     1      36.885   0.595  11.572  0.00  0.00    +0.000 C 
ENDBRANCH   8  15
BRANCH  12  17
ATOM     17  C   UNL     1      36.029   5.583  14.228  0.00  0.00    +0.000 C 
ATOM     18  C   UNL     1      36.903   6.645  14.878  0.00  0.00    +0.000 C 
ATOM     19  C   UNL     1      34.735   6.149  13.692  0.00  0.00    +0.000 C 
ENDBRANCH  12  17
ENDBRANCH   7  13
ENDBRANCH   4   7
ENDBRANCH   1   4
BRANCH   2  20
ATOM     20  C   UNL     1      37.294  -1.606  15.576  0.00  0.00    +0.000 C 
ATOM     21  C   UNL     1      36.068  -2.427  15.138  0.00  0.00    +0.000 C 
BRANCH  20  22
ATOM     22  C   UNL     1      38.450  -1.924  14.707  0.00  0.00    +0.000 A 
ATOM     23  C   UNL     1      39.758  -1.684  15.020  0.00  0.00    +0.000 A 
ATOM     24  C   UNL     1      40.810  -1.989  14.185  0.00  0.00    +0.000 A 
ATOM     25  C   UNL     1      40.571  -2.570  12.949  0.00  0.00    +0.000 A 
ATOM     26  C   UNL     1      39.258  -2.819  12.615  0.00  0.00    +0.000 A 
ATOM     27  C   UNL     1      38.216  -2.504  13.467  0.00  0.00    +0.000 A 
ENDBRANCH  20  22
BRANCH  20  28
ATOM     28  C   UNL     1      37.631  -2.055  16.960  0.00  0.00    +0.000 A 
ATOM     29  C   UNL     1      37.249  -1.364  18.075  0.00  0.00    +0.000 A 
ATOM     30  C   UNL     1      37.572  -1.798  19.343  0.00  0.00    +0.000 A 
ATOM     31  C   UNL     1      38.310  -2.972  19.533  0.00  0.00    +0.000 A 
ATOM     32  C   UNL     1      38.672  -3.632  18.398  0.00  0.00    +0.000 A 
ATOM     33  C   UNL     1      38.369  -3.230  17.139  0.00  0.00    +0.000 A 
ENDBRANCH  20  28
ENDBRANCH   2  20
TORSDOF 8
ENDMDL
MODEL 4
REMARK VINA RESULT:      -7.4      3.039      7.525
REMARK  Name = 
REMARK  8 active torsions:
REMARK  status: ('A' for Active; 'I' for Inactive)
REMARK    1  A    between atoms: C_2  and  C_4
REMARK    2  A    between atoms: C_8  and  C_9
REMARK    3  A    between atoms: C_12  and  O_13
REMARK    4  A    between atoms: O_13  and  S_14
REMARK    5  A    between atoms: S_14  and  N_17
REMARK    6  A    between atoms: C_18  and  C_20
REMARK    7  A    between atoms: C_20  and  C_22
REMARK    8  A    between atoms: C_20  and  C_28
REMARK                            x       y       z     vdW  Elec       q    Type
REMARK                         _______ _______ _______ _____ _____    ______ ____
ROOT
ATOM      1  N   UNL     1      37.829   0.834  15.800  0.00  0.00    +0.000 NA
ATOM      2  C   UNL     1      36.875  -0.216  15.689  0.00  0.00    +0.000 C 
ATOM      3  O   UNL     1      35.648   0.084  15.564  0.00  0.00    +0.000 OA
ENDROOT
BRANCH   1   4
ATOM      4  S   UNL     1      37.269   2.447  15.758  0.00  0.00    +0.000 S 
ATOM      5  O   UNL     1      36.540   2.717  17.066  0.00  0.00    +0.000 OA
ATOM      6  O   UNL     1      38.437   3.389  15.649  0.00  0.00    +0.000 OA
BRANCH   4   7
ATOM      7  O   UNL     1      36.260   2.778  14.432  0.00  0.00    +0.000 OA
BRANCH   7  13
ATOM      8  C   UNL     1      36.717   4.848  13.221  0.00  0.00    +0.000 A 
ATOM      9  C   UNL     1      37.269   5.524  12.156  0.00  0.00    +0.000 A 
ATOM     10  C   UNL     1      37.946   4.847  11.169  0.00  0.00    +0.000 A 
ATOM     11  C   UNL     1      38.049   3.464  11.294  0.00  0.00    +0.000 A 
ATOM     12  C   UNL     1      37.487   2.812  12.372  0.00  0.00    +0.000 A 
ATOM     13  C   UNL     1      36.804   3.482  13.370  0.00  0.00    +0.000 A 
BRANCH   8  15
ATOM     14  C   UNL     1      34.572   5.950  13.833  0.00  0.00    +0.000 C 
ATOM     15  C   UNL     1      35.970   5.596  14.298  0.00  0.00    +0.000 C 
ATOM     16  C   UNL     1      36.711   6.827  14.737  0.00  0.00    +0.000 C 
ENDBRANCH   8  15
BRANCH  12  17
ATOM     17  C   UNL     1      37.595   1.335  12.511  0.00  0.00    +0.000 C 
ATOM     18  C   UNL     1      36.713   0.646  11.481  0.00  0.00    +0.000 C 
ATOM     19  C   UNL     1      39.028   0.863  12.453  0.00  0.00    +0.000 C 
ENDBRANCH  12  17
ENDBRANCH   7  13
ENDBRANCH   4   7
ENDBRANCH   1   4
BRANCH   2  20
ATOM     20  C   UNL     1      37.241  -1.640  15.713  0.00  0.00    +0.000 C 
ATOM     21  C   UNL     1      36.027  -2.482  15.281  0.00  0.00    +0.000 C 
BRANCH  20  22
ATOM     22  C   UNL     1      38.413  -1.975  14.872  0.00  0.00    +0.000 A 
ATOM     23  C   UNL     1      39.717  -1.767  15.221  0.00  0.00    +0.000 A 
ATOM     24  C   UNL     1      40.784  -2.087  14.412  0.00  0.00    +0.000 A 
ATOM     25  C   UNL     1      40.565  -2.652  13.164  0.00  0.00    +0.000 A 
ATOM     26  C   UNL     1      39.256  -2.869  12.793  0.00  0.00    +0.000 A 
ATOM     27  C   UNL     1      38.199  -2.539  13.621  0.00  0.00    +0.000 A 
ENDBRANCH  20  22
BRANCH  20  28
ATOM     28  C   UNL     1      37.560  -2.045  17.115  0.00  0.00    +0.000 A 
ATOM     29  C   UNL     1      37.157  -1.323  18.203  0.00  0.00    +0.000 A 
ATOM     30  C   UNL     1      37.463  -1.717  19.489  0.00  0.00    +0.000 A 
ATOM     31  C   UNL     1      38.205  -2.881  19.724  0.00  0.00    +0.000 A 
ATOM     32  C   UNL     1      38.588  -3.572  18.615  0.00  0.00    +0.000 A 
ATOM     33  C   UNL     1      38.302  -3.209  17.340  0.00  0.00    +0.000 A 
ENDBRANCH  20  28
ENDBRANCH   2  20
TORSDOF 8
ENDMDL
MODEL 5
REMARK VINA RESULT:      -7.3      4.923      8.485
REMARK  Name = 
REMARK  8 active torsions:
REMARK  status: ('A' for Active; 'I' for Inactive)
REMARK    1  A    between atoms: C_2  and  C_4
REMARK    2  A    between atoms: C_8  and  C_9
REMARK    3  A    between atoms: C_12  and  O_13
REMARK    4  A    between atoms: O_13  and  S_14
REMARK    5  A    between atoms: S_14  and  N_17
REMARK    6  A    between atoms: C_18  and  C_20
REMARK    7  A    between atoms: C_20  and  C_22
REMARK    8  A    between atoms: C_20  and  C_28
REMARK                            x       y       z     vdW  Elec       q    Type
REMARK                         _______ _______ _______ _____ _____    ______ ____
ROOT
ATOM      1  N   UNL     1      39.245  -2.131  14.854  0.00  0.00    +0.000 NA
ATOM      2  C   UNL     1      37.981  -2.784  14.805  0.00  0.00    +0.000 C 
ATOM      3  O   UNL     1      37.618  -3.331  13.719  0.00  0.00    +0.000 OA
ENDROOT
BRANCH   1   4
ATOM      4  S   UNL     1      40.207  -2.121  13.443  0.00  0.00    +0.000 S 
ATOM      5  O   UNL     1      41.157  -0.935  13.540  0.00  0.00    +0.000 OA
ATOM      6  O   UNL     1      41.017  -3.387  13.370  0.00  0.00    +0.000 OA
BRANCH   4   7
ATOM      7  O   UNL     1      39.302  -2.047  12.008  0.00  0.00    +0.000 OA
BRANCH   7  13
ATOM      8  C   UNL     1      40.510  -1.200  10.062  0.00  0.00    +0.000 A 
ATOM      9  C   UNL     1      40.803  -0.192   9.171  0.00  0.00    +0.000 A 
ATOM     10  C   UNL     1      40.203   1.040   9.283  0.00  0.00    +0.000 A 
ATOM     11  C   UNL     1      39.296   1.220  10.324  0.00  0.00    +0.000 A 
ATOM     12  C   UNL     1      39.020   0.192  11.202  0.00  0.00    +0.000 A 
ATOM     13  C   UNL     1      39.617  -1.050  11.099  0.00  0.00    +0.000 A 
BRANCH   8  15
ATOM     14  C   UNL     1      42.652  -2.450  10.266  0.00  0.00    +0.000 C 
ATOM     15  C   UNL     1      41.175  -2.548   9.938  0.00  0.00    +0.000 C 
ATOM     16  C   UNL     1      40.974  -3.146   8.574  0.00  0.00    +0.000 C 
ENDBRANCH   8  15
BRANCH  12  17
ATOM     17  C   UNL     1      38.051   0.380  12.314  0.00  0.00    +0.000 C 
ATOM     18  C   UNL     1      38.563   1.434  13.284  0.00  0.00    +0.000 C 
ATOM     19  C   UNL     1      36.660   0.686  11.810  0.00  0.00    +0.000 C 
ENDBRANCH  12  17
ENDBRANCH   7  13
ENDBRANCH   4   7
ENDBRANCH   1   4
BRANCH   2  20
ATOM     20  C   UNL     1      37.070  -2.856  15.957  0.00  0.00    +0.000 C 
ATOM     21  C   UNL     1      37.852  -3.342  17.190  0.00  0.00    +0.000 C 
BRANCH  20  22
ATOM     22  C   UNL     1      36.385  -1.580  16.264  0.00  0.00    +0.000 A 
ATOM     23  C   UNL     1      36.216  -0.548  15.386  0.00  0.00    +0.000 A 
ATOM     24  C   UNL     1      35.575   0.629  15.708  0.00  0.00    +0.000 A 
ATOM     25  C   UNL     1      35.062   0.816  16.982  0.00  0.00    +0.000 A 
ATOM     26  C   UNL     1      35.223  -0.215  17.882  0.00  0.00    +0.000 A 
ATOM     27  C   UNL     1      35.870  -1.387  17.539  0.00  0.00    +0.000 A 
ENDBRANCH  20  22
BRANCH  20  28
ATOM     28  C   UNL     1      36.018  -3.882  15.691  0.00  0.00    +0.000 A 
ATOM     29  C   UNL     1      36.122  -5.177  16.118  0.00  0.00    +0.000 A 
ATOM     30  C   UNL     1      35.137  -6.107  15.861  0.00  0.00    +0.000 A 
ATOM     31  C   UNL     1      33.986  -5.753  15.147  0.00  0.00    +0.000 A 
ATOM     32  C   UNL     1      33.918  -4.456  14.739  0.00  0.00    +0.000 A 
ATOM     33  C   UNL     1      34.871  -3.519  14.977  0.00  0.00    +0.000 A 
ENDBRANCH  20  28
ENDBRANCH   2  20
TORSDOF 8
ENDMDL
MODEL 6
REMARK VINA RESULT:      -7.2      4.681      8.169
REMARK  Name = 
REMARK  8 active torsions:
REMARK  status: ('A' for Active; 'I' for Inactive)
REMARK    1  A    between atoms: C_2  and  C_4
REMARK    2  A    between atoms: C_8  and  C_9
REMARK    3  A    between atoms: C_12  and  O_13
REMARK    4  A    between atoms: O_13  and  S_14
REMARK    5  A    between atoms: S_14  and  N_17
REMARK    6  A    between atoms: C_18  and  C_20
REMARK    7  A    between atoms: C_20  and  C_22
REMARK    8  A    between atoms: C_20  and  C_28
REMARK                            x       y       z     vdW  Elec       q    Type
REMARK                         _______ _______ _______ _____ _____    ______ ____
ROOT
ATOM      1  N   UNL     1      39.113  -2.197  14.995  0.00  0.00    +0.000 NA
ATOM      2  C   UNL     1      37.912  -2.959  14.940  0.00  0.00    +0.000 C 
ATOM      3  O   UNL     1      37.553  -3.452  13.827  0.00  0.00    +0.000 OA
ENDROOT
BRANCH   1   4
ATOM      4  S   UNL     1      40.007  -1.987  13.556  0.00  0.00    +0.000 S 
ATOM      5  O   UNL     1      41.071  -0.932  13.823  0.00  0.00    +0.000 OA
ATOM      6  O   UNL     1      40.686  -3.278  13.186  0.00  0.00    +0.000 OA
BRANCH   4   7
ATOM      7  O   UNL     1      39.051  -1.549  12.223  0.00  0.00    +0.000 OA
BRANCH   7  13
ATOM      8  C   UNL     1      38.697   0.866  12.187  0.00  0.00    +0.000 A 
ATOM      9  C   UNL     1      38.908   2.106  11.627  0.00  0.00    +0.000 A 
ATOM     10  C   UNL     1      39.691   2.247  10.505  0.00  0.00    +0.000 A 
ATOM     11  C   UNL     1      40.256   1.093   9.969  0.00  0.00    +0.000 A 
ATOM     12  C   UNL     1      40.030  -0.137  10.551  0.00  0.00    +0.000 A 
ATOM     13  C   UNL     1      39.244  -0.290  11.678  0.00  0.00    +0.000 A 
BRANCH   8  15
ATOM     14  C   UNL     1      36.433   1.236  13.150  0.00  0.00    +0.000 C 
ATOM     15  C   UNL     1      37.833   0.717  13.414  0.00  0.00    +0.000 C 
ATOM     16  C   UNL     1      38.436   1.403  14.608  0.00  0.00    +0.000 C 
ENDBRANCH   8  15
BRANCH  12  17
ATOM     17  C   UNL     1      40.632  -1.372   9.982  0.00  0.00    +0.000 C 
ATOM     18  C   UNL     1      40.378  -1.437   8.484  0.00  0.00    +0.000 C 
ATOM     19  C   UNL     1      42.097  -1.499  10.326  0.00  0.00    +0.000 C 
ENDBRANCH  12  17
ENDBRANCH   7  13
ENDBRANCH   4   7
ENDBRANCH   1   4
BRANCH   2  20
ATOM     20  C   UNL     1      37.062  -3.205  16.114  0.00  0.00    +0.000 C 
ATOM     21  C   UNL     1      37.866  -3.992  17.164  0.00  0.00    +0.000 C 
BRANCH  20  22
ATOM     22  C   UNL     1      36.504  -1.976  16.723  0.00  0.00    +0.000 A 
ATOM     23  C   UNL     1      35.917  -0.954  16.033  0.00  0.00    +0.000 A 
ATOM     24  C   UNL     1      35.411   0.178  16.632  0.00  0.00    +0.000 A 
ATOM     25  C   UNL     1      35.485   0.329  18.008  0.00  0.00    +0.000 A 
ATOM     26  C   UNL     1      36.075  -0.691  18.722  0.00  0.00    +0.000 A 
ATOM     27  C   UNL     1      36.578  -1.819  18.101  0.00  0.00    +0.000 A 
ENDBRANCH  20  22
BRANCH  20  28
ATOM     28  C   UNL     1      35.914  -4.076  15.720  0.00  0.00    +0.000 A 
ATOM     29  C   UNL     1      34.842  -3.610  15.011  0.00  0.00    +0.000 A 
ATOM     30  C   UNL     1      33.794  -4.433  14.658  0.00  0.00    +0.000 A 
ATOM     31  C   UNL     1      33.792  -5.786  15.018  0.00  0.00    +0.000 A 
ATOM     32  C   UNL     1      34.876  -6.212  15.723  0.00  0.00    +0.000 A 
ATOM     33  C   UNL     1      35.922  -5.426  16.084  0.00  0.00    +0.000 A 
ENDBRANCH  20  28
ENDBRANCH   2  20
TORSDOF 8
ENDMDL
MODEL 7
REMARK VINA RESULT:      -7.2      3.433      7.643
REMARK  Name = 
REMARK  8 active torsions:
REMARK  status: ('A' for Active; 'I' for Inactive)
REMARK    1  A    between atoms: C_2  and  C_4
REMARK    2  A    between atoms: C_8  and  C_9
REMARK    3  A    between atoms: C_12  and  O_13
REMARK    4  A    between atoms: O_13  and  S_14
REMARK    5  A    between atoms: S_14  and  N_17
REMARK    6  A    between atoms: C_18  and  C_20
REMARK    7  A    between atoms: C_20  and  C_22
REMARK    8  A    between atoms: C_20  and  C_28
REMARK                            x       y       z     vdW  Elec       q    Type
REMARK                         _______ _______ _______ _____ _____    ______ ____
ROOT
ATOM      1  N   UNL     1      39.440  -1.205  14.130  0.00  0.00    +0.000 NA
ATOM      2  C   UNL     1      39.677  -2.153  13.095  0.00  0.00    +0.000 C 
ATOM      3  O   UNL     1      38.825  -3.073  12.903  0.00  0.00    +0.000 OA
ENDROOT
BRANCH   1   4
ATOM      4  S   UNL     1      38.016  -1.358  15.059  0.00  0.00    +0.000 S 
ATOM      5  O   UNL     1      36.832  -1.276  14.106  0.00  0.00    +0.000 OA
ATOM      6  O   UNL     1      37.996  -2.697  15.744  0.00  0.00    +0.000 OA
BRANCH   4   7
ATOM      7  O   UNL     1      37.879  -0.191  16.285  0.00  0.00    +0.000 OA
BRANCH   7  13
ATOM      8  C   UNL     1      36.985   1.905  15.408  0.00  0.00    +0.000 A 
ATOM      9  C   UNL     1      35.972   2.831  15.300  0.00  0.00    +0.000 A 
ATOM     10  C   UNL     1      34.779   2.647  15.959  0.00  0.00    +0.000 A 
ATOM     11  C   UNL     1      34.643   1.495  16.730  0.00  0.00    +0.000 A 
ATOM     12  C   UNL     1      35.674   0.583  16.819  0.00  0.00    +0.000 A 
ATOM     13  C   UNL     1      36.877   0.758  16.161  0.00  0.00    +0.000 A 
BRANCH   8  15
ATOM     14  C   UNL     1      38.955   3.402  15.140  0.00  0.00    +0.000 C 
ATOM     15  C   UNL     1      38.293   2.115  14.687  0.00  0.00    +0.000 C 
ATOM     16  C   UNL     1      38.115   2.107  13.195  0.00  0.00    +0.000 C 
ENDBRANCH   8  15
BRANCH  12  17
ATOM     17  C   UNL     1      35.533  -0.649  17.640  0.00  0.00    +0.000 C 
ATOM     18  C   UNL     1      35.572  -0.301  19.120  0.00  0.00    +0.000 C 
ATOM     19  C   UNL     1      34.303  -1.442  17.266  0.00  0.00    +0.000 C 
ENDBRANCH  12  17
ENDBRANCH   7  13
ENDBRANCH   4   7
ENDBRANCH   1   4
BRANCH   2  20
ATOM     20  C   UNL     1      40.867  -2.120  12.232  0.00  0.00    +0.000 C 
ATOM     21  C   UNL     1      41.363  -3.558  11.998  0.00  0.00    +0.000 C 
BRANCH  20  22
ATOM     22  C   UNL     1      40.652  -1.443  10.933  0.00  0.00    +0.000 A 
ATOM     23  C   UNL     1      39.742  -0.450  10.706  0.00  0.00    +0.000 A 
ATOM     24  C   UNL     1      39.565   0.157   9.482  0.00  0.00    +0.000 A 
ATOM     25  C   UNL     1      40.332  -0.235   8.395  0.00  0.00    +0.000 A 
ATOM     26  C   UNL     1      41.255  -1.236   8.604  0.00  0.00    +0.000 A 
ATOM     27  C   UNL     1      41.416  -1.832   9.841  0.00  0.00    +0.000 A 
ENDBRANCH  20  22
BRANCH  20  28
ATOM     28  C   UNL     1      41.970  -1.402  12.939  0.00  0.00    +0.000 A 
ATOM     29  C   UNL     1      42.732  -1.990  13.911  0.00  0.00    +0.000 A 
ATOM     30  C   UNL     1      43.746  -1.307  14.549  0.00  0.00    +0.000 A 
ATOM     31  C   UNL     1      44.031   0.024  14.222  0.00  0.00    +0.000 A 
ATOM     32  C   UNL     1      43.250   0.574  13.251  0.00  0.00    +0.000 A 
ATOM     33  C   UNL     1      42.247  -0.072  12.605  0.00  0.00    +0.000 A 
ENDBRANCH  20  28
ENDBRANCH   2  20
TORSDOF 8
ENDMDL
MODEL 8
REMARK VINA RESULT:      -7.1      4.375      6.515
REMARK  Name = 
REMARK  8 active torsions:
REMARK  status: ('A' for Active; 'I' for Inactive)
REMARK    1  A    between atoms: C_2  and  C_4
REMARK    2  A    between atoms: C_8  and  C_9
REMARK    3  A    between atoms: C_12  and  O_13
REMARK    4  A    between atoms: O_13  and  S_14
REMARK    5  A    between atoms: S_14  and  N_17
REMARK    6  A    between atoms: C_18  and  C_20
REMARK    7  A    between atoms: C_20  and  C_22
REMARK    8  A    between atoms: C_20  and  C_28
REMARK                            x       y       z     vdW  Elec       q    Type
REMARK                         _______ _______ _______ _____ _____    ______ ____
ROOT
ATOM      1  N   UNL     1      38.348   1.251  13.733  0.00  0.00    +0.000 NA
ATOM      2  C   UNL     1      38.261   0.667  12.437  0.00  0.00    +0.000 C 
ATOM      3  O   UNL     1      37.255  -0.053  12.159  0.00  0.00    +0.000 OA
ENDROOT
BRANCH   1   4
ATOM      4  S   UNL     1      37.088   0.948  14.845  0.00  0.00    +0.000 S 
ATOM      5  O   UNL     1      37.500   1.545  16.183  0.00  0.00    +0.000 OA
ATOM      6  O   UNL     1      35.826   1.623  14.380  0.00  0.00    +0.000 OA
BRANCH   4   7
ATOM      7  O   UNL     1      36.716  -0.700  15.014  0.00  0.00    +0.000 OA
BRANCH   7  13
ATOM      8  C   UNL     1      36.791  -1.412  17.347  0.00  0.00    +0.000 A 
ATOM      9  C   UNL     1      37.388  -2.105  18.377  0.00  0.00    +0.000 A 
ATOM     10  C   UNL     1      38.547  -2.816  18.167  0.00  0.00    +0.000 A 
ATOM     11  C   UNL     1      39.082  -2.805  16.881  0.00  0.00    +0.000 A 
ATOM     12  C   UNL     1      38.462  -2.103  15.867  0.00  0.00    +0.000 A 
ATOM     13  C   UNL     1      37.298  -1.386  16.068  0.00  0.00    +0.000 A 
BRANCH   8  15
ATOM     14  C   UNL     1      35.540   0.013  18.958  0.00  0.00    +0.000 C 
ATOM     15  C   UNL     1      35.524  -0.630  17.586  0.00  0.00    +0.000 C 
ATOM     16  C   UNL     1      34.300  -1.486  17.416  0.00  0.00    +0.000 C 
ENDBRANCH   8  15
BRANCH  12  17
ATOM     17  C   UNL     1      39.029  -2.090  14.493  0.00  0.00    +0.000 C 
ATOM     18  C   UNL     1      40.543  -2.229  14.548  0.00  0.00    +0.000 C 
ATOM     19  C   UNL     1      38.386  -3.128  13.604  0.00  0.00    +0.000 C 
ENDBRANCH  12  17
ENDBRANCH   7  13
ENDBRANCH   4   7
ENDBRANCH   1   4
BRANCH   2  20
ATOM     20  C   UNL     1      39.285   0.859  11.400  0.00  0.00    +0.000 C 
ATOM     21  C   UNL     1      40.057   2.159  11.685  0.00  0.00    +0.000 C 
BRANCH  20  22
ATOM     22  C   UNL     1      40.232  -0.272  11.271  0.00  0.00    +0.000 A 
ATOM     23  C   UNL     1      41.567  -0.216  11.554  0.00  0.00    +0.000 A 
ATOM     24  C   UNL     1      42.421  -1.288  11.419  0.00  0.00    +0.000 A 
ATOM     25  C   UNL     1      41.939  -2.509  10.973  0.00  0.00    +0.000 A 
ATOM     26  C   UNL     1      40.595  -2.586  10.682  0.00  0.00    +0.000 A 
ATOM     27  C   UNL     1      39.755  -1.497  10.823  0.00  0.00    +0.000 A 
ENDBRANCH  20  22
BRANCH  20  28
ATOM     28  C   UNL     1      38.619   1.043  10.076  0.00  0.00    +0.000 A 
ATOM     29  C   UNL     1      37.340   1.507   9.950  0.00  0.00    +0.000 A 
ATOM     30  C   UNL     1      36.746   1.671   8.716  0.00  0.00    +0.000 A 
ATOM     31  C   UNL     1      37.440   1.363   7.540  0.00  0.00    +0.000 A 
ATOM     32  C   UNL     1      38.711   0.903   7.706  0.00  0.00    +0.000 A 
ATOM     33  C   UNL     1      39.321   0.732   8.906  0.00  0.00    +0.000 A 
ENDBRANCH  20  28
ENDBRANCH   2  20
TORSDOF 8
ENDMDL
MODEL 9
REMARK VINA RESULT:      -7.0      1.533      2.049
REMARK  Name = 
REMARK  8 active torsions:
REMARK  status: ('A' for Active; 'I' for Inactive)
REMARK    1  A    between atoms: C_2  and  C_4
REMARK    2  A    between atoms: C_8  and  C_9
REMARK    3  A    between atoms: C_12  and  O_13
REMARK    4  A    between atoms: O_13  and  S_14
REMARK    5  A    between atoms: S_14  and  N_17
REMARK    6  A    between atoms: C_18  and  C_20
REMARK    7  A    between atoms: C_20  and  C_22
REMARK    8  A    between atoms: C_20  and  C_28
REMARK                            x       y       z     vdW  Elec       q    Type
REMARK                         _______ _______ _______ _____ _____    ______ ____
ROOT
ATOM      1  N   UNL     1      37.785   2.426  15.709  0.00  0.00    +0.000 NA
ATOM      2  C   UNL     1      36.990   3.580  15.459  0.00  0.00    +0.000 C 
ATOM      3  O   UNL     1      35.730   3.450  15.386  0.00  0.00    +0.000 OA
ENDROOT
BRANCH   1   4
ATOM      4  S   UNL     1      36.994   0.923  15.898  0.00  0.00    +0.000 S 
ATOM      5  O   UNL     1      36.072   1.035  17.103  0.00  0.00    +0.000 OA
ATOM      6  O   UNL     1      36.165   0.627  14.678  0.00  0.00    +0.000 OA
BRANCH   4   7
ATOM      7  O   UNL     1      38.062  -0.385  16.081  0.00  0.00    +0.000 OA
BRANCH   7  13
ATOM      8  C   UNL     1      37.495  -2.472  14.949  0.00  0.00    +0.000 A 
ATOM      9  C   UNL     1      37.622  -3.339  13.887  0.00  0.00    +0.000 A 
ATOM     10  C   UNL     1      38.455  -3.044  12.834  0.00  0.00    +0.000 A 
ATOM     11  C   UNL     1      39.155  -1.841  12.888  0.00  0.00    +0.000 A 
ATOM     12  C   UNL     1      39.008  -0.989  13.962  0.00  0.00    +0.000 A 
ATOM     13  C   UNL     1      38.173  -1.277  15.026  0.00  0.00    +0.000 A 
BRANCH   8  15
ATOM     14  C   UNL     1      36.773  -4.244  16.540  0.00  0.00    +0.000 C 
ATOM     15  C   UNL     1      36.584  -2.804  16.104  0.00  0.00    +0.000 C 
ATOM     16  C   UNL     1      35.142  -2.536  15.772  0.00  0.00    +0.000 C 
ENDBRANCH   8  15
BRANCH  12  17
ATOM     17  C   UNL     1      39.752   0.296  14.023  0.00  0.00    +0.000 C 
ATOM     18  C   UNL     1      41.243   0.033  14.173  0.00  0.00    +0.000 C 
ATOM     19  C   UNL     1      39.439   1.190  12.847  0.00  0.00    +0.000 C 
ENDBRANCH  12  17
ENDBRANCH   7  13
ENDBRANCH   4   7
ENDBRANCH   1   4
BRANCH   2  20
ATOM     20  C   UNL     1      37.560   4.923  15.280  0.00  0.00    +0.000 C 
ATOM     21  C   UNL     1      36.484   5.856  14.696  0.00  0.00    +0.000 C 
BRANCH  20  22
ATOM     22  C   UNL     1      38.119   5.511  16.519  0.00  0.00    +0.000 A 
ATOM     23  C   UNL     1      38.575   4.798  17.591  0.00  0.00    +0.000 A 
ATOM     24  C   UNL     1      39.086   5.378  18.731  0.00  0.00    +0.000 A 
ATOM     25  C   UNL     1      39.156   6.759  18.837  0.00  0.00    +0.000 A 
ATOM     26  C   UNL     1      38.700   7.496  17.766  0.00  0.00    +0.000 A 
ATOM     27  C   UNL     1      38.190   6.893  16.631  0.00  0.00    +0.000 A 
ENDBRANCH  20  22
BRANCH  20  28
ATOM     28  C   UNL     1      38.661   4.863  14.272  0.00  0.00    +0.000 A 
ATOM     29  C   UNL     1      39.979   4.763  14.621  0.00  0.00    +0.000 A 
ATOM     30  C   UNL     1      40.978   4.708  13.672  0.00  0.00    +0.000 A 
ATOM     31  C   UNL     1      40.673   4.754  12.306  0.00  0.00    +0.000 A 
ATOM     32  C   UNL     1      39.350   4.855  11.999  0.00  0.00    +0.000 A 
ATOM     33  C   UNL     1      38.346   4.911  12.910  0.00  0.00    +0.000 A 
ENDBRANCH  20  28
ENDBRANCH   2  20
TORSDOF 8
ENDMDL
MODEL 10
REMARK VINA RESULT:      -7.0      4.098      6.474
REMARK  Name = 
REMARK  8 active torsions:
REMARK  status: ('A' for Active; 'I' for Inactive)
REMARK    1  A    between atoms: C_2  and  C_4
REMARK    2  A    between atoms: C_8  and  C_9
REMARK    3  A    between atoms: C_12  and  O_13
REMARK    4  A    between atoms: O_13  and  S_14
REMARK    5  A    between atoms: S_14  and  N_17
REMARK    6  A    between atoms: C_18  and  C_20
REMARK    7  A    between atoms: C_20  and  C_22
REMARK    8  A    between atoms: C_20  and  C_28
REMARK                            x       y       z     vdW  Elec       q    Type
REMARK                         _______ _______ _______ _____ _____    ______ ____
ROOT
ATOM      1  N   UNL     1      38.976   0.913  13.252  0.00  0.00    +0.000 NA
ATOM      2  C   UNL     1      40.286   0.615  13.724  0.00  0.00    +0.000 C 
ATOM      3  O   UNL     1      40.468   0.479  14.972  0.00  0.00    +0.000 OA
ENDROOT
BRANCH   1   4
ATOM      4  S   UNL     1      37.718   1.069  14.395  0.00  0.00    +0.000 S 
ATOM      5  O   UNL     1      37.679   2.523  14.843  0.00  0.00    +0.000 OA
ATOM      6  O   UNL     1      36.402   0.724  13.754  0.00  0.00    +0.000 OA
BRANCH   4   7
ATOM      7  O   UNL     1      37.886   0.036  15.732  0.00  0.00    +0.000 OA
BRANCH   7  13
ATOM      8  C   UNL     1      36.902  -2.165  15.347  0.00  0.00    +0.000 A 
ATOM      9  C   UNL     1      35.914  -3.098  15.567  0.00  0.00    +0.000 A 
ATOM     10  C   UNL     1      34.857  -2.819  16.402  0.00  0.00    +0.000 A 
ATOM     11  C   UNL     1      34.833  -1.565  17.008  0.00  0.00    +0.000 A 
ATOM     12  C   UNL     1      35.837  -0.650  16.771  0.00  0.00    +0.000 A 
ATOM     13  C   UNL     1      36.903  -0.920  15.934  0.00  0.00    +0.000 A 
BRANCH   8  15
ATOM     14  C   UNL     1      37.670  -3.545  13.424  0.00  0.00    +0.000 C 
ATOM     15  C   UNL     1      38.056  -2.475  14.426  0.00  0.00    +0.000 C 
ATOM     16  C   UNL     1      39.285  -2.883  15.189  0.00  0.00    +0.000 C 
ENDBRANCH   8  15
BRANCH  12  17
ATOM     17  C   UNL     1      35.816   0.689  17.418  0.00  0.00    +0.000 C 
ATOM     18  C   UNL     1      34.701   1.539  16.828  0.00  0.00    +0.000 C 
ATOM     19  C   UNL     1      35.733   0.591  18.922  0.00  0.00    +0.000 C 
ENDBRANCH  12  17
ENDBRANCH   7  13
ENDBRANCH   4   7
ENDBRANCH   1   4
BRANCH   2  20
ATOM     20  C   UNL     1      41.444   0.457  12.833  0.00  0.00    +0.000 C 
ATOM     21  C   UNL     1      41.786   1.819  12.202  0.00  0.00    +0.000 C 
BRANCH  20  22
ATOM     22  C   UNL     1      42.642  -0.107  13.495  0.00  0.00    +0.000 A 
ATOM     23  C   UNL     1      42.696  -1.319  14.122  0.00  0.00    +0.000 A 
ATOM     24  C   UNL     1      43.828  -1.812  14.733  0.00  0.00    +0.000 A 
ATOM     25  C   UNL     1      44.998  -1.067  14.735  0.00  0.00    +0.000 A 
ATOM     26  C   UNL     1      44.963   0.159  14.108  0.00  0.00    +0.000 A 
ATOM     27  C   UNL     1      43.816   0.636  13.502  0.00  0.00    +0.000 A 
ENDBRANCH  20  22
BRANCH  20  28
ATOM     28  C   UNL     1      41.080  -0.452  11.705  0.00  0.00    +0.000 A 
ATOM     29  C   UNL     1      41.208  -0.091  10.393  0.00  0.00    +0.000 A 
ATOM     30  C   UNL     1      40.867  -0.948   9.369  0.00  0.00    +0.000 A 
ATOM     31  C   UNL     1      40.372  -2.230   9.641  0.00  0.00    +0.000 A 
ATOM     32  C   UNL     1      40.258  -2.552  10.959  0.00  0.00    +0.000 A 
ATOM     33  C   UNL     1      40.587  -1.730  11.988  0.00  0.00    +0.000 A 
ENDBRANCH  20  28
ENDBRANCH   2  20
TORSDOF 8
ENDMDL
