MODEL 1
REMARK VINA RESULT:      -8.2      0.000      0.000
REMARK  Name = 
REMARK  6 active torsions:
REMARK  status: ('A' for Active; 'I' for Inactive)
REMARK    1  A    between atoms: C_2  and  C_4
REMARK    2  A    between atoms: C_4  and  C_5
REMARK    3  A    between atoms: C_5  and  N_6
REMARK    4  A    between atoms: C_7  and  C_9
REMARK    5  A    between atoms: N_15  and  C_16
REMARK    6  A    between atoms: C_16  and  C_17
REMARK                            x       y       z     vdW  Elec       q    Type
REMARK                         _______ _______ _______ _____ _____    ______ ____
ROOT
ATOM      1  C   UNL     1      36.728   2.068  16.071  0.00  0.00    +0.000 A 
ATOM      2  C   UNL     1      35.446   2.094  16.599  0.00  0.00    +0.000 A 
ATOM      3  C   UNL     1      34.732   0.969  16.944  0.00  0.00    +0.000 A 
ATOM      4  C   UNL     1      35.338  -0.267  16.748  0.00  0.00    +0.000 A 
ATOM      5  C   UNL     1      36.611  -0.361  16.227  0.00  0.00    +0.000 A 
ATOM      6  C   UNL     1      37.288   0.822  15.895  0.00  0.00    +0.000 A 
ATOM      7  N   UNL     1      37.397  -1.514  15.951  0.00  0.00    +0.000 N 
ATOM      8  C   UNL     1      37.008  -2.841  15.643  0.00  0.00    +0.000 C 
ATOM      9  O   UNL     1      37.914  -3.696  15.435  0.00  0.00    +0.000 OA
ATOM     10  C   UNL     1      35.659  -3.424  15.516  0.00  0.00    +0.000 A 
ATOM     11  C   UNL     1      35.600  -4.516  14.688  0.00  0.00    +0.000 A 
ATOM     12  C   UNL     1      34.396  -5.151  14.483  0.00  0.00    +0.000 A 
ATOM     13  C   UNL     1      33.248  -4.733  15.079  0.00  0.00    +0.000 A 
ATOM     14  C   UNL     1      33.326  -3.618  15.921  0.00  0.00    +0.000 A 
ATOM     15  C   UNL     1      34.528  -2.974  16.132  0.00  0.00    +0.000 A 
ATOM     16  S   UNL     1      34.273  -1.610  17.251  0.00  0.00    +0.000 S 
ENDROOT
BRANCH   1  18
ATOM     17  N   UNL     1      38.321   3.941  16.610  0.00  0.00    +0.000 NA
ATOM     18  C   UNL     1      37.436   3.298  15.724  0.00  0.00    +0.000 C 
ATOM     19  O   UNL     1      37.231   3.778  14.582  0.00  0.00    +0.000 OA
BRANCH  17  20
ATOM     20  C   UNL     1      39.036   5.161  16.288  0.00  0.00    +0.000 C 
BRANCH  20  21
ATOM     21  C   UNL     1      39.996   5.567  17.380  0.00  0.00    +0.000 C 
BRANCH  21  23
ATOM     22  C   UNL     1      38.254   7.033  18.420  0.00  0.00    +0.000 C 
ATOM     23  C   UNL     1      39.219   5.894  18.660  0.00  0.00    +0.000 C 
ATOM     24  C   UNL     1      40.161   6.324  19.769  0.00  0.00    +0.000 C 
ENDBRANCH  21  23
ENDBRANCH  20  21
ENDBRANCH  17  20
ENDBRANCH   1  18
BRANCH   7  25
ATOM     25  C   UNL     1      38.824  -1.302  15.987  0.00  0.00    +0.000 C 
BRANCH  25  26
ATOM     26  C   UNL     1      39.483  -1.451  14.691  0.00  0.00    +0.000 A 
ATOM     27  C   UNL     1      38.955  -1.014  13.494  0.00  0.00    +0.000 A 
ATOM     28  C   UNL     1      39.586  -1.162  12.285  0.00  0.00    +0.000 A 
ATOM     29  C   UNL     1      40.808  -1.774  12.239  0.00  0.00    +0.000 A 
ATOM     30  C   UNL     1      41.368  -2.223  13.400  0.00  0.00    +0.000 A 
ATOM     31  C   UNL     1      40.720  -2.069  14.628  0.00  0.00    +0.000 A 
ENDBRANCH  25  26
ENDBRANCH   7  25
TORSDOF 6
ENDMDL
MODEL 2
REMARK VINA RESULT:      -8.1      3.646      9.669
REMARK  Name = 
REMARK  6 active torsions:
REMARK  status: ('A' for Active; 'I' for Inactive)
REMARK    1  A    between atoms: C_2  and  C_4
REMARK    2  A    between atoms: C_4  and  C_5
REMARK    3  A    between atoms: C_5  and  N_6
REMARK    4  A    between atoms: C_7  and  C_9
REMARK    5  A    between atoms: N_15  and  C_16
REMARK    6  A    between atoms: C_16  and  C_17
REMARK                            x       y       z     vdW  Elec       q    Type
REMARK                         _______ _______ _______ _____ _____    ______ ____
ROOT
ATOM      1  C   UNL     1      38.119   3.748  15.352  0.00  0.00    +0.000 A 
ATOM      2  C   UNL     1      38.029   4.388  14.126  0.00  0.00    +0.000 A 
ATOM      3  C   UNL     1      38.027   5.756  13.969  0.00  0.00    +0.000 A 
ATOM      4  C   UNL     1      38.121   6.539  15.114  0.00  0.00    +0.000 A 
ATOM      5  C   UNL     1      38.214   5.964  16.364  0.00  0.00    +0.000 A 
ATOM      6  C   UNL     1      38.211   4.564  16.459  0.00  0.00    +0.000 A 
ATOM      7  N   UNL     1      38.314   6.579  17.642  0.00  0.00    +0.000 N 
ATOM      8  C   UNL     1      37.870   7.847  18.091  0.00  0.00    +0.000 C 
ATOM      9  O   UNL     1      38.084   8.163  19.295  0.00  0.00    +0.000 OA
ATOM     10  C   UNL     1      37.164   8.914  17.356  0.00  0.00    +0.000 A 
ATOM     11  C   UNL     1      36.397   9.725  18.153  0.00  0.00    +0.000 A 
ATOM     12  C   UNL     1      35.685  10.759  17.589  0.00  0.00    +0.000 A 
ATOM     13  C   UNL     1      35.713  11.012  16.253  0.00  0.00    +0.000 A 
ATOM     14  C   UNL     1      36.502  10.175  15.455  0.00  0.00    +0.000 A 
ATOM     15  C   UNL     1      37.219   9.135  16.011  0.00  0.00    +0.000 A 
ATOM     16  S   UNL     1      38.108   8.282  14.723  0.00  0.00    +0.000 S 
ENDROOT
BRANCH   1  18
ATOM     17  N   UNL     1      37.028   1.569  15.981  0.00  0.00    +0.000 NA
ATOM     18  C   UNL     1      38.116   2.291  15.456  0.00  0.00    +0.000 C 
ATOM     19  O   UNL     1      39.137   1.683  15.052  0.00  0.00    +0.000 OA
BRANCH  17  20
ATOM     20  C   UNL     1      37.002   0.123  16.093  0.00  0.00    +0.000 C 
BRANCH  20  21
ATOM     21  C   UNL     1      35.605  -0.436  15.956  0.00  0.00    +0.000 C 
BRANCH  21  23
ATOM     22  C   UNL     1      35.954  -0.706  18.419  0.00  0.00    +0.000 C 
ATOM     23  C   UNL     1      34.929  -0.489  17.330  0.00  0.00    +0.000 C 
ATOM     24  C   UNL     1      33.941  -1.638  17.402  0.00  0.00    +0.000 C 
ENDBRANCH  21  23
ENDBRANCH  20  21
ENDBRANCH  17  20
ENDBRANCH   1  18
BRANCH   7  25
ATOM     25  C   UNL     1      38.975   5.785  18.651  0.00  0.00    +0.000 C 
BRANCH  25  26
ATOM     26  C   UNL     1      40.384   6.120  18.845  0.00  0.00    +0.000 A 
ATOM     27  C   UNL     1      41.285   6.326  17.820  0.00  0.00    +0.000 A 
ATOM     28  C   UNL     1      42.605   6.640  18.021  0.00  0.00    +0.000 A 
ATOM     29  C   UNL     1      43.078   6.760  19.298  0.00  0.00    +0.000 A 
ATOM     30  C   UNL     1      42.222   6.564  20.343  0.00  0.00    +0.000 A 
ATOM     31  C   UNL     1      40.878   6.245  20.132  0.00  0.00    +0.000 A 
ENDBRANCH  25  26
ENDBRANCH   7  25
TORSDOF 6
ENDMDL
MODEL 3
REMARK VINA RESULT:      -7.9      3.334      7.236
REMARK  Name = 
REMARK  6 active torsions:
REMARK  status: ('A' for Active; 'I' for Inactive)
REMARK    1  A    between atoms: C_2  and  C_4
REMARK    2  A    between atoms: C_4  and  C_5
REMARK    3  A    between atoms: C_5  and  N_6
REMARK    4  A    between atoms: C_7  and  C_9
REMARK    5  A    between atoms: N_15  and  C_16
REMARK    6  A    between atoms: C_16  and  C_17
REMARK                            x       y       z     vdW  Elec       q    Type
REMARK                         _______ _______ _______ _____ _____    ______ ____
ROOT
ATOM      1  C   UNL     1      39.738  -2.077  15.222  0.00  0.00    +0.000 A 
ATOM      2  C   UNL     1      40.467  -2.868  14.346  0.00  0.00    +0.000 A 
ATOM      3  C   UNL     1      40.893  -2.451  13.105  0.00  0.00    +0.000 A 
ATOM      4  C   UNL     1      40.570  -1.158  12.710  0.00  0.00    +0.000 A 
ATOM      5  C   UNL     1      39.847  -0.322  13.535  0.00  0.00    +0.000 A 
ATOM      6  C   UNL     1      39.441  -0.804  14.788  0.00  0.00    +0.000 A 
ATOM      7  N   UNL     1      39.418   1.017  13.320  0.00  0.00    +0.000 N 
ATOM      8  C   UNL     1      39.142   1.714  12.118  0.00  0.00    +0.000 C 
ATOM      9  O   UNL     1      38.768   2.917  12.197  0.00  0.00    +0.000 OA
ATOM     10  C   UNL     1      39.220   1.250  10.719  0.00  0.00    +0.000 A 
ATOM     11  C   UNL     1      38.384   1.921   9.863  0.00  0.00    +0.000 A 
ATOM     12  C   UNL     1      38.361   1.582   8.530  0.00  0.00    +0.000 A 
ATOM     13  C   UNL     1      39.145   0.595   8.020  0.00  0.00    +0.000 A 
ATOM     14  C   UNL     1      39.992  -0.078   8.908  0.00  0.00    +0.000 A 
ATOM     15  C   UNL     1      40.023   0.254  10.247  0.00  0.00    +0.000 A 
ATOM     16  S   UNL     1      41.204  -0.789  11.082  0.00  0.00    +0.000 S 
ENDROOT
BRANCH   1  18
ATOM     17  N   UNL     1      38.604  -1.782  17.450  0.00  0.00    +0.000 NA
ATOM     18  C   UNL     1      39.313  -2.576  16.528  0.00  0.00    +0.000 C 
ATOM     19  O   UNL     1      39.603  -3.763  16.813  0.00  0.00    +0.000 OA
BRANCH  17  20
ATOM     20  C   UNL     1      38.172  -2.254  18.751  0.00  0.00    +0.000 C 
BRANCH  20  21
ATOM     21  C   UNL     1      36.764  -1.818  19.079  0.00  0.00    +0.000 C 
BRANCH  21  23
ATOM     22  C   UNL     1      36.143   0.578  18.704  0.00  0.00    +0.000 C 
ATOM     23  C   UNL     1      36.290  -0.780  18.056  0.00  0.00    +0.000 C 
ATOM     24  C   UNL     1      34.935  -1.160  17.489  0.00  0.00    +0.000 C 
ENDBRANCH  21  23
ENDBRANCH  20  21
ENDBRANCH  17  20
ENDBRANCH   1  18
BRANCH   7  25
ATOM     25  C   UNL     1      39.228   1.797  14.520  0.00  0.00    +0.000 C 
BRANCH  25  26
ATOM     26  C   UNL     1      37.827   1.996  14.887  0.00  0.00    +0.000 A 
ATOM     27  C   UNL     1      36.794   1.172  14.492  0.00  0.00    +0.000 A 
ATOM     28  C   UNL     1      35.484   1.374  14.846  0.00  0.00    +0.000 A 
ATOM     29  C   UNL     1      35.160   2.445  15.632  0.00  0.00    +0.000 A 
ATOM     30  C   UNL     1      36.151   3.287  16.045  0.00  0.00    +0.000 A 
ATOM     31  C   UNL     1      37.484   3.076  15.682  0.00  0.00    +0.000 A 
ENDBRANCH  25  26
ENDBRANCH   7  25
TORSDOF 6
ENDMDL
MODEL 4
REMARK VINA RESULT:      -7.7      4.061      9.739
REMARK  Name = 
REMARK  6 active torsions:
REMARK  status: ('A' for Active; 'I' for Inactive)
REMARK    1  A    between atoms: C_2  and  C_4
REMARK    2  A    between atoms: C_4  and  C_5
REMARK    3  A    between atoms: C_5  and  N_6
REMARK    4  A    between atoms: C_7  and  C_9
REMARK    5  A    between atoms: N_15  and  C_16
REMARK    6  A    between atoms: C_16  and  C_17
REMARK                            x       y       z     vdW  Elec       q    Type
REMARK                         _______ _______ _______ _____ _____    ______ ____
ROOT
ATOM      1  C   UNL     1      38.413   3.768  15.199  0.00  0.00    +0.000 A 
ATOM      2  C   UNL     1      38.353   4.459  13.999  0.00  0.00    +0.000 A 
ATOM      3  C   UNL     1      38.307   5.832  13.902  0.00  0.00    +0.000 A 
ATOM      4  C   UNL     1      38.320   6.565  15.084  0.00  0.00    +0.000 A 
ATOM      5  C   UNL     1      38.379   5.937  16.310  0.00  0.00    +0.000 A 
ATOM      6  C   UNL     1      38.424   4.535  16.344  0.00  0.00    +0.000 A 
ATOM      7  N   UNL     1      38.399   6.496  17.617  0.00  0.00    +0.000 N 
ATOM      8  C   UNL     1      37.887   7.726  18.100  0.00  0.00    +0.000 C 
ATOM      9  O   UNL     1      38.036   7.995  19.325  0.00  0.00    +0.000 OA
ATOM     10  C   UNL     1      37.175   8.799  17.381  0.00  0.00    +0.000 A 
ATOM     11  C   UNL     1      36.343   9.546  18.177  0.00  0.00    +0.000 A 
ATOM     12  C   UNL     1      35.619  10.578  17.626  0.00  0.00    +0.000 A 
ATOM     13  C   UNL     1      35.696  10.892  16.306  0.00  0.00    +0.000 A 
ATOM     14  C   UNL     1      36.551  10.121  15.508  0.00  0.00    +0.000 A 
ATOM     15  C   UNL     1      37.281   9.083  16.051  0.00  0.00    +0.000 A 
ATOM     16  S   UNL     1      38.258   8.322  14.770  0.00  0.00    +0.000 S 
ENDROOT
BRANCH   1  18
ATOM     17  N   UNL     1      39.537   1.568  14.713  0.00  0.00    +0.000 NA
ATOM     18  C   UNL     1      38.460   2.308  15.238  0.00  0.00    +0.000 C 
ATOM     19  O   UNL     1      37.490   1.715  15.769  0.00  0.00    +0.000 OA
BRANCH  17  20
ATOM     20  C   UNL     1      39.606   0.120  14.741  0.00  0.00    +0.000 C 
BRANCH  20  21
ATOM     21  C   UNL     1      40.506  -0.430  13.659  0.00  0.00    +0.000 C 
BRANCH  21  23
ATOM     22  C   UNL     1      40.261  -2.334  15.265  0.00  0.00    +0.000 C 
ATOM     23  C   UNL     1      41.023  -1.814  14.068  0.00  0.00    +0.000 C 
ATOM     24  C   UNL     1      42.488  -1.750  14.455  0.00  0.00    +0.000 C 
ENDBRANCH  21  23
ENDBRANCH  20  21
ENDBRANCH  17  20
ENDBRANCH   1  18
BRANCH   7  25
ATOM     25  C   UNL     1      39.043   5.682  18.620  0.00  0.00    +0.000 C 
BRANCH  25  26
ATOM     26  C   UNL     1      40.418   6.080  18.919  0.00  0.00    +0.000 A 
ATOM     27  C   UNL     1      40.919   6.251  20.192  0.00  0.00    +0.000 A 
ATOM     28  C   UNL     1      42.212   6.625  20.456  0.00  0.00    +0.000 A 
ATOM     29  C   UNL     1      43.070   6.846  19.415  0.00  0.00    +0.000 A 
ATOM     30  C   UNL     1      42.616   6.689  18.137  0.00  0.00    +0.000 A 
ATOM     31  C   UNL     1      41.298   6.308  17.875  0.00  0.00    +0.000 A 
ENDBRANCH  25  26
ENDBRANCH   7  25
TORSDOF 6
ENDMDL
MODEL 5
REMARK VINA RESULT:      -7.6      3.190      7.097
REMARK  Name = 
REMARK  6 active torsions:
REMARK  status: ('A' for Active; 'I' for Inactive)
REMARK    1  A    between atoms: C_2  and  C_4
REMARK    2  A    between atoms: C_4  and  C_5
REMARK    3  A    between atoms: C_5  and  N_6
REMARK    4  A    between atoms: C_7  and  C_9
REMARK    5  A    between atoms: N_15  and  C_16
REMARK    6  A    between atoms: C_16  and  C_17
REMARK                            x       y       z     vdW  Elec       q    Type
REMARK                         _______ _______ _______ _____ _____    ______ ____
ROOT
ATOM      1  C   UNL     1      38.636  -2.403  15.412  0.00  0.00    +0.000 A 
ATOM      2  C   UNL     1      39.899  -2.934  15.624  0.00  0.00    +0.000 A 
ATOM      3  C   UNL     1      40.971  -2.730  14.784  0.00  0.00    +0.000 A 
ATOM      4  C   UNL     1      40.769  -1.943  13.656  0.00  0.00    +0.000 A 
ATOM      5  C   UNL     1      39.536  -1.386  13.388  0.00  0.00    +0.000 A 
ATOM      6  C   UNL     1      38.482  -1.630  14.282  0.00  0.00    +0.000 A 
ATOM      7  N   UNL     1      39.127  -0.564  12.302  0.00  0.00    +0.000 N 
ATOM      8  C   UNL     1      39.626  -0.470  10.980  0.00  0.00    +0.000 C 
ATOM      9  O   UNL     1      39.080   0.352  10.192  0.00  0.00    +0.000 OA
ATOM     10  C   UNL     1      40.730  -1.205  10.333  0.00  0.00    +0.000 A 
ATOM     11  C   UNL     1      40.605  -1.314   8.972  0.00  0.00    +0.000 A 
ATOM     12  C   UNL     1      41.568  -1.979   8.250  0.00  0.00    +0.000 A 
ATOM     13  C   UNL     1      42.656  -2.540   8.841  0.00  0.00    +0.000 A 
ATOM     14  C   UNL     1      42.770  -2.419  10.231  0.00  0.00    +0.000 A 
ATOM     15  C   UNL     1      41.808  -1.754  10.964  0.00  0.00    +0.000 A 
ATOM     16  S   UNL     1      42.261  -1.783  12.688  0.00  0.00    +0.000 S 
ENDROOT
BRANCH   1  18
ATOM     17  N   UNL     1      36.221  -2.217  16.096  0.00  0.00    +0.000 NA
ATOM     18  C   UNL     1      37.536  -2.655  16.340  0.00  0.00    +0.000 C 
ATOM     19  O   UNL     1      37.802  -3.292  17.388  0.00  0.00    +0.000 OA
BRANCH  17  20
ATOM     20  C   UNL     1      35.113  -2.455  17.001  0.00  0.00    +0.000 C 
BRANCH  20  21
ATOM     21  C   UNL     1      34.416  -1.176  17.401  0.00  0.00    +0.000 C 
BRANCH  21  23
ATOM     22  C   UNL     1      35.895   0.216  18.863  0.00  0.00    +0.000 C 
ATOM     23  C   UNL     1      35.427  -0.025  17.446  0.00  0.00    +0.000 C 
ATOM     24  C   UNL     1      34.800   1.264  16.950  0.00  0.00    +0.000 C 
ENDBRANCH  21  23
ENDBRANCH  20  21
ENDBRANCH  17  20
ENDBRANCH   1  18
BRANCH   7  25
ATOM     25  C   UNL     1      38.021   0.319  12.588  0.00  0.00    +0.000 C 
BRANCH  25  26
ATOM     26  C   UNL     1      38.369   1.455  13.439  0.00  0.00    +0.000 A 
ATOM     27  C   UNL     1      39.494   2.236  13.274  0.00  0.00    +0.000 A 
ATOM     28  C   UNL     1      39.806   3.299  14.083  0.00  0.00    +0.000 A 
ATOM     29  C   UNL     1      38.971   3.622  15.116  0.00  0.00    +0.000 A 
ATOM     30  C   UNL     1      37.847   2.875  15.317  0.00  0.00    +0.000 A 
ATOM     31  C   UNL     1      37.534   1.793  14.490  0.00  0.00    +0.000 A 
ENDBRANCH  25  26
ENDBRANCH   7  25
TORSDOF 6
ENDMDL
MODEL 6
REMARK VINA RESULT:      -7.6      3.316      6.669
REMARK  Name = 
REMARK  6 active torsions:
REMARK  status: ('A' for Active; 'I' for Inactive)
REMARK    1  A    between atoms: C_2  and  C_4
REMARK    2  A    between atoms: C_4  and  C_5
REMARK    3  A    between atoms: C_5  and  N_6
REMARK    4  A    between atoms: C_7  and  C_9
REMARK    5  A    between atoms: N_15  and  C_16
REMARK    6  A    between atoms: C_16  and  C_17
REMARK                            x       y       z     vdW  Elec       q    Type
REMARK                         _______ _______ _______ _____ _____    ______ ____
ROOT
ATOM      1  C   UNL     1      38.660   1.671  14.522  0.00  0.00    +0.000 A 
ATOM      2  C   UNL     1      39.573   2.624  14.098  0.00  0.00    +0.000 A 
ATOM      3  C   UNL     1      40.660   2.348  13.298  0.00  0.00    +0.000 A 
ATOM      4  C   UNL     1      40.848   1.030  12.895  0.00  0.00    +0.000 A 
ATOM      5  C   UNL     1      39.975   0.036  13.282  0.00  0.00    +0.000 A 
ATOM      6  C   UNL     1      38.886   0.380  14.098  0.00  0.00    +0.000 A 
ATOM      7  N   UNL     1      39.991  -1.355  12.984  0.00  0.00    +0.000 N 
ATOM      8  C   UNL     1      41.071  -2.215  12.666  0.00  0.00    +0.000 C 
ATOM      9  O   UNL     1      40.818  -3.431  12.439  0.00  0.00    +0.000 OA
ATOM     10  C   UNL     1      42.511  -1.919  12.550  0.00  0.00    +0.000 A 
ATOM     11  C   UNL     1      43.323  -2.998  12.792  0.00  0.00    +0.000 A 
ATOM     12  C   UNL     1      44.689  -2.852  12.718  0.00  0.00    +0.000 A 
ATOM     13  C   UNL     1      45.275  -1.665  12.408  0.00  0.00    +0.000 A 
ATOM     14  C   UNL     1      44.432  -0.575  12.162  0.00  0.00    +0.000 A 
ATOM     15  C   UNL     1      43.060  -0.710  12.235  0.00  0.00    +0.000 A 
ATOM     16  S   UNL     1      42.296   0.858  11.865  0.00  0.00    +0.000 S 
ENDROOT
BRANCH   1  18
ATOM     17  N   UNL     1      36.278   1.376  15.283  0.00  0.00    +0.000 NA
ATOM     18  C   UNL     1      37.525   2.026  15.371  0.00  0.00    +0.000 C 
ATOM     19  O   UNL     1      37.695   2.948  16.204  0.00  0.00    +0.000 OA
BRANCH  17  20
ATOM     20  C   UNL     1      35.138   1.710  16.115  0.00  0.00    +0.000 C 
BRANCH  20  21
ATOM     21  C   UNL     1      34.967   0.746  17.265  0.00  0.00    +0.000 C 
BRANCH  21  23
ATOM     22  C   UNL     1      34.612  -1.713  16.963  0.00  0.00    +0.000 C 
ATOM     23  C   UNL     1      35.628  -0.594  16.922  0.00  0.00    +0.000 C 
ATOM     24  C   UNL     1      36.715  -0.932  17.925  0.00  0.00    +0.000 C 
ENDBRANCH  21  23
ENDBRANCH  20  21
ENDBRANCH  17  20
ENDBRANCH   1  18
BRANCH   7  25
ATOM     25  C   UNL     1      38.700  -1.999  13.010  0.00  0.00    +0.000 C 
BRANCH  25  26
ATOM     26  C   UNL     1      38.432  -2.749  14.235  0.00  0.00    +0.000 A 
ATOM     27  C   UNL     1      39.266  -2.770  15.334  0.00  0.00    +0.000 A 
ATOM     28  C   UNL     1      39.000  -3.480  16.477  0.00  0.00    +0.000 A 
ATOM     29  C   UNL     1      37.849  -4.215  16.556  0.00  0.00    +0.000 A 
ATOM     30  C   UNL     1      36.995  -4.223  15.492  0.00  0.00    +0.000 A 
ATOM     31  C   UNL     1      37.271  -3.498  14.330  0.00  0.00    +0.000 A 
ENDBRANCH  25  26
ENDBRANCH   7  25
TORSDOF 6
ENDMDL
MODEL 7
REMARK VINA RESULT:      -7.6      2.117      5.153
REMARK  Name = 
REMARK  6 active torsions:
REMARK  status: ('A' for Active; 'I' for Inactive)
REMARK    1  A    between atoms: C_2  and  C_4
REMARK    2  A    between atoms: C_4  and  C_5
REMARK    3  A    between atoms: C_5  and  N_6
REMARK    4  A    between atoms: C_7  and  C_9
REMARK    5  A    between atoms: N_15  and  C_16
REMARK    6  A    between atoms: C_16  and  C_17
REMARK                            x       y       z     vdW  Elec       q    Type
REMARK                         _______ _______ _______ _____ _____    ______ ____
ROOT
ATOM      1  C   UNL     1      38.327   2.323  14.541  0.00  0.00    +0.000 A 
ATOM      2  C   UNL     1      38.292   2.567  13.177  0.00  0.00    +0.000 A 
ATOM      3  C   UNL     1      38.659   1.647  12.220  0.00  0.00    +0.000 A 
ATOM      4  C   UNL     1      39.091   0.399  12.654  0.00  0.00    +0.000 A 
ATOM      5  C   UNL     1      39.150   0.094  13.997  0.00  0.00    +0.000 A 
ATOM      6  C   UNL     1      38.762   1.073  14.925  0.00  0.00    +0.000 A 
ATOM      7  N   UNL     1      39.559  -1.108  14.639  0.00  0.00    +0.000 N 
ATOM      8  C   UNL     1      40.457  -2.118  14.214  0.00  0.00    +0.000 C 
ATOM      9  O   UNL     1      40.655  -3.102  14.981  0.00  0.00    +0.000 OA
ATOM     10  C   UNL     1      41.239  -2.223  12.968  0.00  0.00    +0.000 A 
ATOM     11  C   UNL     1      42.386  -2.965  13.090  0.00  0.00    +0.000 A 
ATOM     12  C   UNL     1      43.206  -3.137  11.999  0.00  0.00    +0.000 A 
ATOM     13  C   UNL     1      42.920  -2.594  10.786  0.00  0.00    +0.000 A 
ATOM     14  C   UNL     1      41.745  -1.840  10.678  0.00  0.00    +0.000 A 
ATOM     15  C   UNL     1      40.916  -1.661  11.767  0.00  0.00    +0.000 A 
ATOM     16  S   UNL     1      39.521  -0.662  11.283  0.00  0.00    +0.000 S 
ENDROOT
BRANCH   1  18
ATOM     17  N   UNL     1      38.825   4.286  16.036  0.00  0.00    +0.000 NA
ATOM     18  C   UNL     1      37.925   3.339  15.510  0.00  0.00    +0.000 C 
ATOM     19  O   UNL     1      36.723   3.348  15.870  0.00  0.00    +0.000 OA
BRANCH  17  20
ATOM     20  C   UNL     1      38.449   5.304  16.997  0.00  0.00    +0.000 C 
BRANCH  20  21
ATOM     21  C   UNL     1      38.788   4.906  18.414  0.00  0.00    +0.000 C 
BRANCH  21  23
ATOM     22  C   UNL     1      39.381   6.901  19.803  0.00  0.00    +0.000 C 
ATOM     23  C   UNL     1      39.927   5.784  18.943  0.00  0.00    +0.000 C 
ATOM     24  C   UNL     1      40.691   6.424  17.799  0.00  0.00    +0.000 C 
ENDBRANCH  21  23
ENDBRANCH  20  21
ENDBRANCH  17  20
ENDBRANCH   1  18
BRANCH   7  25
ATOM     25  C   UNL     1      38.969  -1.338  15.936  0.00  0.00    +0.000 C 
BRANCH  25  26
ATOM     26  C   UNL     1      37.597  -1.841  15.886  0.00  0.00    +0.000 A 
ATOM     27  C   UNL     1      36.487  -1.111  16.255  0.00  0.00    +0.000 A 
ATOM     28  C   UNL     1      35.205  -1.598  16.202  0.00  0.00    +0.000 A 
ATOM     29  C   UNL     1      34.993  -2.875  15.764  0.00  0.00    +0.000 A 
ATOM     30  C   UNL     1      36.063  -3.635  15.390  0.00  0.00    +0.000 A 
ATOM     31  C   UNL     1      37.366  -3.132  15.445  0.00  0.00    +0.000 A 
ENDBRANCH  25  26
ENDBRANCH   7  25
TORSDOF 6
ENDMDL
MODEL 8
REMARK VINA RESULT:      -7.5      1.654      2.750
REMARK  Name = 
REMARK  6 active torsions:
REMARK  status: ('A' for Active; 'I' for Inactive)
REMARK    1  A    between atoms: C_2  and  C_4
REMARK    2  A    between atoms: C_4  and  C_5
REMARK    3  A    between atoms: C_5  and  N_6
REMARK    4  A    between atoms: C_7  and  C_9
REMARK    5  A    between atoms: N_15  and  C_16
REMARK    6  A    between atoms: C_16  and  C_17
REMARK                            x       y       z     vdW  Elec       q    Type
REMARK                         _______ _______ _______ _____ _____    ______ ____
ROOT
ATOM      1  C   UNL     1      36.799   2.025  15.935  0.00  0.00    +0.000 A 
ATOM      2  C   UNL     1      35.550   2.091  16.532  0.00  0.00    +0.000 A 
ATOM      3  C   UNL     1      34.823   0.988  16.923  0.00  0.00    +0.000 A 
ATOM      4  C   UNL     1      35.383  -0.266  16.703  0.00  0.00    +0.000 A 
ATOM      5  C   UNL     1      36.622  -0.399  16.115  0.00  0.00    +0.000 A 
ATOM      6  C   UNL     1      37.314   0.762  15.738  0.00  0.00    +0.000 A 
ATOM      7  N   UNL     1      37.359  -1.575  15.805  0.00  0.00    +0.000 N 
ATOM      8  C   UNL     1      36.917  -2.893  15.527  0.00  0.00    +0.000 C 
ATOM      9  O   UNL     1      37.785  -3.774  15.277  0.00  0.00    +0.000 OA
ATOM     10  C   UNL     1      35.547  -3.437  15.478  0.00  0.00    +0.000 A 
ATOM     11  C   UNL     1      35.411  -4.532  14.662  0.00  0.00    +0.000 A 
ATOM     12  C   UNL     1      34.181  -5.133  14.528  0.00  0.00    +0.000 A 
ATOM     13  C   UNL     1      33.079  -4.679  15.181  0.00  0.00    +0.000 A 
ATOM     14  C   UNL     1      33.234  -3.562  16.011  0.00  0.00    +0.000 A 
ATOM     15  C   UNL     1      34.464  -2.951  16.152  0.00  0.00    +0.000 A 
ATOM     16  S   UNL     1      34.309  -1.574  17.273  0.00  0.00    +0.000 S 
ENDROOT
BRANCH   1  18
ATOM     17  N   UNL     1      38.892   3.224  15.212  0.00  0.00    +0.000 NA
ATOM     18  C   UNL     1      37.523   3.232  15.542  0.00  0.00    +0.000 C 
ATOM     19  O   UNL     1      36.873   4.305  15.502  0.00  0.00    +0.000 OA
BRANCH  17  20
ATOM     20  C   UNL     1      39.630   4.408  14.819  0.00  0.00    +0.000 C 
BRANCH  20  21
ATOM     21  C   UNL     1      40.473   4.173  13.588  0.00  0.00    +0.000 C 
BRANCH  21  23
ATOM     22  C   UNL     1      41.516   1.985  12.966  0.00  0.00    +0.000 C 
ATOM     23  C   UNL     1      40.222   2.762  13.047  0.00  0.00    +0.000 C 
ATOM     24  C   UNL     1      39.637   2.815  11.648  0.00  0.00    +0.000 C 
ENDBRANCH  21  23
ENDBRANCH  20  21
ENDBRANCH  17  20
ENDBRANCH   1  18
BRANCH   7  25
ATOM     25  C   UNL     1      38.792  -1.404  15.762  0.00  0.00    +0.000 C 
BRANCH  25  26
ATOM     26  C   UNL     1      39.357  -1.433  14.414  0.00  0.00    +0.000 A 
ATOM     27  C   UNL     1      40.592  -1.960  14.098  0.00  0.00    +0.000 A 
ATOM     28  C   UNL     1      41.107  -1.978  12.827  0.00  0.00    +0.000 A 
ATOM     29  C   UNL     1      40.375  -1.451  11.801  0.00  0.00    +0.000 A 
ATOM     30  C   UNL     1      39.147  -0.918  12.067  0.00  0.00    +0.000 A 
ATOM     31  C   UNL     1      38.627  -0.902  13.364  0.00  0.00    +0.000 A 
ENDBRANCH  25  26
ENDBRANCH   7  25
TORSDOF 6
ENDMDL
MODEL 9
REMARK VINA RESULT:      -7.5      5.598      9.599
REMARK  Name = 
REMARK  6 active torsions:
REMARK  status: ('A' for Active; 'I' for Inactive)
REMARK    1  A    between atoms: C_2  and  C_4
REMARK    2  A    between atoms: C_4  and  C_5
REMARK    3  A    between atoms: C_5  and  N_6
REMARK    4  A    between atoms: C_7  and  C_9
REMARK    5  A    between atoms: N_15  and  C_16
REMARK    6  A    between atoms: C_16  and  C_17
REMARK                            x       y       z     vdW  Elec       q    Type
REMARK                         _______ _______ _______ _____ _____    ______ ____
ROOT
ATOM      1  C   UNL     1      43.175   6.888  18.791  0.00  0.00    +0.000 A 
ATOM      2  C   UNL     1      43.703   7.255  17.563  0.00  0.00    +0.000 A 
ATOM      3  C   UNL     1      43.030   7.131  16.367  0.00  0.00    +0.000 A 
ATOM      4  C   UNL     1      41.744   6.604  16.400  0.00  0.00    +0.000 A 
ATOM      5  C   UNL     1      41.163   6.220  17.590  0.00  0.00    +0.000 A 
ATOM      6  C   UNL     1      41.898   6.371  18.775  0.00  0.00    +0.000 A 
ATOM      7  N   UNL     1      39.877   5.664  17.835  0.00  0.00    +0.000 N 
ATOM      8  C   UNL     1      39.031   4.895  16.997  0.00  0.00    +0.000 C 
ATOM      9  O   UNL     1      37.920   4.514  17.459  0.00  0.00    +0.000 OA
ATOM     10  C   UNL     1      39.239   4.440  15.609  0.00  0.00    +0.000 A 
ATOM     11  C   UNL     1      38.552   3.296  15.289  0.00  0.00    +0.000 A 
ATOM     12  C   UNL     1      38.663   2.767  14.024  0.00  0.00    +0.000 A 
ATOM     13  C   UNL     1      39.436   3.340  13.065  0.00  0.00    +0.000 A 
ATOM     14  C   UNL     1      40.130   4.507  13.408  0.00  0.00    +0.000 A 
ATOM     15  C   UNL     1      40.026   5.046  14.674  0.00  0.00    +0.000 A 
ATOM     16  S   UNL     1      41.026   6.519  14.768  0.00  0.00    +0.000 S 
ENDROOT
BRANCH   1  18
ATOM     17  N   UNL     1      43.325   7.269  21.275  0.00  0.00    +0.000 NA
ATOM     18  C   UNL     1      43.938   7.044  20.028  0.00  0.00    +0.000 C 
ATOM     19  O   UNL     1      45.188   6.970  19.946  0.00  0.00    +0.000 OA
BRANCH  17  20
ATOM     20  C   UNL     1      44.060   7.426  22.515  0.00  0.00    +0.000 C 
BRANCH  20  21
ATOM     21  C   UNL     1      44.211   6.122  23.261  0.00  0.00    +0.000 C 
BRANCH  21  23
ATOM     22  C   UNL     1      43.879   5.505  25.663  0.00  0.00    +0.000 C 
ATOM     23  C   UNL     1      44.639   6.395  24.707  0.00  0.00    +0.000 C 
ATOM     24  C   UNL     1      44.344   7.832  25.094  0.00  0.00    +0.000 C 
ENDBRANCH  21  23
ENDBRANCH  20  21
ENDBRANCH  17  20
ENDBRANCH   1  18
BRANCH   7  25
ATOM     25  C   UNL     1      39.342   5.920  19.151  0.00  0.00    +0.000 C 
BRANCH  25  26
ATOM     26  C   UNL     1      38.775   7.257  19.315  0.00  0.00    +0.000 A 
ATOM     27  C   UNL     1      38.041   7.915  18.350  0.00  0.00    +0.000 A 
ATOM     28  C   UNL     1      37.516   9.171  18.520  0.00  0.00    +0.000 A 
ATOM     29  C   UNL     1      37.719   9.827  19.702  0.00  0.00    +0.000 A 
ATOM     30  C   UNL     1      38.441   9.214  20.685  0.00  0.00    +0.000 A 
ATOM     31  C   UNL     1      38.973   7.934  20.506  0.00  0.00    +0.000 A 
ENDBRANCH  25  26
ENDBRANCH   7  25
TORSDOF 6
ENDMDL
MODEL 10
REMARK VINA RESULT:      -7.4     25.775     28.813
REMARK  Name = 
REMARK  6 active torsions:
REMARK  status: ('A' for Active; 'I' for Inactive)
REMARK    1  A    between atoms: C_2  and  C_4
REMARK    2  A    between atoms: C_4  and  C_5
REMARK    3  A    between atoms: C_5  and  N_6
REMARK    4  A    between atoms: C_7  and  C_9
REMARK    5  A    between atoms: N_15  and  C_16
REMARK    6  A    between atoms: C_16  and  C_17
REMARK                            x       y       z     vdW  Elec       q    Type
REMARK                         _______ _______ _______ _____ _____    ______ ____
ROOT
ATOM      1  C   UNL     1      13.622  -0.221  29.659  0.00  0.00    +0.000 A 
ATOM      2  C   UNL     1      12.627  -1.183  29.739  0.00  0.00    +0.000 A 
ATOM      3  C   UNL     1      12.156  -1.709  30.921  0.00  0.00    +0.000 A 
ATOM      4  C   UNL     1      12.717  -1.243  32.105  0.00  0.00    +0.000 A 
ATOM      5  C   UNL     1      13.710  -0.286  32.094  0.00  0.00    +0.000 A 
ATOM      6  C   UNL     1      14.148   0.211  30.856  0.00  0.00    +0.000 A 
ATOM      7  N   UNL     1      14.407   0.314  33.179  0.00  0.00    +0.000 N 
ATOM      8  C   UNL     1      14.683  -0.177  34.479  0.00  0.00    +0.000 C 
ATOM      9  O   UNL     1      15.332   0.562  35.271  0.00  0.00    +0.000 OA
ATOM     10  C   UNL     1      14.326  -1.469  35.096  0.00  0.00    +0.000 A 
ATOM     11  C   UNL     1      15.180  -1.865  36.094  0.00  0.00    +0.000 A 
ATOM     12  C   UNL     1      14.958  -3.054  36.748  0.00  0.00    +0.000 A 
ATOM     13  C   UNL     1      13.910  -3.864  36.441  0.00  0.00    +0.000 A 
ATOM     14  C   UNL     1      13.048  -3.445  35.421  0.00  0.00    +0.000 A 
ATOM     15  C   UNL     1      13.262  -2.254  34.758  0.00  0.00    +0.000 A 
ATOM     16  S   UNL     1      11.987  -2.027  33.533  0.00  0.00    +0.000 S 
ENDROOT
BRANCH   1  18
ATOM     17  N   UNL     1      15.442   0.504  28.078  0.00  0.00    +0.000 NA
ATOM     18  C   UNL     1      14.080   0.299  28.373  0.00  0.00    +0.000 C 
ATOM     19  O   UNL     1      13.205   0.564  27.514  0.00  0.00    +0.000 OA
BRANCH  17  20
ATOM     20  C   UNL     1      15.921   1.019  26.810  0.00  0.00    +0.000 C 
BRANCH  20  21
ATOM     21  C   UNL     1      17.421   0.907  26.677  0.00  0.00    +0.000 C 
BRANCH  21  23
ATOM     22  C   UNL     1      17.355  -1.307  25.512  0.00  0.00    +0.000 C 
ATOM     23  C   UNL     1      17.774   0.141  25.397  0.00  0.00    +0.000 C 
ATOM     24  C   UNL     1      19.271   0.162  25.151  0.00  0.00    +0.000 C 
ENDBRANCH  21  23
ENDBRANCH  20  21
ENDBRANCH  17  20
ENDBRANCH   1  18
BRANCH   7  25
ATOM     25  C   UNL     1      14.920   1.637  32.918  0.00  0.00    +0.000 C 
BRANCH  25  26
ATOM     26  C   UNL     1      14.037   2.716  33.357  0.00  0.00    +0.000 A 
ATOM     27  C   UNL     1      12.660   2.635  33.379  0.00  0.00    +0.000 A 
ATOM     28  C   UNL     1      11.845   3.658  33.794  0.00  0.00    +0.000 A 
ATOM     29  C   UNL     1      12.406   4.833  34.212  0.00  0.00    +0.000 A 
ATOM     30  C   UNL     1      13.765   4.957  34.206  0.00  0.00    +0.000 A 
ATOM     31  C   UNL     1      14.590   3.911  33.783  0.00  0.00    +0.000 A 
ENDBRANCH  25  26
ENDBRANCH   7  25
TORSDOF 6
ENDMDL
