MODEL 1
REMARK VINA RESULT:      -6.4      0.000      0.000
REMARK  Name = 
REMARK  2 active torsions:
REMARK  status: ('A' for Active; 'I' for Inactive)
REMARK    1  A    between atoms: C_6  and  C_7
REMARK    2  A    between atoms: N_11  and  C_12
REMARK                            x       y       z     vdW  Elec       q    Type
REMARK                         _______ _______ _______ _____ _____    ______ ____
ROOT
ATOM      1  C   UNL     1      21.098   8.311  41.631  0.00  0.00    +0.000 C 
ATOM      2  C   UNL     1      20.178   8.900  40.639  0.00  0.00    +0.000 A 
ATOM      3  C   UNL     1      18.806   8.953  40.798  0.00  0.00    +0.000 A 
ATOM      4  C   UNL     1      18.012   9.521  39.823  0.00  0.00    +0.000 A 
ATOM      5  C   UNL     1      16.534   9.597  39.957  0.00  0.00    +0.000 C 
ATOM      6  C   UNL     1      18.589  10.038  38.682  0.00  0.00    +0.000 A 
ATOM      7  C   UNL     1      19.951   9.968  38.557  0.00  0.00    +0.000 A 
ATOM      8  N   UNL     1      20.560  10.484  37.415  0.00  0.00    +0.000 NA
ATOM      9  N   UNL     1      20.716   9.416  39.509  0.00  0.00    +0.000 NA
ENDROOT
BRANCH   8  10
ATOM     10  C   UNL     1      21.954  10.476  37.160  0.00  0.00    +0.000 A 
ATOM     11  C   UNL     1      22.478   9.408  36.466  0.00  0.00    +0.000 A 
ATOM     12  C   UNL     1      23.828   9.337  36.185  0.00  0.00    +0.000 A 
ATOM     13  C   UNL     1      24.657  10.346  36.604  0.00  0.00    +0.000 A 
ATOM     14  C   UNL     1      24.176  11.449  37.309  0.00  0.00    +0.000 A 
ATOM     15  C   UNL     1      25.016  12.459  37.727  0.00  0.00    +0.000 A 
ATOM     16  C   UNL     1      24.497  13.523  38.418  0.00  0.00    +0.000 A 
ATOM     17  C   UNL     1      23.151  13.565  38.683  0.00  0.00    +0.000 A 
ATOM     18  C   UNL     1      22.334  12.544  38.255  0.00  0.00    +0.000 A 
ATOM     19  C   UNL     1      22.816  11.466  37.562  0.00  0.00    +0.000 A 
ENDBRANCH   8  10
BRANCH   6  20
ATOM     20  C   UNL     1      17.759  10.651  37.625  0.00  0.00    +0.000 C 
ATOM     21  N   UNL     1      17.171   9.865  36.598  0.00  0.00    +0.000 NA
ATOM     22  O   UNL     1      17.549  11.885  37.605  0.00  0.00    +0.000 OA
ENDBRANCH   6  20
TORSDOF 2
ENDMDL
MODEL 2
REMARK VINA RESULT:      -6.4     16.610     18.949
REMARK  Name = 
REMARK  2 active torsions:
REMARK  status: ('A' for Active; 'I' for Inactive)
REMARK    1  A    between atoms: C_6  and  C_7
REMARK    2  A    between atoms: N_11  and  C_12
REMARK                            x       y       z     vdW  Elec       q    Type
REMARK                         _______ _______ _______ _____ _____    ______ ____
ROOT
ATOM      1  C   UNL     1      24.052  27.604  27.015  0.00  0.00    +0.000 C 
ATOM      2  C   UNL     1      24.638  26.620  27.946  0.00  0.00    +0.000 A 
ATOM      3  C   UNL     1      24.510  26.689  29.320  0.00  0.00    +0.000 A 
ATOM      4  C   UNL     1      25.089  25.728  30.124  0.00  0.00    +0.000 A 
ATOM      5  C   UNL     1      24.974  25.768  31.604  0.00  0.00    +0.000 C 
ATOM      6  C   UNL     1      25.800  24.693  29.553  0.00  0.00    +0.000 A 
ATOM      7  C   UNL     1      25.907  24.656  28.189  0.00  0.00    +0.000 A 
ATOM      8  N   UNL     1      26.619  23.620  27.586  0.00  0.00    +0.000 NA
ATOM      9  N   UNL     1      25.342  25.593  27.414  0.00  0.00    +0.000 NA
ENDROOT
BRANCH   8  10
ATOM     10  C   UNL     1      26.807  23.464  26.190  0.00  0.00    +0.000 A 
ATOM     11  C   UNL     1      25.704  23.571  25.374  0.00  0.00    +0.000 A 
ATOM     12  C   UNL     1      25.816  23.428  24.005  0.00  0.00    +0.000 A 
ATOM     13  C   UNL     1      27.047  23.176  23.454  0.00  0.00    +0.000 A 
ATOM     14  C   UNL     1      28.194  23.059  24.237  0.00  0.00    +0.000 A 
ATOM     15  C   UNL     1      29.427  22.805  23.675  0.00  0.00    +0.000 A 
ATOM     16  C   UNL     1      30.527  22.697  24.486  0.00  0.00    +0.000 A 
ATOM     17  C   UNL     1      30.383  22.843  25.842  0.00  0.00    +0.000 A 
ATOM     18  C   UNL     1      29.141  23.096  26.379  0.00  0.00    +0.000 A 
ATOM     19  C   UNL     1      28.021  23.211  25.601  0.00  0.00    +0.000 A 
ENDBRANCH   8  10
BRANCH   6  20
ATOM     20  C   UNL     1      26.429  23.654  30.394  0.00  0.00    +0.000 C 
ATOM     21  N   UNL     1      27.742  23.814  30.911  0.00  0.00    +0.000 NA
ATOM     22  O   UNL     1      25.818  22.597  30.676  0.00  0.00    +0.000 OA
ENDBRANCH   6  20
TORSDOF 2
ENDMDL
MODEL 3
REMARK VINA RESULT:      -6.4     21.737     23.924
REMARK  Name = 
REMARK  2 active torsions:
REMARK  status: ('A' for Active; 'I' for Inactive)
REMARK    1  A    between atoms: C_6  and  C_7
REMARK    2  A    between atoms: N_11  and  C_12
REMARK                            x       y       z     vdW  Elec       q    Type
REMARK                         _______ _______ _______ _____ _____    ______ ____
ROOT
ATOM      1  C   UNL     1      25.014   5.353  13.086  0.00  0.00    +0.000 C 
ATOM      2  C   UNL     1      25.876   5.609  14.256  0.00  0.00    +0.000 A 
ATOM      3  C   UNL     1      26.943   6.488  14.249  0.00  0.00    +0.000 A 
ATOM      4  C   UNL     1      27.703   6.671  15.386  0.00  0.00    +0.000 A 
ATOM      5  C   UNL     1      28.856   7.607  15.418  0.00  0.00    +0.000 C 
ATOM      6  C   UNL     1      27.398   5.974  16.536  0.00  0.00    +0.000 A 
ATOM      7  C   UNL     1      26.335   5.111  16.507  0.00  0.00    +0.000 A 
ATOM      8  N   UNL     1      26.005   4.394  17.656  0.00  0.00    +0.000 NA
ATOM      9  N   UNL     1      25.601   4.938  15.399  0.00  0.00    +0.000 NA
ENDROOT
BRANCH   8  10
ATOM     10  C   UNL     1      24.934   3.471  17.762  0.00  0.00    +0.000 A 
ATOM     11  C   UNL     1      23.692   3.959  18.098  0.00  0.00    +0.000 A 
ATOM     12  C   UNL     1      22.606   3.114  18.219  0.00  0.00    +0.000 A 
ATOM     13  C   UNL     1      22.771   1.771  18.000  0.00  0.00    +0.000 A 
ATOM     14  C   UNL     1      24.009   1.227  17.657  0.00  0.00    +0.000 A 
ATOM     15  C   UNL     1      24.166  -0.125  17.439  0.00  0.00    +0.000 A 
ATOM     16  C   UNL     1      25.403  -0.613  17.104  0.00  0.00    +0.000 A 
ATOM     17  C   UNL     1      26.463   0.252  16.993  0.00  0.00    +0.000 A 
ATOM     18  C   UNL     1      26.279   1.597  17.216  0.00  0.00    +0.000 A 
ATOM     19  C   UNL     1      25.059   2.121  17.551  0.00  0.00    +0.000 A 
ENDBRANCH   8  10
BRANCH   6  20
ATOM     20  C   UNL     1      28.198   6.154  17.765  0.00  0.00    +0.000 C 
ATOM     21  N   UNL     1      27.910   7.193  18.689  0.00  0.00    +0.000 NA
ATOM     22  O   UNL     1      29.156   5.391  18.027  0.00  0.00    +0.000 OA
ENDBRANCH   6  20
TORSDOF 2
ENDMDL
MODEL 4
REMARK VINA RESULT:      -6.3     21.570     23.142
REMARK  Name = 
REMARK  2 active torsions:
REMARK  status: ('A' for Active; 'I' for Inactive)
REMARK    1  A    between atoms: C_6  and  C_7
REMARK    2  A    between atoms: N_11  and  C_12
REMARK                            x       y       z     vdW  Elec       q    Type
REMARK                         _______ _______ _______ _____ _____    ______ ____
ROOT
ATOM      1  C   UNL     1      15.224 -10.375  24.684  0.00  0.00    +0.000 C 
ATOM      2  C   UNL     1      15.709 -10.568  26.064  0.00  0.00    +0.000 A 
ATOM      3  C   UNL     1      15.259 -11.568  26.906  0.00  0.00    +0.000 A 
ATOM      4  C   UNL     1      15.764 -11.681  28.186  0.00  0.00    +0.000 A 
ATOM      5  C   UNL     1      15.306 -12.742  29.120  0.00  0.00    +0.000 C 
ATOM      6  C   UNL     1      16.721 -10.793  28.628  0.00  0.00    +0.000 A 
ATOM      7  C   UNL     1      17.143  -9.814  27.768  0.00  0.00    +0.000 A 
ATOM      8  N   UNL     1      18.110  -8.903  28.190  0.00  0.00    +0.000 NA
ATOM      9  N   UNL     1      16.649  -9.710  26.526  0.00  0.00    +0.000 NA
ENDROOT
BRANCH   8  10
ATOM     10  C   UNL     1      18.632  -7.846  27.404  0.00  0.00    +0.000 A 
ATOM     11  C   UNL     1      17.950  -6.650  27.394  0.00  0.00    +0.000 A 
ATOM     12  C   UNL     1      18.403  -5.579  26.648  0.00  0.00    +0.000 A 
ATOM     13  C   UNL     1      19.550  -5.713  25.909  0.00  0.00    +0.000 A 
ATOM     14  C   UNL     1      20.277  -6.902  25.885  0.00  0.00    +0.000 A 
ATOM     15  C   UNL     1      21.429  -7.028  25.138  0.00  0.00    +0.000 A 
ATOM     16  C   UNL     1      22.110  -8.217  25.147  0.00  0.00    +0.000 A 
ATOM     17  C   UNL     1      21.634  -9.263  25.897  0.00  0.00    +0.000 A 
ATOM     18  C   UNL     1      20.482  -9.113  26.634  0.00  0.00    +0.000 A 
ATOM     19  C   UNL     1      19.775  -7.939  26.650  0.00  0.00    +0.000 A 
ENDBRANCH   8  10
BRANCH   6  20
ATOM     20  C   UNL     1      17.274 -10.895  29.994  0.00  0.00    +0.000 C 
ATOM     21  N   UNL     1      16.692 -10.193  31.083  0.00  0.00    +0.000 NA
ATOM     22  O   UNL     1      18.277 -11.607  30.231  0.00  0.00    +0.000 OA
ENDBRANCH   6  20
TORSDOF 2
ENDMDL
MODEL 5
REMARK VINA RESULT:      -6.2     18.675     21.503
REMARK  Name = 
REMARK  2 active torsions:
REMARK  status: ('A' for Active; 'I' for Inactive)
REMARK    1  A    between atoms: C_6  and  C_7
REMARK    2  A    between atoms: N_11  and  C_12
REMARK                            x       y       z     vdW  Elec       q    Type
REMARK                         _______ _______ _______ _____ _____    ______ ____
ROOT
ATOM      1  C   UNL     1      29.983  28.314  25.801  0.00  0.00    +0.000 C 
ATOM      2  C   UNL     1      29.665  27.366  24.716  0.00  0.00    +0.000 A 
ATOM      3  C   UNL     1      29.419  27.746  23.409  0.00  0.00    +0.000 A 
ATOM      4  C   UNL     1      29.129  26.797  22.450  0.00  0.00    +0.000 A 
ATOM      5  C   UNL     1      28.859  27.165  21.037  0.00  0.00    +0.000 C 
ATOM      6  C   UNL     1      29.081  25.463  22.796  0.00  0.00    +0.000 A 
ATOM      7  C   UNL     1      29.329  25.123  24.099  0.00  0.00    +0.000 A 
ATOM      8  N   UNL     1      29.288  23.781  24.475  0.00  0.00    +0.000 NA
ATOM      9  N   UNL     1      29.612  26.050  25.025  0.00  0.00    +0.000 NA
ENDROOT
BRANCH   8  10
ATOM     10  C   UNL     1      29.524  23.294  25.785  0.00  0.00    +0.000 A 
ATOM     11  C   UNL     1      30.791  22.854  26.093  0.00  0.00    +0.000 A 
ATOM     12  C   UNL     1      31.088  22.366  27.351  0.00  0.00    +0.000 A 
ATOM     13  C   UNL     1      30.103  22.321  28.305  0.00  0.00    +0.000 A 
ATOM     14  C   UNL     1      28.804  22.755  28.043  0.00  0.00    +0.000 A 
ATOM     15  C   UNL     1      27.820  22.706  29.007  0.00  0.00    +0.000 A 
ATOM     16  C   UNL     1      26.557  23.144  28.703  0.00  0.00    +0.000 A 
ATOM     17  C   UNL     1      26.293  23.622  27.444  0.00  0.00    +0.000 A 
ATOM     18  C   UNL     1      27.293  23.660  26.499  0.00  0.00    +0.000 A 
ATOM     19  C   UNL     1      28.566  23.233  26.767  0.00  0.00    +0.000 A 
ENDBRANCH   8  10
BRANCH   6  20
ATOM     20  C   UNL     1      28.771  24.430  21.786  0.00  0.00    +0.000 C 
ATOM     21  N   UNL     1      27.482  23.842  21.702  0.00  0.00    +0.000 NA
ATOM     22  O   UNL     1      29.641  24.043  20.972  0.00  0.00    +0.000 OA
ENDBRANCH   6  20
TORSDOF 2
ENDMDL
MODEL 6
REMARK VINA RESULT:      -6.2     17.623     20.395
REMARK  Name = 
REMARK  2 active torsions:
REMARK  status: ('A' for Active; 'I' for Inactive)
REMARK    1  A    between atoms: C_6  and  C_7
REMARK    2  A    between atoms: N_11  and  C_12
REMARK                            x       y       z     vdW  Elec       q    Type
REMARK                         _______ _______ _______ _____ _____    ______ ____
ROOT
ATOM      1  C   UNL     1      27.884  28.289  26.004  0.00  0.00    +0.000 C 
ATOM      2  C   UNL     1      27.706  27.123  25.118  0.00  0.00    +0.000 A 
ATOM      3  C   UNL     1      27.608  27.210  23.742  0.00  0.00    +0.000 A 
ATOM      4  C   UNL     1      27.443  26.070  22.981  0.00  0.00    +0.000 A 
ATOM      5  C   UNL     1      27.334  26.122  21.500  0.00  0.00    +0.000 C 
ATOM      6  C   UNL     1      27.373  24.838  23.596  0.00  0.00    +0.000 A 
ATOM      7  C   UNL     1      27.472  24.789  24.961  0.00  0.00    +0.000 A 
ATOM      8  N   UNL     1      27.405  23.556  25.608  0.00  0.00    +0.000 NA
ATOM      9  N   UNL     1      27.634  25.900  25.693  0.00  0.00    +0.000 NA
ENDROOT
BRANCH   8  10
ATOM     10  C   UNL     1      27.494  23.365  27.009  0.00  0.00    +0.000 A 
ATOM     11  C   UNL     1      26.340  23.481  27.751  0.00  0.00    +0.000 A 
ATOM     12  C   UNL     1      26.356  23.308  29.121  0.00  0.00    +0.000 A 
ATOM     13  C   UNL     1      27.539  23.016  29.749  0.00  0.00    +0.000 A 
ATOM     14  C   UNL     1      28.735  22.888  29.043  0.00  0.00    +0.000 A 
ATOM     15  C   UNL     1      29.921  22.595  29.682  0.00  0.00    +0.000 A 
ATOM     16  C   UNL     1      31.071  22.479  28.945  0.00  0.00    +0.000 A 
ATOM     17  C   UNL     1      31.024  22.657  27.585  0.00  0.00    +0.000 A 
ATOM     18  C   UNL     1      29.827  22.950  26.971  0.00  0.00    +0.000 A 
ATOM     19  C   UNL     1      28.658  23.072  27.674  0.00  0.00    +0.000 A 
ENDBRANCH   8  10
BRANCH   6  20
ATOM     20  C   UNL     1      27.195  23.605  22.802  0.00  0.00    +0.000 C 
ATOM     21  N   UNL     1      25.907  23.050  22.576  0.00  0.00    +0.000 NA
ATOM     22  O   UNL     1      28.179  23.012  22.303  0.00  0.00    +0.000 OA
ENDBRANCH   6  20
TORSDOF 2
ENDMDL
MODEL 7
REMARK VINA RESULT:      -6.2      0.987      2.399
REMARK  Name = 
REMARK  2 active torsions:
REMARK  status: ('A' for Active; 'I' for Inactive)
REMARK    1  A    between atoms: C_6  and  C_7
REMARK    2  A    between atoms: N_11  and  C_12
REMARK                            x       y       z     vdW  Elec       q    Type
REMARK                         _______ _______ _______ _____ _____    ______ ____
ROOT
ATOM      1  C   UNL     1      20.828  10.106  42.797  0.00  0.00    +0.000 C 
ATOM      2  C   UNL     1      19.955  10.123  41.608  0.00  0.00    +0.000 A 
ATOM      3  C   UNL     1      18.673   9.607  41.586  0.00  0.00    +0.000 A 
ATOM      4  C   UNL     1      17.919   9.660  40.431  0.00  0.00    +0.000 A 
ATOM      5  C   UNL     1      16.537   9.117  40.369  0.00  0.00    +0.000 C 
ATOM      6  C   UNL     1      18.447  10.230  39.292  0.00  0.00    +0.000 A 
ATOM      7  C   UNL     1      19.720  10.730  39.349  0.00  0.00    +0.000 A 
ATOM      8  N   UNL     1      20.277  11.312  38.211  0.00  0.00    +0.000 NA
ATOM      9  N   UNL     1      20.446  10.676  40.474  0.00  0.00    +0.000 NA
ENDROOT
BRANCH   8  10
ATOM     10  C   UNL     1      21.580  11.865  38.133  0.00  0.00    +0.000 A 
ATOM     11  C   UNL     1      21.794  13.097  38.708  0.00  0.00    +0.000 A 
ATOM     12  C   UNL     1      23.039  13.694  38.667  0.00  0.00    +0.000 A 
ATOM     13  C   UNL     1      24.075  13.047  38.044  0.00  0.00    +0.000 A 
ATOM     14  C   UNL     1      23.910  11.797  37.447  0.00  0.00    +0.000 A 
ATOM     15  C   UNL     1      24.957  11.154  36.823  0.00  0.00    +0.000 A 
ATOM     16  C   UNL     1      24.746   9.926  36.250  0.00  0.00    +0.000 A 
ATOM     17  C   UNL     1      23.498   9.360  36.306  0.00  0.00    +0.000 A 
ATOM     18  C   UNL     1      22.469  10.023  36.935  0.00  0.00    +0.000 A 
ATOM     19  C   UNL     1      22.642  11.249  37.519  0.00  0.00    +0.000 A 
ENDBRANCH   8  10
BRANCH   6  20
ATOM     20  C   UNL     1      17.658  10.297  38.044  0.00  0.00    +0.000 C 
ATOM     21  N   UNL     1      17.823   9.335  37.012  0.00  0.00    +0.000 NA
ATOM     22  O   UNL     1      16.818  11.208  37.862  0.00  0.00    +0.000 OA
ENDBRANCH   6  20
TORSDOF 2
ENDMDL
MODEL 8
REMARK VINA RESULT:      -6.1     18.259     21.096
REMARK  Name = 
REMARK  2 active torsions:
REMARK  status: ('A' for Active; 'I' for Inactive)
REMARK    1  A    between atoms: C_6  and  C_7
REMARK    2  A    between atoms: N_11  and  C_12
REMARK                            x       y       z     vdW  Elec       q    Type
REMARK                         _______ _______ _______ _____ _____    ______ ____
ROOT
ATOM      1  C   UNL     1      28.867  28.682  24.988  0.00  0.00    +0.000 C 
ATOM      2  C   UNL     1      28.575  27.428  24.267  0.00  0.00    +0.000 A 
ATOM      3  C   UNL     1      29.092  27.116  23.024  0.00  0.00    +0.000 A 
ATOM      4  C   UNL     1      28.770  25.920  22.415  0.00  0.00    +0.000 A 
ATOM      5  C   UNL     1      29.305  25.549  21.079  0.00  0.00    +0.000 C 
ATOM      6  C   UNL     1      27.927  25.032  23.048  0.00  0.00    +0.000 A 
ATOM      7  C   UNL     1      27.433  25.373  24.278  0.00  0.00    +0.000 A 
ATOM      8  N   UNL     1      26.579  24.492  24.941  0.00  0.00    +0.000 NA
ATOM      9  N   UNL     1      27.750  26.536  24.865  0.00  0.00    +0.000 NA
ENDROOT
BRANCH   8  10
ATOM     10  C   UNL     1      25.999  24.722  26.214  0.00  0.00    +0.000 A 
ATOM     11  C   UNL     1      25.007  25.671  26.310  0.00  0.00    +0.000 A 
ATOM     12  C   UNL     1      24.400  25.945  27.520  0.00  0.00    +0.000 A 
ATOM     13  C   UNL     1      24.794  25.259  28.640  0.00  0.00    +0.000 A 
ATOM     14  C   UNL     1      25.794  24.288  28.596  0.00  0.00    +0.000 A 
ATOM     15  C   UNL     1      26.184  23.604  29.727  0.00  0.00    +0.000 A 
ATOM     16  C   UNL     1      27.173  22.658  29.634  0.00  0.00    +0.000 A 
ATOM     17  C   UNL     1      27.757  22.409  28.418  0.00  0.00    +0.000 A 
ATOM     18  C   UNL     1      27.350  23.107  27.303  0.00  0.00    +0.000 A 
ATOM     19  C   UNL     1      26.365  24.057  27.358  0.00  0.00    +0.000 A 
ENDBRANCH   8  10
BRANCH   6  20
ATOM     20  C   UNL     1      27.568  23.746  22.414  0.00  0.00    +0.000 C 
ATOM     21  N   UNL     1      26.395  23.612  21.626  0.00  0.00    +0.000 NA
ATOM     22  O   UNL     1      28.292  22.734  22.555  0.00  0.00    +0.000 OA
ENDBRANCH   6  20
TORSDOF 2
ENDMDL
MODEL 9
REMARK VINA RESULT:      -6.1     21.312     23.225
REMARK  Name = 
REMARK  2 active torsions:
REMARK  status: ('A' for Active; 'I' for Inactive)
REMARK    1  A    between atoms: C_6  and  C_7
REMARK    2  A    between atoms: N_11  and  C_12
REMARK                            x       y       z     vdW  Elec       q    Type
REMARK                         _______ _______ _______ _____ _____    ______ ____
ROOT
ATOM      1  C   UNL     1      28.281   0.560  16.733  0.00  0.00    +0.000 C 
ATOM      2  C   UNL     1      26.870   0.962  16.884  0.00  0.00    +0.000 A 
ATOM      3  C   UNL     1      25.806   0.083  16.801  0.00  0.00    +0.000 A 
ATOM      4  C   UNL     1      24.512   0.538  16.953  0.00  0.00    +0.000 A 
ATOM      5  C   UNL     1      23.343  -0.375  16.871  0.00  0.00    +0.000 C 
ATOM      6  C   UNL     1      24.277   1.877  17.187  0.00  0.00    +0.000 A 
ATOM      7  C   UNL     1      25.354   2.719  17.262  0.00  0.00    +0.000 A 
ATOM      8  N   UNL     1      25.145   4.077  17.498  0.00  0.00    +0.000 NA
ATOM      9  N   UNL     1      26.609   2.270  17.114  0.00  0.00    +0.000 NA
ENDROOT
BRANCH   8  10
ATOM     10  C   UNL     1      26.167   5.054  17.598  0.00  0.00    +0.000 A 
ATOM     11  C   UNL     1      26.751   5.255  18.828  0.00  0.00    +0.000 A 
ATOM     12  C   UNL     1      27.752   6.192  18.994  0.00  0.00    +0.000 A 
ATOM     13  C   UNL     1      28.168   6.931  17.917  0.00  0.00    +0.000 A 
ATOM     14  C   UNL     1      27.609   6.766  16.650  0.00  0.00    +0.000 A 
ATOM     15  C   UNL     1      28.032   7.513  15.572  0.00  0.00    +0.000 A 
ATOM     16  C   UNL     1      27.452   7.314  14.346  0.00  0.00    +0.000 A 
ATOM     17  C   UNL     1      26.459   6.377  14.212  0.00  0.00    +0.000 A 
ATOM     18  C   UNL     1      26.054   5.643  15.304  0.00  0.00    +0.000 A 
ATOM     19  C   UNL     1      26.611   5.814  16.544  0.00  0.00    +0.000 A 
ENDBRANCH   8  10
BRANCH   6  20
ATOM     20  C   UNL     1      22.900   2.387  17.352  0.00  0.00    +0.000 C 
ATOM     21  N   UNL     1      22.129   2.809  16.236  0.00  0.00    +0.000 NA
ATOM     22  O   UNL     1      22.372   2.460  18.485  0.00  0.00    +0.000 OA
ENDBRANCH   6  20
TORSDOF 2
ENDMDL
MODEL 10
REMARK VINA RESULT:      -6.1     16.415     19.100
REMARK  Name = 
REMARK  2 active torsions:
REMARK  status: ('A' for Active; 'I' for Inactive)
REMARK    1  A    between atoms: C_6  and  C_7
REMARK    2  A    between atoms: N_11  and  C_12
REMARK                            x       y       z     vdW  Elec       q    Type
REMARK                         _______ _______ _______ _____ _____    ______ ____
ROOT
ATOM      1  C   UNL     1      28.192  27.799  27.923  0.00  0.00    +0.000 C 
ATOM      2  C   UNL     1      27.941  26.532  28.636  0.00  0.00    +0.000 A 
ATOM      3  C   UNL     1      27.495  26.458  29.942  0.00  0.00    +0.000 A 
ATOM      4  C   UNL     1      27.285  25.231  30.539  0.00  0.00    +0.000 A 
ATOM      5  C   UNL     1      26.805  25.111  31.940  0.00  0.00    +0.000 C 
ATOM      6  C   UNL     1      27.523  24.073  29.831  0.00  0.00    +0.000 A 
ATOM      7  C   UNL     1      27.965  24.183  28.540  0.00  0.00    +0.000 A 
ATOM      8  N   UNL     1      28.213  23.027  27.800  0.00  0.00    +0.000 NA
ATOM      9  N   UNL     1      28.167  25.377  27.966  0.00  0.00    +0.000 NA
ENDROOT
BRANCH   8  10
ATOM     10  C   UNL     1      28.673  22.999  26.460  0.00  0.00    +0.000 A 
ATOM     11  C   UNL     1      30.019  22.810  26.243  0.00  0.00    +0.000 A 
ATOM     12  C   UNL     1      30.534  22.774  24.961  0.00  0.00    +0.000 A 
ATOM     13  C   UNL     1      29.689  22.929  23.893  0.00  0.00    +0.000 A 
ATOM     14  C   UNL     1      28.318  23.123  24.059  0.00  0.00    +0.000 A 
ATOM     15  C   UNL     1      27.475  23.278  22.980  0.00  0.00    +0.000 A 
ATOM     16  C   UNL     1      26.134  23.466  23.194  0.00  0.00    +0.000 A 
ATOM     17  C   UNL     1      25.653  23.498  24.478  0.00  0.00    +0.000 A 
ATOM     18  C   UNL     1      26.515  23.341  25.540  0.00  0.00    +0.000 A 
ATOM     19  C   UNL     1      27.860  23.150  25.365  0.00  0.00    +0.000 A 
ENDBRANCH   8  10
BRANCH   6  20
ATOM     20  C   UNL     1      27.306  22.749  30.450  0.00  0.00    +0.000 C 
ATOM     21  N   UNL     1      26.009  22.178  30.540  0.00  0.00    +0.000 NA
ATOM     22  O   UNL     1      28.265  22.090  30.914  0.00  0.00    +0.000 OA
ENDBRANCH   6  20
TORSDOF 2
ENDMDL
