MODEL 1
REMARK VINA RESULT:      -7.6      0.000      0.000
REMARK  Name = 
REMARK  7 active torsions:
REMARK  status: ('A' for Active; 'I' for Inactive)
REMARK    1  A    between atoms: C_3  and  C_4
REMARK    2  A    between atoms: N_6  and  C_7
REMARK    3  A    between atoms: C_7  and  C_8
REMARK    4  A    between atoms: C_8  and  C_9
REMARK    5  A    between atoms: C_9  and  N_10
REMARK    6  A    between atoms: C_18  and  C_19
REMARK    7  A    between atoms: N_25  and  C_26
REMARK                            x       y       z     vdW  Elec       q    Type
REMARK                         _______ _______ _______ _____ _____    ______ ____
ROOT
ATOM      1  C   UNL     1      28.475  15.651  39.163  0.00  0.00    +0.000 C 
ATOM      2  C   UNL     1      27.265  15.479  38.290  0.00  0.00    +0.000 A 
ATOM      3  C   UNL     1      26.001  15.092  38.693  0.00  0.00    +0.000 A 
ATOM      4  C   UNL     1      25.269  15.088  37.524  0.00  0.00    +0.000 A 
ATOM      5  C   UNL     1      26.041  15.452  36.456  0.00  0.00    +0.000 A 
ATOM      6  N   UNL     1      27.271  15.691  36.940  0.00  0.00    +0.000 N 
ENDROOT
BRANCH   5   7
ATOM      7  C   UNL     1      25.668  15.575  35.049  0.00  0.00    +0.000 A 
ATOM      8  C   UNL     1      25.773  14.517  34.167  0.00  0.00    +0.000 A 
ATOM      9  C   UNL     1      25.413  14.644  32.833  0.00  0.00    +0.000 A 
ATOM     10  C   UNL     1      24.935  15.834  32.336  0.00  0.00    +0.000 A 
ATOM     11  C   UNL     1      24.826  16.896  33.203  0.00  0.00    +0.000 A 
ATOM     12  C   UNL     1      25.187  16.752  34.525  0.00  0.00    +0.000 A 
ENDBRANCH   5   7
BRANCH   6  13
ATOM     13  C   UNL     1      28.402  16.103  36.158  0.00  0.00    +0.000 A 
ATOM     14  C   UNL     1      28.678  17.395  35.844  0.00  0.00    +0.000 A 
ATOM     15  C   UNL     1      29.788  17.693  35.089  0.00  0.00    +0.000 A 
ATOM     16  C   UNL     1      30.634  16.666  34.643  0.00  0.00    +0.000 A 
ATOM     17  C   UNL     1      30.350  15.361  34.962  0.00  0.00    +0.000 A 
ATOM     18  C   UNL     1      29.243  15.107  35.712  0.00  0.00    +0.000 A 
ENDBRANCH   6  13
BRANCH   3  19
ATOM     19  C   UNL     1      25.611  14.777  40.062  0.00  0.00    +0.000 C 
ATOM     20  O   UNL     1      25.023  15.601  40.804  0.00  0.00    +0.000 OA
ATOM     21  N   UNL     1      25.894  13.494  40.612  0.00  0.00    +0.000 NA
BRANCH  21  22
ATOM     22  C   UNL     1      25.555  13.088  41.940  0.00  0.00    +0.000 C 
BRANCH  22  23
ATOM     23  C   UNL     1      26.117  11.670  42.122  0.00  0.00    +0.000 C 
BRANCH  23  24
ATOM     24  C   UNL     1      27.503  11.723  41.480  0.00  0.00    +0.000 C 
BRANCH  24  25
ATOM     25  N   UNL     1      27.894  10.534  40.983  0.00  0.00    +0.000 NA
ATOM     26  C   UNL     1      27.257   9.355  40.953  0.00  0.00    +0.000 C 
ATOM     27  C   UNL     1      27.770   8.445  42.068  0.00  0.00    +0.000 C 
ATOM     28  C   UNL     1      29.263   8.816  42.163  0.00  0.00    +0.000 C 
ATOM     29  C   UNL     1      29.686   9.029  40.744  0.00  0.00    +0.000 C 
ATOM     30  C   UNL     1      29.288  10.550  40.317  0.00  0.00    +0.000 C 
ATOM     31  C   UNL     1      30.025  11.224  41.610  0.00  0.00    +0.000 C 
ENDBRANCH  24  25
ENDBRANCH  23  24
ENDBRANCH  22  23
ENDBRANCH  21  22
ENDBRANCH   3  19
TORSDOF 7
ENDMDL
MODEL 2
REMARK VINA RESULT:      -7.6     25.873     28.740
REMARK  Name = 
REMARK  7 active torsions:
REMARK  status: ('A' for Active; 'I' for Inactive)
REMARK    1  A    between atoms: C_3  and  C_4
REMARK    2  A    between atoms: N_6  and  C_7
REMARK    3  A    between atoms: C_7  and  C_8
REMARK    4  A    between atoms: C_8  and  C_9
REMARK    5  A    between atoms: C_9  and  N_10
REMARK    6  A    between atoms: C_18  and  C_19
REMARK    7  A    between atoms: N_25  and  C_26
REMARK                            x       y       z     vdW  Elec       q    Type
REMARK                         _______ _______ _______ _____ _____    ______ ____
ROOT
ATOM      1  C   UNL     1      35.899   0.220  16.602  0.00  0.00    +0.000 C 
ATOM      2  C   UNL     1      37.079   0.233  15.675  0.00  0.00    +0.000 A 
ATOM      3  C   UNL     1      37.749   1.344  15.201  0.00  0.00    +0.000 A 
ATOM      4  C   UNL     1      38.738   0.817  14.397  0.00  0.00    +0.000 A 
ATOM      5  C   UNL     1      38.681  -0.550  14.376  0.00  0.00    +0.000 A 
ATOM      6  N   UNL     1      37.654  -0.899  15.168  0.00  0.00    +0.000 N 
ENDROOT
BRANCH   5   7
ATOM      7  C   UNL     1      39.532  -1.496  13.659  0.00  0.00    +0.000 A 
ATOM      8  C   UNL     1      40.629  -2.092  14.251  0.00  0.00    +0.000 A 
ATOM      9  C   UNL     1      41.428  -2.991  13.561  0.00  0.00    +0.000 A 
ATOM     10  C   UNL     1      41.157  -3.326  12.255  0.00  0.00    +0.000 A 
ATOM     11  C   UNL     1      40.069  -2.740  11.652  0.00  0.00    +0.000 A 
ATOM     12  C   UNL     1      39.285  -1.850  12.353  0.00  0.00    +0.000 A 
ENDBRANCH   5   7
BRANCH   6  13
ATOM     13  C   UNL     1      37.236  -2.246  15.433  0.00  0.00    +0.000 A 
ATOM     14  C   UNL     1      37.703  -2.998  16.463  0.00  0.00    +0.000 A 
ATOM     15  C   UNL     1      37.242  -4.281  16.638  0.00  0.00    +0.000 A 
ATOM     16  C   UNL     1      36.290  -4.815  15.755  0.00  0.00    +0.000 A 
ATOM     17  C   UNL     1      35.821  -4.051  14.715  0.00  0.00    +0.000 A 
ATOM     18  C   UNL     1      36.302  -2.786  14.576  0.00  0.00    +0.000 A 
ENDBRANCH   6  13
BRANCH   3  19
ATOM     19  C   UNL     1      37.421   2.728  15.523  0.00  0.00    +0.000 C 
ATOM     20  O   UNL     1      36.468   3.341  14.984  0.00  0.00    +0.000 OA
ATOM     21  N   UNL     1      38.193   3.443  16.484  0.00  0.00    +0.000 NA
BRANCH  21  22
ATOM     22  C   UNL     1      37.955   4.799  16.869  0.00  0.00    +0.000 C 
BRANCH  22  23
ATOM     23  C   UNL     1      38.893   5.091  18.048  0.00  0.00    +0.000 C 
BRANCH  23  24
ATOM     24  C   UNL     1      38.620   6.553  18.402  0.00  0.00    +0.000 C 
BRANCH  24  25
ATOM     25  N   UNL     1      39.743   7.295  18.458  0.00  0.00    +0.000 NA
ATOM     26  C   UNL     1      40.945   7.092  17.902  0.00  0.00    +0.000 C 
ATOM     27  C   UNL     1      41.918   6.523  18.934  0.00  0.00    +0.000 C 
ATOM     28  C   UNL     1      41.482   7.212  20.242  0.00  0.00    +0.000 C 
ATOM     29  C   UNL     1      41.130   8.606  19.831  0.00  0.00    +0.000 C 
ATOM     30  C   UNL     1      39.601   8.601  19.270  0.00  0.00    +0.000 C 
ATOM     31  C   UNL     1      39.002   7.851  20.592  0.00  0.00    +0.000 C 
ENDBRANCH  24  25
ENDBRANCH  23  24
ENDBRANCH  22  23
ENDBRANCH  21  22
ENDBRANCH   3  19
TORSDOF 7
ENDMDL
MODEL 3
REMARK VINA RESULT:      -7.5     25.785     28.569
REMARK  Name = 
REMARK  7 active torsions:
REMARK  status: ('A' for Active; 'I' for Inactive)
REMARK    1  A    between atoms: C_3  and  C_4
REMARK    2  A    between atoms: N_6  and  C_7
REMARK    3  A    between atoms: C_7  and  C_8
REMARK    4  A    between atoms: C_8  and  C_9
REMARK    5  A    between atoms: C_9  and  N_10
REMARK    6  A    between atoms: C_18  and  C_19
REMARK    7  A    between atoms: N_25  and  C_26
REMARK                            x       y       z     vdW  Elec       q    Type
REMARK                         _______ _______ _______ _____ _____    ______ ____
ROOT
ATOM      1  C   UNL     1      39.510   1.559  13.970  0.00  0.00    +0.000 C 
ATOM      2  C   UNL     1      38.433   0.773  14.659  0.00  0.00    +0.000 A 
ATOM      3  C   UNL     1      37.401   1.278  15.428  0.00  0.00    +0.000 A 
ATOM      4  C   UNL     1      36.703   0.157  15.823  0.00  0.00    +0.000 A 
ATOM      5  C   UNL     1      37.274  -0.982  15.324  0.00  0.00    +0.000 A 
ATOM      6  N   UNL     1      38.341  -0.589  14.608  0.00  0.00    +0.000 N 
ENDROOT
BRANCH   5   7
ATOM      7  C   UNL     1      36.861  -2.372  15.498  0.00  0.00    +0.000 A 
ATOM      8  C   UNL     1      37.415  -3.187  16.467  0.00  0.00    +0.000 A 
ATOM      9  C   UNL     1      37.013  -4.505  16.625  0.00  0.00    +0.000 A 
ATOM     10  C   UNL     1      36.042  -5.053  15.819  0.00  0.00    +0.000 A 
ATOM     11  C   UNL     1      35.482  -4.254  14.851  0.00  0.00    +0.000 A 
ATOM     12  C   UNL     1      35.893  -2.947  14.708  0.00  0.00    +0.000 A 
ENDBRANCH   5   7
BRANCH   6  13
ATOM     13  C   UNL     1      39.233  -1.467  13.905  0.00  0.00    +0.000 A 
ATOM     14  C   UNL     1      39.034  -1.892  12.631  0.00  0.00    +0.000 A 
ATOM     15  C   UNL     1      39.947  -2.733  12.040  0.00  0.00    +0.000 A 
ATOM     16  C   UNL     1      41.082  -3.152  12.750  0.00  0.00    +0.000 A 
ATOM     17  C   UNL     1      41.279  -2.720  14.038  0.00  0.00    +0.000 A 
ATOM     18  C   UNL     1      40.354  -1.889  14.588  0.00  0.00    +0.000 A 
ENDBRANCH   6  13
BRANCH   3  19
ATOM     19  C   UNL     1      37.173   2.690  15.710  0.00  0.00    +0.000 C 
ATOM     20  O   UNL     1      36.267   3.355  15.150  0.00  0.00    +0.000 OA
ATOM     21  N   UNL     1      37.992   3.376  16.652  0.00  0.00    +0.000 NA
BRANCH  21  22
ATOM     22  C   UNL     1      37.851   4.756  16.998  0.00  0.00    +0.000 C 
BRANCH  22  23
ATOM     23  C   UNL     1      38.916   5.052  18.064  0.00  0.00    +0.000 C 
BRANCH  23  24
ATOM     24  C   UNL     1      38.642   6.494  18.489  0.00  0.00    +0.000 C 
BRANCH  24  25
ATOM     25  N   UNL     1      39.755   7.252  18.514  0.00  0.00    +0.000 NA
ATOM     26  C   UNL     1      40.960   7.040  17.967  0.00  0.00    +0.000 C 
ATOM     27  C   UNL     1      41.940   6.526  19.021  0.00  0.00    +0.000 C 
ATOM     28  C   UNL     1      41.494   7.262  20.300  0.00  0.00    +0.000 C 
ATOM     29  C   UNL     1      41.126   8.634  19.832  0.00  0.00    +0.000 C 
ATOM     30  C   UNL     1      39.597   8.588  19.272  0.00  0.00    +0.000 C 
ATOM     31  C   UNL     1      39.007   7.886  20.623  0.00  0.00    +0.000 C 
ENDBRANCH  24  25
ENDBRANCH  23  24
ENDBRANCH  22  23
ENDBRANCH  21  22
ENDBRANCH   3  19
TORSDOF 7
ENDMDL
MODEL 4
REMARK VINA RESULT:      -7.5     24.631     27.067
REMARK  Name = 
REMARK  7 active torsions:
REMARK  status: ('A' for Active; 'I' for Inactive)
REMARK    1  A    between atoms: C_3  and  C_4
REMARK    2  A    between atoms: N_6  and  C_7
REMARK    3  A    between atoms: C_7  and  C_8
REMARK    4  A    between atoms: C_8  and  C_9
REMARK    5  A    between atoms: C_9  and  N_10
REMARK    6  A    between atoms: C_18  and  C_19
REMARK    7  A    between atoms: N_25  and  C_26
REMARK                            x       y       z     vdW  Elec       q    Type
REMARK                         _______ _______ _______ _____ _____    ______ ____
ROOT
ATOM      1  C   UNL     1      39.792   4.199  13.886  0.00  0.00    +0.000 C 
ATOM      2  C   UNL     1      39.138   4.429  15.218  0.00  0.00    +0.000 A 
ATOM      3  C   UNL     1      38.133   3.672  15.789  0.00  0.00    +0.000 A 
ATOM      4  C   UNL     1      37.893   4.296  16.995  0.00  0.00    +0.000 A 
ATOM      5  C   UNL     1      38.708   5.382  17.159  0.00  0.00    +0.000 A 
ATOM      6  N   UNL     1      39.472   5.455  16.057  0.00  0.00    +0.000 N 
ENDROOT
BRANCH   5   7
ATOM      7  C   UNL     1      38.782   6.317  18.280  0.00  0.00    +0.000 A 
ATOM      8  C   UNL     1      39.718   6.182  19.287  0.00  0.00    +0.000 A 
ATOM      9  C   UNL     1      39.782   7.077  20.345  0.00  0.00    +0.000 A 
ATOM     10  C   UNL     1      38.910   8.138  20.431  0.00  0.00    +0.000 A 
ATOM     11  C   UNL     1      37.973   8.284  19.436  0.00  0.00    +0.000 A 
ATOM     12  C   UNL     1      37.925   7.386  18.392  0.00  0.00    +0.000 A 
ENDBRANCH   5   7
BRANCH   6  13
ATOM     13  C   UNL     1      40.474   6.452  15.810  0.00  0.00    +0.000 A 
ATOM     14  C   UNL     1      40.241   7.617  15.153  0.00  0.00    +0.000 A 
ATOM     15  C   UNL     1      41.266   8.514  14.966  0.00  0.00    +0.000 A 
ATOM     16  C   UNL     1      42.552   8.226  15.450  0.00  0.00    +0.000 A 
ATOM     17  C   UNL     1      42.783   7.046  16.112  0.00  0.00    +0.000 A 
ATOM     18  C   UNL     1      41.742   6.186  16.279  0.00  0.00    +0.000 A 
ENDBRANCH   6  13
BRANCH   3  19
ATOM     19  C   UNL     1      37.518   2.495  15.187  0.00  0.00    +0.000 C 
ATOM     20  O   UNL     1      36.774   2.561  14.178  0.00  0.00    +0.000 OA
ATOM     21  N   UNL     1      37.747   1.202  15.741  0.00  0.00    +0.000 NA
BRANCH  21  22
ATOM     22  C   UNL     1      37.192  -0.011  15.228  0.00  0.00    +0.000 C 
BRANCH  22  23
ATOM     23  C   UNL     1      36.111  -0.455  16.224  0.00  0.00    +0.000 C 
BRANCH  23  24
ATOM     24  C   UNL     1      35.819  -1.908  15.850  0.00  0.00    +0.000 C 
BRANCH  24  25
ATOM     25  N   UNL     1      36.385  -2.789  16.697  0.00  0.00    +0.000 NA
ATOM     26  C   UNL     1      37.010  -2.589  17.866  0.00  0.00    +0.000 C 
ATOM     27  C   UNL     1      38.525  -2.628  17.672  0.00  0.00    +0.000 C 
ATOM     28  C   UNL     1      38.708  -3.683  16.564  0.00  0.00    +0.000 C 
ATOM     29  C   UNL     1      37.693  -4.735  16.877  0.00  0.00    +0.000 C 
ATOM     30  C   UNL     1      36.262  -4.264  16.255  0.00  0.00    +0.000 C 
ATOM     31  C   UNL     1      36.876  -3.990  14.766  0.00  0.00    +0.000 C 
ENDBRANCH  24  25
ENDBRANCH  23  24
ENDBRANCH  22  23
ENDBRANCH  21  22
ENDBRANCH   3  19
TORSDOF 7
ENDMDL
MODEL 5
REMARK VINA RESULT:      -7.3     24.299     26.940
REMARK  Name = 
REMARK  7 active torsions:
REMARK  status: ('A' for Active; 'I' for Inactive)
REMARK    1  A    between atoms: C_3  and  C_4
REMARK    2  A    between atoms: N_6  and  C_7
REMARK    3  A    between atoms: C_7  and  C_8
REMARK    4  A    between atoms: C_8  and  C_9
REMARK    5  A    between atoms: C_9  and  N_10
REMARK    6  A    between atoms: C_18  and  C_19
REMARK    7  A    between atoms: N_25  and  C_26
REMARK                            x       y       z     vdW  Elec       q    Type
REMARK                         _______ _______ _______ _____ _____    ______ ____
ROOT
ATOM      1  C   UNL     1      40.595   4.605  13.705  0.00  0.00    +0.000 C 
ATOM      2  C   UNL     1      39.850   4.674  15.007  0.00  0.00    +0.000 A 
ATOM      3  C   UNL     1      38.902   3.781  15.468  0.00  0.00    +0.000 A 
ATOM      4  C   UNL     1      38.533   4.292  16.694  0.00  0.00    +0.000 A 
ATOM      5  C   UNL     1      39.218   5.443  16.975  0.00  0.00    +0.000 A 
ATOM      6  N   UNL     1      40.028   5.669  15.927  0.00  0.00    +0.000 N 
ENDROOT
BRANCH   5   7
ATOM      7  C   UNL     1      39.132   6.300  18.154  0.00  0.00    +0.000 A 
ATOM      8  C   UNL     1      38.168   7.282  18.279  0.00  0.00    +0.000 A 
ATOM      9  C   UNL     1      38.094   8.089  19.405  0.00  0.00    +0.000 A 
ATOM     10  C   UNL     1      38.983   7.941  20.445  0.00  0.00    +0.000 A 
ATOM     11  C   UNL     1      39.948   6.968  20.334  0.00  0.00    +0.000 A 
ATOM     12  C   UNL     1      40.006   6.175  19.209  0.00  0.00    +0.000 A 
ENDBRANCH   5   7
BRANCH   6  13
ATOM     13  C   UNL     1      40.930   6.778  15.804  0.00  0.00    +0.000 A 
ATOM     14  C   UNL     1      40.586   7.983  15.282  0.00  0.00    +0.000 A 
ATOM     15  C   UNL     1      41.521   8.989  15.207  0.00  0.00    +0.000 A 
ATOM     16  C   UNL     1      42.829   8.771  15.668  0.00  0.00    +0.000 A 
ATOM     17  C   UNL     1      43.172   7.551  16.194  0.00  0.00    +0.000 A 
ATOM     18  C   UNL     1      42.219   6.582  16.252  0.00  0.00    +0.000 A 
ENDBRANCH   6  13
BRANCH   3  19
ATOM     19  C   UNL     1      38.449   2.591  14.757  0.00  0.00    +0.000 C 
ATOM     20  O   UNL     1      37.414   2.580  14.048  0.00  0.00    +0.000 OA
ATOM     21  N   UNL     1      39.186   1.375  14.850  0.00  0.00    +0.000 NA
BRANCH  21  22
ATOM     22  C   UNL     1      38.827   0.156  14.194  0.00  0.00    +0.000 C 
BRANCH  22  23
ATOM     23  C   UNL     1      38.534  -0.867  15.301  0.00  0.00    +0.000 C 
BRANCH  23  24
ATOM     24  C   UNL     1      37.011  -0.996  15.310  0.00  0.00    +0.000 C 
BRANCH  24  25
ATOM     25  N   UNL     1      36.529  -1.398  16.501  0.00  0.00    +0.000 NA
ATOM     26  C   UNL     1      36.074  -2.597  16.893  0.00  0.00    +0.000 C 
ATOM     27  C   UNL     1      34.546  -2.616  16.878  0.00  0.00    +0.000 C 
ATOM     28  C   UNL     1      34.175  -1.179  17.292  0.00  0.00    +0.000 C 
ATOM     29  C   UNL     1      35.180  -0.820  18.339  0.00  0.00    +0.000 C 
ATOM     30  C   UNL     1      36.532  -0.304  17.591  0.00  0.00    +0.000 C 
ATOM     31  C   UNL     1      35.737   0.783  16.665  0.00  0.00    +0.000 C 
ENDBRANCH  24  25
ENDBRANCH  23  24
ENDBRANCH  22  23
ENDBRANCH  21  22
ENDBRANCH   3  19
TORSDOF 7
ENDMDL
MODEL 6
REMARK VINA RESULT:      -7.2      0.613      1.382
REMARK  Name = 
REMARK  7 active torsions:
REMARK  status: ('A' for Active; 'I' for Inactive)
REMARK    1  A    between atoms: C_3  and  C_4
REMARK    2  A    between atoms: N_6  and  C_7
REMARK    3  A    between atoms: C_7  and  C_8
REMARK    4  A    between atoms: C_8  and  C_9
REMARK    5  A    between atoms: C_9  and  N_10
REMARK    6  A    between atoms: C_18  and  C_19
REMARK    7  A    between atoms: N_25  and  C_26
REMARK                            x       y       z     vdW  Elec       q    Type
REMARK                         _______ _______ _______ _____ _____    ______ ____
ROOT
ATOM      1  C   UNL     1      28.660  15.716  39.063  0.00  0.00    +0.000 C 
ATOM      2  C   UNL     1      27.436  15.488  38.224  0.00  0.00    +0.000 A 
ATOM      3  C   UNL     1      26.221  14.986  38.650  0.00  0.00    +0.000 A 
ATOM      4  C   UNL     1      25.448  14.975  37.509  0.00  0.00    +0.000 A 
ATOM      5  C   UNL     1      26.150  15.447  36.433  0.00  0.00    +0.000 A 
ATOM      6  N   UNL     1      27.375  15.760  36.886  0.00  0.00    +0.000 N 
ENDROOT
BRANCH   5   7
ATOM      7  C   UNL     1      25.716  15.602  35.047  0.00  0.00    +0.000 A 
ATOM      8  C   UNL     1      25.770  14.562  34.140  0.00  0.00    +0.000 A 
ATOM      9  C   UNL     1      25.353  14.720  32.826  0.00  0.00    +0.000 A 
ATOM     10  C   UNL     1      24.866  15.925  32.375  0.00  0.00    +0.000 A 
ATOM     11  C   UNL     1      24.807  16.970  33.267  0.00  0.00    +0.000 A 
ATOM     12  C   UNL     1      25.225  16.795  34.568  0.00  0.00    +0.000 A 
ENDBRANCH   5   7
BRANCH   6  13
ATOM     13  C   UNL     1      28.440  16.294  36.087  0.00  0.00    +0.000 A 
ATOM     14  C   UNL     1      28.654  17.621  35.895  0.00  0.00    +0.000 A 
ATOM     15  C   UNL     1      29.704  18.039  35.111  0.00  0.00    +0.000 A 
ATOM     16  C   UNL     1      30.553  17.097  34.510  0.00  0.00    +0.000 A 
ATOM     17  C   UNL     1      30.333  15.756  34.707  0.00  0.00    +0.000 A 
ATOM     18  C   UNL     1      29.284  15.383  35.489  0.00  0.00    +0.000 A 
ENDBRANCH   6  13
BRANCH   3  19
ATOM     19  C   UNL     1      25.908  14.580  40.016  0.00  0.00    +0.000 C 
ATOM     20  O   UNL     1      25.370  15.354  40.845  0.00  0.00    +0.000 OA
ATOM     21  N   UNL     1      26.213  13.262  40.461  0.00  0.00    +0.000 NA
BRANCH  21  22
ATOM     22  C   UNL     1      25.948  12.768  41.776  0.00  0.00    +0.000 C 
BRANCH  22  23
ATOM     23  C   UNL     1      27.310  12.598  42.464  0.00  0.00    +0.000 C 
BRANCH  23  24
ATOM     24  C   UNL     1      27.390  11.108  42.791  0.00  0.00    +0.000 C 
BRANCH  24  25
ATOM     25  N   UNL     1      28.584  10.568  42.479  0.00  0.00    +0.000 NA
ATOM     26  C   UNL     1      29.716  11.151  42.057  0.00  0.00    +0.000 C 
ATOM     27  C   UNL     1      29.859  10.997  40.543  0.00  0.00    +0.000 C 
ATOM     28  C   UNL     1      29.242   9.611  40.273  0.00  0.00    +0.000 C 
ATOM     29  C   UNL     1      29.682   8.773  41.430  0.00  0.00    +0.000 C 
ATOM     30  C   UNL     1      28.659   9.037  42.670  0.00  0.00    +0.000 C 
ATOM     31  C   UNL     1      27.325   8.744  41.774  0.00  0.00    +0.000 C 
ENDBRANCH  24  25
ENDBRANCH  23  24
ENDBRANCH  22  23
ENDBRANCH  21  22
ENDBRANCH   3  19
TORSDOF 7
ENDMDL
MODEL 7
REMARK VINA RESULT:      -7.1     25.055     27.708
REMARK  Name = 
REMARK  7 active torsions:
REMARK  status: ('A' for Active; 'I' for Inactive)
REMARK    1  A    between atoms: C_3  and  C_4
REMARK    2  A    between atoms: N_6  and  C_7
REMARK    3  A    between atoms: C_7  and  C_8
REMARK    4  A    between atoms: C_8  and  C_9
REMARK    5  A    between atoms: C_9  and  N_10
REMARK    6  A    between atoms: C_18  and  C_19
REMARK    7  A    between atoms: N_25  and  C_26
REMARK                            x       y       z     vdW  Elec       q    Type
REMARK                         _______ _______ _______ _____ _____    ______ ____
ROOT
ATOM      1  C   UNL     1      38.271   4.011  13.749  0.00  0.00    +0.000 C 
ATOM      2  C   UNL     1      38.103   4.201  15.229  0.00  0.00    +0.000 A 
ATOM      3  C   UNL     1      37.323   3.442  16.079  0.00  0.00    +0.000 A 
ATOM      4  C   UNL     1      37.515   4.024  17.314  0.00  0.00    +0.000 A 
ATOM      5  C   UNL     1      38.370   5.088  17.230  0.00  0.00    +0.000 A 
ATOM      6  N   UNL     1      38.727   5.188  15.939  0.00  0.00    +0.000 N 
ENDROOT
BRANCH   5   7
ATOM      7  C   UNL     1      38.839   5.978  18.289  0.00  0.00    +0.000 A 
ATOM      8  C   UNL     1      38.173   7.143  18.619  0.00  0.00    +0.000 A 
ATOM      9  C   UNL     1      38.627   7.979  19.629  0.00  0.00    +0.000 A 
ATOM     10  C   UNL     1      39.763   7.678  20.344  0.00  0.00    +0.000 A 
ATOM     11  C   UNL     1      40.436   6.522  20.027  0.00  0.00    +0.000 A 
ATOM     12  C   UNL     1      39.971   5.703  19.021  0.00  0.00    +0.000 A 
ENDBRANCH   5   7
BRANCH   6  13
ATOM     13  C   UNL     1      39.619   6.176  15.402  0.00  0.00    +0.000 A 
ATOM     14  C   UNL     1      39.225   7.397  14.961  0.00  0.00    +0.000 A 
ATOM     15  C   UNL     1      40.155   8.279  14.464  0.00  0.00    +0.000 A 
ATOM     16  C   UNL     1      41.510   7.919  14.411  0.00  0.00    +0.000 A 
ATOM     17  C   UNL     1      41.905   6.682  14.859  0.00  0.00    +0.000 A 
ATOM     18  C   UNL     1      40.954   5.838  15.344  0.00  0.00    +0.000 A 
ENDBRANCH   6  13
BRANCH   3  19
ATOM     19  C   UNL     1      36.508   2.299  15.682  0.00  0.00    +0.000 C 
ATOM     20  O   UNL     1      35.473   2.418  14.981  0.00  0.00    +0.000 OA
ATOM     21  N   UNL     1      36.871   0.983  16.088  0.00  0.00    +0.000 NA
BRANCH  21  22
ATOM     22  C   UNL     1      36.141  -0.200  15.752  0.00  0.00    +0.000 C 
BRANCH  22  23
ATOM     23  C   UNL     1      36.945  -0.915  14.657  0.00  0.00    +0.000 C 
BRANCH  23  24
ATOM     24  C   UNL     1      38.397  -0.821  15.124  0.00  0.00    +0.000 C 
BRANCH  24  25
ATOM     25  N   UNL     1      39.275  -1.222  14.185  0.00  0.00    +0.000 NA
ATOM     26  C   UNL     1      39.796  -2.434  13.946  0.00  0.00    +0.000 C 
ATOM     27  C   UNL     1      41.206  -2.529  14.529  0.00  0.00    +0.000 C 
ATOM     28  C   UNL     1      41.760  -1.103  14.338  0.00  0.00    +0.000 C 
ATOM     29  C   UNL     1      41.234  -0.673  13.006  0.00  0.00    +0.000 C 
ATOM     30  C   UNL     1      39.721  -0.106  13.214  0.00  0.00    +0.000 C 
ATOM     31  C   UNL     1      40.153   0.920  14.410  0.00  0.00    +0.000 C 
ENDBRANCH  24  25
ENDBRANCH  23  24
ENDBRANCH  22  23
ENDBRANCH  21  22
ENDBRANCH   3  19
TORSDOF 7
ENDMDL
MODEL 8
REMARK VINA RESULT:      -7.0     24.938     27.628
REMARK  Name = 
REMARK  7 active torsions:
REMARK  status: ('A' for Active; 'I' for Inactive)
REMARK    1  A    between atoms: C_3  and  C_4
REMARK    2  A    between atoms: N_6  and  C_7
REMARK    3  A    between atoms: C_7  and  C_8
REMARK    4  A    between atoms: C_8  and  C_9
REMARK    5  A    between atoms: C_9  and  N_10
REMARK    6  A    between atoms: C_18  and  C_19
REMARK    7  A    between atoms: N_25  and  C_26
REMARK                            x       y       z     vdW  Elec       q    Type
REMARK                         _______ _______ _______ _____ _____    ______ ____
ROOT
ATOM      1  C   UNL     1      40.083   4.208  14.230  0.00  0.00    +0.000 C 
ATOM      2  C   UNL     1      39.313   4.505  15.484  0.00  0.00    +0.000 A 
ATOM      3  C   UNL     1      38.225   3.807  15.974  0.00  0.00    +0.000 A 
ATOM      4  C   UNL     1      37.895   4.478  17.133  0.00  0.00    +0.000 A 
ATOM      5  C   UNL     1      38.736   5.536  17.347  0.00  0.00    +0.000 A 
ATOM      6  N   UNL     1      39.606   5.543  16.323  0.00  0.00    +0.000 N 
ENDROOT
BRANCH   5   7
ATOM      7  C   UNL     1      38.741   6.502  18.443  0.00  0.00    +0.000 A 
ATOM      8  C   UNL     1      39.639   6.420  19.489  0.00  0.00    +0.000 A 
ATOM      9  C   UNL     1      39.636   7.344  20.524  0.00  0.00    +0.000 A 
ATOM     10  C   UNL     1      38.734   8.383  20.546  0.00  0.00    +0.000 A 
ATOM     11  C   UNL     1      37.834   8.477  19.511  0.00  0.00    +0.000 A 
ATOM     12  C   UNL     1      37.851   7.550  18.491  0.00  0.00    +0.000 A 
ENDBRANCH   5   7
BRANCH   6  13
ATOM     13  C   UNL     1      40.670   6.491  16.149  0.00  0.00    +0.000 A 
ATOM     14  C   UNL     1      41.932   6.311  16.615  0.00  0.00    +0.000 A 
ATOM     15  C   UNL     1      42.886   7.277  16.397  0.00  0.00    +0.000 A 
ATOM     16  C   UNL     1      42.558   8.447  15.696  0.00  0.00    +0.000 A 
ATOM     17  C   UNL     1      41.280   8.625  15.228  0.00  0.00    +0.000 A 
ATOM     18  C   UNL     1      40.365   7.646  15.463  0.00  0.00    +0.000 A 
ENDBRANCH   6  13
BRANCH   3  19
ATOM     19  C   UNL     1      37.622   2.637  15.348  0.00  0.00    +0.000 C 
ATOM     20  O   UNL     1      37.268   1.626  16.002  0.00  0.00    +0.000 OA
ATOM     21  N   UNL     1      37.413   2.605  13.939  0.00  0.00    +0.000 NA
BRANCH  21  22
ATOM     22  C   UNL     1      36.832   1.508  13.230  0.00  0.00    +0.000 C 
BRANCH  22  23
ATOM     23  C   UNL     1      37.996   0.634  12.741  0.00  0.00    +0.000 C 
BRANCH  23  24
ATOM     24  C   UNL     1      37.713  -0.746  13.333  0.00  0.00    +0.000 C 
BRANCH  24  25
ATOM     25  N   UNL     1      38.523  -1.047  14.366  0.00  0.00    +0.000 NA
ATOM     26  C   UNL     1      39.643  -0.447  14.794  0.00  0.00    +0.000 C 
ATOM     27  C   UNL     1      40.874  -1.213  14.310  0.00  0.00    +0.000 C 
ATOM     28  C   UNL     1      40.406  -2.680  14.341  0.00  0.00    +0.000 C 
ATOM     29  C   UNL     1      39.562  -2.779  15.571  0.00  0.00    +0.000 C 
ATOM     30  C   UNL     1      38.062  -2.261  15.203  0.00  0.00    +0.000 C 
ATOM     31  C   UNL     1      37.921  -3.247  13.908  0.00  0.00    +0.000 C 
ENDBRANCH  24  25
ENDBRANCH  23  24
ENDBRANCH  22  23
ENDBRANCH  21  22
ENDBRANCH   3  19
TORSDOF 7
ENDMDL
MODEL 9
REMARK VINA RESULT:      -7.0     20.232     22.731
REMARK  Name = 
REMARK  7 active torsions:
REMARK  status: ('A' for Active; 'I' for Inactive)
REMARK    1  A    between atoms: C_3  and  C_4
REMARK    2  A    between atoms: N_6  and  C_7
REMARK    3  A    between atoms: C_7  and  C_8
REMARK    4  A    between atoms: C_8  and  C_9
REMARK    5  A    between atoms: C_9  and  N_10
REMARK    6  A    between atoms: C_18  and  C_19
REMARK    7  A    between atoms: N_25  and  C_26
REMARK                            x       y       z     vdW  Elec       q    Type
REMARK                         _______ _______ _______ _____ _____    ______ ____
ROOT
ATOM      1  C   UNL     1      44.193   9.107  22.621  0.00  0.00    +0.000 C 
ATOM      2  C   UNL     1      43.592   7.915  21.934  0.00  0.00    +0.000 A 
ATOM      3  C   UNL     1      43.768   6.587  22.272  0.00  0.00    +0.000 A 
ATOM      4  C   UNL     1      43.013   5.905  21.342  0.00  0.00    +0.000 A 
ATOM      5  C   UNL     1      42.402   6.768  20.473  0.00  0.00    +0.000 A 
ATOM      6  N   UNL     1      42.767   8.006  20.848  0.00  0.00    +0.000 N 
ENDROOT
BRANCH   5   7
ATOM      7  C   UNL     1      41.523   6.471  19.346  0.00  0.00    +0.000 A 
ATOM      8  C   UNL     1      41.974   6.480  18.040  0.00  0.00    +0.000 A 
ATOM      9  C   UNL     1      41.131   6.194  16.977  0.00  0.00    +0.000 A 
ATOM     10  C   UNL     1      39.805   5.887  17.184  0.00  0.00    +0.000 A 
ATOM     11  C   UNL     1      39.342   5.874  18.478  0.00  0.00    +0.000 A 
ATOM     12  C   UNL     1      40.194   6.160  19.522  0.00  0.00    +0.000 A 
ENDBRANCH   5   7
BRANCH   6  13
ATOM     13  C   UNL     1      42.351   9.220  20.206  0.00  0.00    +0.000 A 
ATOM     14  C   UNL     1      41.199   9.877  20.497  0.00  0.00    +0.000 A 
ATOM     15  C   UNL     1      40.885  11.036  19.828  0.00  0.00    +0.000 A 
ATOM     16  C   UNL     1      41.752  11.541  18.846  0.00  0.00    +0.000 A 
ATOM     17  C   UNL     1      42.915  10.873  18.555  0.00  0.00    +0.000 A 
ATOM     18  C   UNL     1      43.190   9.729  19.239  0.00  0.00    +0.000 A 
ENDBRANCH   6  13
BRANCH   3  19
ATOM     19  C   UNL     1      44.585   6.100  23.378  0.00  0.00    +0.000 C 
ATOM     20  O   UNL     1      45.782   5.752  23.232  0.00  0.00    +0.000 OA
ATOM     21  N   UNL     1      44.034   6.000  24.688  0.00  0.00    +0.000 NA
BRANCH  21  22
ATOM     22  C   UNL     1      44.749   5.535  25.835  0.00  0.00    +0.000 C 
BRANCH  22  23
ATOM     23  C   UNL     1      43.821   4.550  26.561  0.00  0.00    +0.000 C 
BRANCH  23  24
ATOM     24  C   UNL     1      43.435   5.269  27.853  0.00  0.00    +0.000 C 
BRANCH  24  25
ATOM     25  N   UNL     1      42.185   4.976  28.260  0.00  0.00    +0.000 NA
ATOM     26  C   UNL     1      41.015   5.554  27.952  0.00  0.00    +0.000 C 
ATOM     27  C   UNL     1      40.577   6.495  29.074  0.00  0.00    +0.000 C 
ATOM     28  C   UNL     1      41.082   5.783  30.344  0.00  0.00    +0.000 C 
ATOM     29  C   UNL     1      40.843   4.331  30.079  0.00  0.00    +0.000 C 
ATOM     30  C   UNL     1      42.094   3.759  29.207  0.00  0.00    +0.000 C 
ATOM     31  C   UNL     1      43.220   4.334  30.241  0.00  0.00    +0.000 C 
ENDBRANCH  24  25
ENDBRANCH  23  24
ENDBRANCH  22  23
ENDBRANCH  21  22
ENDBRANCH   3  19
TORSDOF 7
ENDMDL
MODEL 10
REMARK VINA RESULT:      -6.9     24.534     27.044
REMARK  Name = 
REMARK  7 active torsions:
REMARK  status: ('A' for Active; 'I' for Inactive)
REMARK    1  A    between atoms: C_3  and  C_4
REMARK    2  A    between atoms: N_6  and  C_7
REMARK    3  A    between atoms: C_7  and  C_8
REMARK    4  A    between atoms: C_8  and  C_9
REMARK    5  A    between atoms: C_9  and  N_10
REMARK    6  A    between atoms: C_18  and  C_19
REMARK    7  A    between atoms: N_25  and  C_26
REMARK                            x       y       z     vdW  Elec       q    Type
REMARK                         _______ _______ _______ _____ _____    ______ ____
ROOT
ATOM      1  C   UNL     1      36.828   4.985  14.269  0.00  0.00    +0.000 C 
ATOM      2  C   UNL     1      37.463   4.813  15.618  0.00  0.00    +0.000 A 
ATOM      3  C   UNL     1      37.216   3.802  16.528  0.00  0.00    +0.000 A 
ATOM      4  C   UNL     1      38.043   4.103  17.589  0.00  0.00    +0.000 A 
ATOM      5  C   UNL     1      38.764   5.240  17.347  0.00  0.00    +0.000 A 
ATOM      6  N   UNL     1      38.398   5.670  16.128  0.00  0.00    +0.000 N 
ENDROOT
BRANCH   5   7
ATOM      7  C   UNL     1      39.746   5.907  18.199  0.00  0.00    +0.000 A 
ATOM      8  C   UNL     1      39.415   6.420  19.438  0.00  0.00    +0.000 A 
ATOM      9  C   UNL     1      40.356   7.049  20.240  0.00  0.00    +0.000 A 
ATOM     10  C   UNL     1      41.662   7.186  19.829  0.00  0.00    +0.000 A 
ATOM     11  C   UNL     1      42.005   6.680  18.597  0.00  0.00    +0.000 A 
ATOM     12  C   UNL     1      41.058   6.058  17.814  0.00  0.00    +0.000 A 
ENDBRANCH   5   7
BRANCH   6  13
ATOM     13  C   UNL     1      38.912   6.840  15.476  0.00  0.00    +0.000 A 
ATOM     14  C   UNL     1      39.940   6.826  14.589  0.00  0.00    +0.000 A 
ATOM     15  C   UNL     1      40.362   8.000  14.013  0.00  0.00    +0.000 A 
ATOM     16  C   UNL     1      39.734   9.212  14.339  0.00  0.00    +0.000 A 
ATOM     17  C   UNL     1      38.695   9.221  15.236  0.00  0.00    +0.000 A 
ATOM     18  C   UNL     1      38.306   8.039  15.784  0.00  0.00    +0.000 A 
ENDBRANCH   6  13
BRANCH   3  19
ATOM     19  C   UNL     1      36.277   2.704  16.334  0.00  0.00    +0.000 C 
ATOM     20  O   UNL     1      35.041   2.885  16.210  0.00  0.00    +0.000 OA
ATOM     21  N   UNL     1      36.745   1.360  16.279  0.00  0.00    +0.000 NA
BRANCH  21  22
ATOM     22  C   UNL     1      35.908   0.216  16.094  0.00  0.00    +0.000 C 
BRANCH  22  23
ATOM     23  C   UNL     1      36.554  -0.624  14.983  0.00  0.00    +0.000 C 
BRANCH  23  24
ATOM     24  C   UNL     1      37.945  -0.963  15.517  0.00  0.00    +0.000 C 
BRANCH  24  25
ATOM     25  N   UNL     1      38.216  -2.281  15.469  0.00  0.00    +0.000 NA
ATOM     26  C   UNL     1      37.817  -3.217  14.597  0.00  0.00    +0.000 C 
ATOM     27  C   UNL     1      36.661  -4.028  15.182  0.00  0.00    +0.000 C 
ATOM     28  C   UNL     1      37.000  -4.086  16.684  0.00  0.00    +0.000 C 
ATOM     29  C   UNL     1      38.486  -4.249  16.727  0.00  0.00    +0.000 C 
ATOM     30  C   UNL     1      39.165  -2.776  16.583  0.00  0.00    +0.000 C 
ATOM     31  C   UNL     1      38.275  -2.127  17.789  0.00  0.00    +0.000 C 
ENDBRANCH  24  25
ENDBRANCH  23  24
ENDBRANCH  22  23
ENDBRANCH  21  22
ENDBRANCH   3  19
TORSDOF 7
ENDMDL
