MODEL 1
REMARK VINA RESULT:      -7.1      0.000      0.000
REMARK  Name = 
REMARK  1 active torsions:
REMARK  status: ('A' for Active; 'I' for Inactive)
REMARK    1  A    between atoms: C_16  and  N_17
REMARK                            x       y       z     vdW  Elec       q    Type
REMARK                         _______ _______ _______ _____ _____    ______ ____
ROOT
ATOM      1  C   UNL     1      33.319  21.703  29.271  0.00  0.00    +0.000 C 
ATOM      2  C   UNL     1      31.891  22.107  29.207  0.00  0.00    +0.000 A 
ATOM      3  C   UNL     1      31.218  22.273  30.392  0.00  0.00    +0.000 A 
ATOM      4  C   UNL     1      29.872  22.652  30.404  0.00  0.00    +0.000 A 
ATOM      5  C   UNL     1      29.270  22.844  29.183  0.00  0.00    +0.000 A 
ATOM      6  N   UNL     1      27.978  23.209  29.141  0.00  0.00    +0.000 NA
ATOM      7  C   UNL     1      27.335  23.412  27.983  0.00  0.00    +0.000 A 
ATOM      8  C   UNL     1      25.894  23.817  27.982  0.00  0.00    +0.000 C 
ATOM      9  N   UNL     1      27.977  23.254  26.809  0.00  0.00    +0.000 N 
ATOM     10  C   UNL     1      27.518  23.407  25.531  0.00  0.00    +0.000 A 
ATOM     11  C   UNL     1      26.303  23.760  25.011  0.00  0.00    +0.000 A 
ATOM     12  C   UNL     1      26.127  23.835  23.639  0.00  0.00    +0.000 A 
ATOM     13  C   UNL     1      27.208  23.546  22.842  0.00  0.00    +0.000 A 
ATOM     14  C   UNL     1      28.444  23.189  23.335  0.00  0.00    +0.000 A 
ATOM     15  C   UNL     1      28.595  23.120  24.702  0.00  0.00    +0.000 A 
ATOM     16  C   UNL     1      29.692  22.796  25.459  0.00  0.00    +0.000 A 
ATOM     17  C   UNL     1      29.277  22.889  26.765  0.00  0.00    +0.000 A 
ATOM     18  C   UNL     1      29.915  22.686  27.970  0.00  0.00    +0.000 A 
ATOM     19  C   UNL     1      31.253  22.308  28.000  0.00  0.00    +0.000 A 
ENDROOT
BRANCH  16  20
ATOM     20  N   UNL     1      30.962  22.449  24.950  0.00  0.00    +0.000 NA
ATOM     21  C   UNL     1      31.932  23.405  24.571  0.00  0.00    +0.000 C 
ATOM     22  O   UNL     1      31.619  24.623  24.705  0.00  0.00    +0.000 OA
ENDBRANCH  16  20
TORSDOF 1
ENDMDL
MODEL 2
REMARK VINA RESULT:      -6.8      1.702      3.602
REMARK  Name = 
REMARK  1 active torsions:
REMARK  status: ('A' for Active; 'I' for Inactive)
REMARK    1  A    between atoms: C_16  and  N_17
REMARK                            x       y       z     vdW  Elec       q    Type
REMARK                         _______ _______ _______ _____ _____    ______ ____
ROOT
ATOM      1  C   UNL     1      29.882  22.433  32.165  0.00  0.00    +0.000 C 
ATOM      2  C   UNL     1      30.270  22.505  30.733  0.00  0.00    +0.000 A 
ATOM      3  C   UNL     1      31.603  22.398  30.424  0.00  0.00    +0.000 A 
ATOM      4  C   UNL     1      32.038  22.458  29.097  0.00  0.00    +0.000 A 
ATOM      5  C   UNL     1      31.071  22.629  28.134  0.00  0.00    +0.000 A 
ATOM      6  N   UNL     1      31.438  22.693  26.844  0.00  0.00    +0.000 NA
ATOM      7  C   UNL     1      30.544  22.858  25.858  0.00  0.00    +0.000 A 
ATOM      8  C   UNL     1      30.995  22.925  24.434  0.00  0.00    +0.000 C 
ATOM      9  N   UNL     1      29.230  22.966  26.140  0.00  0.00    +0.000 N 
ATOM     10  C   UNL     1      28.165  23.136  25.302  0.00  0.00    +0.000 A 
ATOM     11  C   UNL     1      28.055  23.253  23.944  0.00  0.00    +0.000 A 
ATOM     12  C   UNL     1      26.811  23.421  23.357  0.00  0.00    +0.000 A 
ATOM     13  C   UNL     1      25.717  23.465  24.186  0.00  0.00    +0.000 A 
ATOM     14  C   UNL     1      25.795  23.350  25.558  0.00  0.00    +0.000 A 
ATOM     15  C   UNL     1      27.041  23.184  26.118  0.00  0.00    +0.000 A 
ATOM     16  C   UNL     1      27.413  23.045  27.431  0.00  0.00    +0.000 A 
ATOM     17  C   UNL     1      28.780  22.911  27.413  0.00  0.00    +0.000 A 
ATOM     18  C   UNL     1      29.720  22.741  28.407  0.00  0.00    +0.000 A 
ATOM     19  C   UNL     1      29.328  22.676  29.740  0.00  0.00    +0.000 A 
ENDROOT
BRANCH  16  20
ATOM     20  N   UNL     1      26.532  23.046  28.534  0.00  0.00    +0.000 NA
ATOM     21  C   UNL     1      26.083  24.228  29.165  0.00  0.00    +0.000 C 
ATOM     22  O   UNL     1      26.508  25.324  28.699  0.00  0.00    +0.000 OA
ENDBRANCH  16  20
TORSDOF 1
ENDMDL
MODEL 3
REMARK VINA RESULT:      -6.8      0.907      5.176
REMARK  Name = 
REMARK  1 active torsions:
REMARK  status: ('A' for Active; 'I' for Inactive)
REMARK    1  A    between atoms: C_16  and  N_17
REMARK                            x       y       z     vdW  Elec       q    Type
REMARK                         _______ _______ _______ _____ _____    ______ ____
ROOT
ATOM      1  C   UNL     1      27.997  23.521  21.944  0.00  0.00    +0.000 C 
ATOM      2  C   UNL     1      27.500  23.522  23.344  0.00  0.00    +0.000 A 
ATOM      3  C   UNL     1      26.168  23.778  23.550  0.00  0.00    +0.000 A 
ATOM      4  C   UNL     1      25.634  23.795  24.842  0.00  0.00    +0.000 A 
ATOM      5  C   UNL     1      26.504  23.546  25.877  0.00  0.00    +0.000 A 
ATOM      6  N   UNL     1      26.039  23.551  27.137  0.00  0.00    +0.000 NA
ATOM      7  C   UNL     1      26.836  23.315  28.189  0.00  0.00    +0.000 A 
ATOM      8  C   UNL     1      26.277  23.331  29.577  0.00  0.00    +0.000 C 
ATOM      9  N   UNL     1      28.147  23.062  28.008  0.00  0.00    +0.000 N 
ATOM     10  C   UNL     1      29.124  22.800  28.926  0.00  0.00    +0.000 A 
ATOM     11  C   UNL     1      29.122  22.703  30.291  0.00  0.00    +0.000 A 
ATOM     12  C   UNL     1      30.294  22.418  30.971  0.00  0.00    +0.000 A 
ATOM     13  C   UNL     1      31.435  22.239  30.227  0.00  0.00    +0.000 A 
ATOM     14  C   UNL     1      31.470  22.329  28.852  0.00  0.00    +0.000 A 
ATOM     15  C   UNL     1      30.293  22.614  28.198  0.00  0.00    +0.000 A 
ATOM     16  C   UNL     1      30.035  22.761  26.859  0.00  0.00    +0.000 A 
ATOM     17  C   UNL     1      28.692  23.038  26.772  0.00  0.00    +0.000 A 
ATOM     18  C   UNL     1      27.851  23.285  25.708  0.00  0.00    +0.000 A 
ATOM     19  C   UNL     1      28.344  23.277  24.408  0.00  0.00    +0.000 A 
ENDROOT
BRANCH  16  20
ATOM     20  N   UNL     1      30.988  22.640  25.825  0.00  0.00    +0.000 NA
ATOM     21  C   UNL     1      31.780  23.720  25.372  0.00  0.00    +0.000 C 
ATOM     22  O   UNL     1      31.603  24.837  25.938  0.00  0.00    +0.000 OA
ENDBRANCH  16  20
TORSDOF 1
ENDMDL
MODEL 4
REMARK VINA RESULT:      -6.7      2.554      5.682
REMARK  Name = 
REMARK  1 active torsions:
REMARK  status: ('A' for Active; 'I' for Inactive)
REMARK    1  A    between atoms: C_16  and  N_17
REMARK                            x       y       z     vdW  Elec       q    Type
REMARK                         _______ _______ _______ _____ _____    ______ ____
ROOT
ATOM      1  C   UNL     1      22.986  27.330  24.529  0.00  0.00    +0.000 C 
ATOM      2  C   UNL     1      23.712  26.505  25.528  0.00  0.00    +0.000 A 
ATOM      3  C   UNL     1      23.173  26.399  26.785  0.00  0.00    +0.000 A 
ATOM      4  C   UNL     1      23.805  25.639  27.774  0.00  0.00    +0.000 A 
ATOM      5  C   UNL     1      24.978  25.014  27.422  0.00  0.00    +0.000 A 
ATOM      6  N   UNL     1      25.624  24.272  28.336  0.00  0.00    +0.000 NA
ATOM      7  C   UNL     1      26.771  23.638  28.055  0.00  0.00    +0.000 A 
ATOM      8  C   UNL     1      27.458  22.821  29.103  0.00  0.00    +0.000 C 
ATOM      9  N   UNL     1      27.317  23.729  26.826  0.00  0.00    +0.000 N 
ATOM     10  C   UNL     1      28.463  23.172  26.333  0.00  0.00    +0.000 A 
ATOM     11  C   UNL     1      29.419  22.362  26.881  0.00  0.00    +0.000 A 
ATOM     12  C   UNL     1      30.498  21.944  26.120  0.00  0.00    +0.000 A 
ATOM     13  C   UNL     1      30.562  22.371  24.816  0.00  0.00    +0.000 A 
ATOM     14  C   UNL     1      29.615  23.187  24.235  0.00  0.00    +0.000 A 
ATOM     15  C   UNL     1      28.552  23.590  25.011  0.00  0.00    +0.000 A 
ATOM     16  C   UNL     1      27.480  24.388  24.702  0.00  0.00    +0.000 A 
ATOM     17  C   UNL     1      26.729  24.455  25.850  0.00  0.00    +0.000 A 
ATOM     18  C   UNL     1      25.551  25.098  26.166  0.00  0.00    +0.000 A 
ATOM     19  C   UNL     1      24.892  25.864  25.210  0.00  0.00    +0.000 A 
ENDROOT
BRANCH  16  20
ATOM     20  N   UNL     1      27.244  24.989  23.447  0.00  0.00    +0.000 NA
ATOM     21  C   UNL     1      26.636  24.312  22.366  0.00  0.00    +0.000 C 
ATOM     22  O   UNL     1      26.297  23.109  22.561  0.00  0.00    +0.000 OA
ENDBRANCH  16  20
TORSDOF 1
ENDMDL
MODEL 5
REMARK VINA RESULT:      -6.6      2.174      6.310
REMARK  Name = 
REMARK  1 active torsions:
REMARK  status: ('A' for Active; 'I' for Inactive)
REMARK    1  A    between atoms: C_16  and  N_17
REMARK                            x       y       z     vdW  Elec       q    Type
REMARK                         _______ _______ _______ _____ _____    ______ ____
ROOT
ATOM      1  C   UNL     1      23.748  25.767  27.012  0.00  0.00    +0.000 C 
ATOM      2  C   UNL     1      24.979  25.163  26.441  0.00  0.00    +0.000 A 
ATOM      3  C   UNL     1      25.081  25.089  25.074  0.00  0.00    +0.000 A 
ATOM      4  C   UNL     1      26.213  24.532  24.470  0.00  0.00    +0.000 A 
ATOM      5  C   UNL     1      27.201  24.072  25.308  0.00  0.00    +0.000 A 
ATOM      6  N   UNL     1      28.308  23.529  24.776  0.00  0.00    +0.000 NA
ATOM      7  C   UNL     1      29.307  23.062  25.539  0.00  0.00    +0.000 A 
ATOM      8  C   UNL     1      30.523  22.464  24.905  0.00  0.00    +0.000 C 
ATOM      9  N   UNL     1      29.227  23.126  26.883  0.00  0.00    +0.000 N 
ATOM     10  C   UNL     1      30.116  22.715  27.835  0.00  0.00    +0.000 A 
ATOM     11  C   UNL     1      31.346  22.121  27.768  0.00  0.00    +0.000 A 
ATOM     12  C   UNL     1      32.034  21.812  28.931  0.00  0.00    +0.000 A 
ATOM     13  C   UNL     1      31.435  22.122  30.127  0.00  0.00    +0.000 A 
ATOM     14  C   UNL     1      30.197  22.720  30.226  0.00  0.00    +0.000 A 
ATOM     15  C   UNL     1      29.533  23.018  29.058  0.00  0.00    +0.000 A 
ATOM     16  C   UNL     1      28.308  23.604  28.858  0.00  0.00    +0.000 A 
ATOM     17  C   UNL     1      28.146  23.658  27.495  0.00  0.00    +0.000 A 
ATOM     18  C   UNL     1      27.133  24.130  26.687  0.00  0.00    +0.000 A 
ATOM     19  C   UNL     1      25.992  24.690  27.251  0.00  0.00    +0.000 A 
ENDROOT
BRANCH  16  20
ATOM     20  N   UNL     1      27.437  24.043  29.877  0.00  0.00    +0.000 NA
ATOM     21  C   UNL     1      26.450  23.217  30.462  0.00  0.00    +0.000 C 
ATOM     22  O   UNL     1      26.367  22.031  30.030  0.00  0.00    +0.000 OA
ENDBRANCH  16  20
TORSDOF 1
ENDMDL
MODEL 6
REMARK VINA RESULT:      -6.6      2.279      3.781
REMARK  Name = 
REMARK  1 active torsions:
REMARK  status: ('A' for Active; 'I' for Inactive)
REMARK    1  A    between atoms: C_16  and  N_17
REMARK                            x       y       z     vdW  Elec       q    Type
REMARK                         _______ _______ _______ _____ _____    ______ ____
ROOT
ATOM      1  C   UNL     1      31.657  22.995  24.497  0.00  0.00    +0.000 C 
ATOM      2  C   UNL     1      30.669  23.113  25.601  0.00  0.00    +0.000 A 
ATOM      3  C   UNL     1      31.009  22.590  26.823  0.00  0.00    +0.000 A 
ATOM      4  C   UNL     1      30.126  22.667  27.905  0.00  0.00    +0.000 A 
ATOM      5  C   UNL     1      28.918  23.284  27.678  0.00  0.00    +0.000 A 
ATOM      6  N   UNL     1      28.036  23.383  28.685  0.00  0.00    +0.000 NA
ATOM      7  C   UNL     1      26.842  23.974  28.529  0.00  0.00    +0.000 A 
ATOM      8  C   UNL     1      25.888  24.062  29.677  0.00  0.00    +0.000 C 
ATOM      9  N   UNL     1      26.490  24.493  27.336  0.00  0.00    +0.000 N 
ATOM     10  C   UNL     1      25.339  25.129  26.962  0.00  0.00    +0.000 A 
ATOM     11  C   UNL     1      24.191  25.451  27.632  0.00  0.00    +0.000 A 
ATOM     12  C   UNL     1      23.166  26.115  26.977  0.00  0.00    +0.000 A 
ATOM     13  C   UNL     1      23.353  26.428  25.653  0.00  0.00    +0.000 A 
ATOM     14  C   UNL     1      24.499  26.118  24.952  0.00  0.00    +0.000 A 
ATOM     15  C   UNL     1      25.503  25.458  25.623  0.00  0.00    +0.000 A 
ATOM     16  C   UNL     1      26.731  25.030  25.185  0.00  0.00    +0.000 A 
ATOM     17  C   UNL     1      27.322  24.435  26.273  0.00  0.00    +0.000 A 
ATOM     18  C   UNL     1      28.542  23.822  26.461  0.00  0.00    +0.000 A 
ATOM     19  C   UNL     1      29.448  23.726  25.410  0.00  0.00    +0.000 A 
ENDROOT
BRANCH  16  20
ATOM     20  N   UNL     1      27.235  25.196  23.877  0.00  0.00    +0.000 NA
ATOM     21  C   UNL     1      27.062  24.236  22.854  0.00  0.00    +0.000 C 
ATOM     22  O   UNL     1      26.421  23.188  23.154  0.00  0.00    +0.000 OA
ENDBRANCH  16  20
TORSDOF 1
ENDMDL
MODEL 7
REMARK VINA RESULT:      -6.5      1.746      2.660
REMARK  Name = 
REMARK  1 active torsions:
REMARK  status: ('A' for Active; 'I' for Inactive)
REMARK    1  A    between atoms: C_16  and  N_17
REMARK                            x       y       z     vdW  Elec       q    Type
REMARK                         _______ _______ _______ _____ _____    ______ ____
ROOT
ATOM      1  C   UNL     1      29.111  22.308  31.161  0.00  0.00    +0.000 C 
ATOM      2  C   UNL     1      28.146  22.913  30.206  0.00  0.00    +0.000 A 
ATOM      3  C   UNL     1      27.005  23.475  30.720  0.00  0.00    +0.000 A 
ATOM      4  C   UNL     1      26.054  24.061  29.878  0.00  0.00    +0.000 A 
ATOM      5  C   UNL     1      26.323  24.041  28.530  0.00  0.00    +0.000 A 
ATOM      6  N   UNL     1      25.441  24.591  27.679  0.00  0.00    +0.000 NA
ATOM      7  C   UNL     1      25.645  24.605  26.354  0.00  0.00    +0.000 A 
ATOM      8  C   UNL     1      24.635  25.228  25.442  0.00  0.00    +0.000 C 
ATOM      9  N   UNL     1      26.759  24.057  25.830  0.00  0.00    +0.000 N 
ATOM     10  C   UNL     1      27.160  23.963  24.527  0.00  0.00    +0.000 A 
ATOM     11  C   UNL     1      26.602  24.370  23.347  0.00  0.00    +0.000 A 
ATOM     12  C   UNL     1      27.255  24.131  22.149  0.00  0.00    +0.000 A 
ATOM     13  C   UNL     1      28.464  23.480  22.201  0.00  0.00    +0.000 A 
ATOM     14  C   UNL     1      29.052  23.058  23.374  0.00  0.00    +0.000 A 
ATOM     15  C   UNL     1      28.384  23.306  24.552  0.00  0.00    +0.000 A 
ATOM     16  C   UNL     1      28.725  23.004  25.846  0.00  0.00    +0.000 A 
ATOM     17  C   UNL     1      27.695  23.485  26.618  0.00  0.00    +0.000 A 
ATOM     18  C   UNL     1      27.461  23.484  27.976  0.00  0.00    +0.000 A 
ATOM     19  C   UNL     1      28.382  22.911  28.847  0.00  0.00    +0.000 A 
ENDROOT
BRANCH  16  20
ATOM     20  N   UNL     1      29.903  22.338  26.246  0.00  0.00    +0.000 NA
ATOM     21  C   UNL     1      31.124  23.006  26.494  0.00  0.00    +0.000 C 
ATOM     22  O   UNL     1      31.131  24.261  26.342  0.00  0.00    +0.000 OA
ENDBRANCH  16  20
TORSDOF 1
ENDMDL
MODEL 8
REMARK VINA RESULT:      -6.4     22.830     25.243
REMARK  Name = 
REMARK  1 active torsions:
REMARK  status: ('A' for Active; 'I' for Inactive)
REMARK    1  A    between atoms: C_16  and  N_17
REMARK                            x       y       z     vdW  Elec       q    Type
REMARK                         _______ _______ _______ _____ _____    ______ ____
ROOT
ATOM      1  C   UNL     1      33.712   5.546  35.002  0.00  0.00    +0.000 C 
ATOM      2  C   UNL     1      33.671   4.134  34.540  0.00  0.00    +0.000 A 
ATOM      3  C   UNL     1      33.569   3.904  33.191  0.00  0.00    +0.000 A 
ATOM      4  C   UNL     1      33.525   2.600  32.689  0.00  0.00    +0.000 A 
ATOM      5  C   UNL     1      33.587   1.578  33.606  0.00  0.00    +0.000 A 
ATOM      6  N   UNL     1      33.549   0.307  33.174  0.00  0.00    +0.000 NA
ATOM      7  C   UNL     1      33.607  -0.733  34.018  0.00  0.00    +0.000 A 
ATOM      8  C   UNL     1      33.559  -2.133  33.493  0.00  0.00    +0.000 C 
ATOM      9  N   UNL     1      33.707  -0.528  35.346  0.00  0.00    +0.000 N 
ATOM     10  C   UNL     1      33.778  -1.431  36.369  0.00  0.00    +0.000 A 
ATOM     11  C   UNL     1      33.774  -2.798  36.410  0.00  0.00    +0.000 A 
ATOM     12  C   UNL     1      33.862  -3.459  37.624  0.00  0.00    +0.000 A 
ATOM     13  C   UNL     1      33.950  -2.694  38.761  0.00  0.00    +0.000 A 
ATOM     14  C   UNL     1      33.957  -1.316  38.753  0.00  0.00    +0.000 A 
ATOM     15  C   UNL     1      33.869  -0.681  37.535  0.00  0.00    +0.000 A 
ATOM     16  C   UNL     1      33.853   0.657  37.230  0.00  0.00    +0.000 A 
ATOM     17  C   UNL     1      33.752   0.720  35.861  0.00  0.00    +0.000 A 
ATOM     18  C   UNL     1      33.690   1.771  34.972  0.00  0.00    +0.000 A 
ATOM     19  C   UNL     1      33.731   3.083  35.433  0.00  0.00    +0.000 A 
ENDROOT
BRANCH  16  20
ATOM     20  N   UNL     1      33.929   1.709  38.167  0.00  0.00    +0.000 NA
ATOM     21  C   UNL     1      35.151   2.261  38.614  0.00  0.00    +0.000 C 
ATOM     22  O   UNL     1      36.212   1.768  38.134  0.00  0.00    +0.000 OA
ENDBRANCH  16  20
TORSDOF 1
ENDMDL
MODEL 9
REMARK VINA RESULT:      -6.4     21.938     24.290
REMARK  Name = 
REMARK  1 active torsions:
REMARK  status: ('A' for Active; 'I' for Inactive)
REMARK    1  A    between atoms: C_16  and  N_17
REMARK                            x       y       z     vdW  Elec       q    Type
REMARK                         _______ _______ _______ _____ _____    ______ ____
ROOT
ATOM      1  C   UNL     1      33.918   6.171  37.495  0.00  0.00    +0.000 C 
ATOM      2  C   UNL     1      33.911   5.219  36.354  0.00  0.00    +0.000 A 
ATOM      3  C   UNL     1      33.911   5.741  35.084  0.00  0.00    +0.000 A 
ATOM      4  C   UNL     1      33.904   4.902  33.966  0.00  0.00    +0.000 A 
ATOM      5  C   UNL     1      33.896   3.548  34.205  0.00  0.00    +0.000 A 
ATOM      6  N   UNL     1      33.890   2.700  33.163  0.00  0.00    +0.000 NA
ATOM      7  C   UNL     1      33.883   1.370  33.330  0.00  0.00    +0.000 A 
ATOM      8  C   UNL     1      33.874   0.461  32.141  0.00  0.00    +0.000 C 
ATOM      9  N   UNL     1      33.882   0.838  34.568  0.00  0.00    +0.000 N 
ATOM     10  C   UNL     1      33.875  -0.471  34.959  0.00  0.00    +0.000 A 
ATOM     11  C   UNL     1      33.867  -1.652  34.269  0.00  0.00    +0.000 A 
ATOM     12  C   UNL     1      33.862  -2.858  34.951  0.00  0.00    +0.000 A 
ATOM     13  C   UNL     1      33.865  -2.813  36.324  0.00  0.00    +0.000 A 
ATOM     14  C   UNL     1      33.874  -1.640  37.048  0.00  0.00    +0.000 A 
ATOM     15  C   UNL     1      33.878  -0.454  36.348  0.00  0.00    +0.000 A 
ATOM     16  C   UNL     1      33.887   0.842  36.798  0.00  0.00    +0.000 A 
ATOM     17  C   UNL     1      33.889   1.622  35.668  0.00  0.00    +0.000 A 
ATOM     18  C   UNL     1      33.896   2.986  35.468  0.00  0.00    +0.000 A 
ATOM     19  C   UNL     1      33.903   3.854  36.556  0.00  0.00    +0.000 A 
ENDROOT
BRANCH  16  20
ATOM     20  N   UNL     1      33.892   1.236  38.153  0.00  0.00    +0.000 NA
ATOM     21  C   UNL     1      35.077   1.409  38.904  0.00  0.00    +0.000 C 
ATOM     22  O   UNL     1      36.171   1.193  38.307  0.00  0.00    +0.000 OA
ENDBRANCH  16  20
TORSDOF 1
ENDMDL
MODEL 10
REMARK VINA RESULT:      -6.4     32.589     32.819
REMARK  Name = 
REMARK  1 active torsions:
REMARK  status: ('A' for Active; 'I' for Inactive)
REMARK    1  A    between atoms: C_16  and  N_17
REMARK                            x       y       z     vdW  Elec       q    Type
REMARK                         _______ _______ _______ _____ _____    ______ ____
ROOT
ATOM      1  C   UNL     1      25.521  -9.254  23.340  0.00  0.00    +0.000 C 
ATOM      2  C   UNL     1      24.406  -8.382  23.792  0.00  0.00    +0.000 A 
ATOM      3  C   UNL     1      24.429  -7.063  23.411  0.00  0.00    +0.000 A 
ATOM      4  C   UNL     1      23.412  -6.187  23.803  0.00  0.00    +0.000 A 
ATOM      5  C   UNL     1      22.405  -6.711  24.577  0.00  0.00    +0.000 A 
ATOM      6  N   UNL     1      21.405  -5.910  24.979  0.00  0.00    +0.000 NA
ATOM      7  C   UNL     1      20.393  -6.361  25.735  0.00  0.00    +0.000 A 
ATOM      8  C   UNL     1      19.299  -5.434  26.161  0.00  0.00    +0.000 C 
ATOM      9  N   UNL     1      20.352  -7.652  26.119  0.00  0.00    +0.000 N 
ATOM     10  C   UNL     1      19.427  -8.311  26.880  0.00  0.00    +0.000 A 
ATOM     11  C   UNL     1      18.270  -7.916  27.492  0.00  0.00    +0.000 A 
ATOM     12  C   UNL     1      17.518  -8.828  28.214  0.00  0.00    +0.000 A 
ATOM     13  C   UNL     1      17.980 -10.120  28.286  0.00  0.00    +0.000 A 
ATOM     14  C   UNL     1      19.141 -10.548  27.680  0.00  0.00    +0.000 A 
ATOM     15  C   UNL     1      19.872  -9.624  26.968  0.00  0.00    +0.000 A 
ATOM     16  C   UNL     1      21.047  -9.765  26.274  0.00  0.00    +0.000 A 
ATOM     17  C   UNL     1      21.319  -8.522  25.757  0.00  0.00    +0.000 A 
ATOM     18  C   UNL     1      22.348  -8.033  24.980  0.00  0.00    +0.000 A 
ATOM     19  C   UNL     1      23.378  -8.873  24.571  0.00  0.00    +0.000 A 
ENDROOT
BRANCH  16  20
ATOM     20  N   UNL     1      21.782 -10.964  26.148  0.00  0.00    +0.000 NA
ATOM     21  C   UNL     1      22.659 -11.443  27.147  0.00  0.00    +0.000 C 
ATOM     22  O   UNL     1      22.772 -10.743  28.194  0.00  0.00    +0.000 OA
ENDBRANCH  16  20
TORSDOF 1
ENDMDL
