MODEL 1
REMARK VINA RESULT:      -6.9      0.000      0.000
REMARK  Name = 
REMARK  3 active torsions:
REMARK  status: ('A' for Active; 'I' for Inactive)
REMARK    1  A    between atoms: C_2  and  C_12
REMARK    2  A    between atoms: N_3  and  N_4
REMARK    3  A    between atoms: N_4  and  C_5
REMARK                            x       y       z     vdW  Elec       q    Type
REMARK                         _______ _______ _______ _____ _____    ______ ____
ROOT
ATOM      1  O   UNL     1      15.674  10.172  33.636  0.00  0.00    +0.000 OA
ATOM      2  C   UNL     1      15.837  11.411  33.722  0.00  0.00    +0.000 C 
ATOM      3  N   UNL     1      16.670  11.917  34.790  0.00  0.00    +0.000 NA
ENDROOT
BRANCH   2   4
ATOM      4  C   UNL     1      15.207  12.302  32.772  0.00  0.00    +0.000 A 
ATOM      5  C   UNL     1      15.544  12.204  31.453  0.00  0.00    +0.000 A 
ATOM      6  C   UNL     1      14.979  13.052  30.485  0.00  0.00    +0.000 A 
ATOM      7  C   UNL     1      14.069  13.984  30.931  0.00  0.00    +0.000 A 
ATOM      8  C   UNL     1      13.737  14.073  32.260  0.00  0.00    +0.000 A 
ATOM      9  C   UNL     1      14.294  13.238  33.208  0.00  0.00    +0.000 A 
ATOM     10 BR   UNL     1      13.878  13.280  35.056  0.00  0.00    +0.000 Br
ENDBRANCH   2   4
BRANCH   3  11
ATOM     11  N   UNL     1      17.232  11.042  35.657  0.00  0.00    +0.000 NA
BRANCH  11  12
ATOM     12  C   UNL     1      16.921  10.703  36.977  0.00  0.00    +0.000 C 
ATOM     13  C   UNL     1      17.789  10.034  37.687  0.00  0.00    +0.000 C 
ATOM     14  C   UNL     1      19.083   9.647  37.087  0.00  0.00    +0.000 C 
ATOM     15  C   UNL     1      20.117  10.583  37.705  0.00  0.00    +0.000 C 
ATOM     16  C   UNL     1      19.520  11.154  38.979  0.00  0.00    +0.000 C 
ATOM     17  C   UNL     1      18.850  10.070  39.823  0.00  0.00    +0.000 C 
ATOM     18  C   UNL     1      17.549   9.660  39.088  0.00  0.00    +0.000 C 
ENDBRANCH  11  12
ENDBRANCH   3  11
TORSDOF 3
ENDMDL
MODEL 2
REMARK VINA RESULT:      -6.8      1.583      2.294
REMARK  Name = 
REMARK  3 active torsions:
REMARK  status: ('A' for Active; 'I' for Inactive)
REMARK    1  A    between atoms: C_2  and  C_12
REMARK    2  A    between atoms: N_3  and  N_4
REMARK    3  A    between atoms: N_4  and  C_5
REMARK                            x       y       z     vdW  Elec       q    Type
REMARK                         _______ _______ _______ _____ _____    ______ ____
ROOT
ATOM      1  O   UNL     1      14.566  11.343  35.389  0.00  0.00    +0.000 OA
ATOM      2  C   UNL     1      15.246  11.618  34.373  0.00  0.00    +0.000 C 
ATOM      3  N   UNL     1      16.557  11.019  34.248  0.00  0.00    +0.000 NA
ENDROOT
BRANCH   2   4
ATOM      4  C   UNL     1      14.726  12.508  33.358  0.00  0.00    +0.000 A 
ATOM      5  C   UNL     1      14.063  13.636  33.749  0.00  0.00    +0.000 A 
ATOM      6  C   UNL     1      13.520  14.531  32.811  0.00  0.00    +0.000 A 
ATOM      7  C   UNL     1      13.692  14.217  31.482  0.00  0.00    +0.000 A 
ATOM      8  C   UNL     1      14.362  13.080  31.100  0.00  0.00    +0.000 A 
ATOM      9  C   UNL     1      14.893  12.203  32.025  0.00  0.00    +0.000 A 
ATOM     10 BR   UNL     1      15.846  10.626  31.586  0.00  0.00    +0.000 Br
ENDBRANCH   2   4
BRANCH   3  11
ATOM     11  N   UNL     1      17.000  10.197  35.230  0.00  0.00    +0.000 NA
BRANCH  11  12
ATOM     12  C   UNL     1      18.288   9.833  35.633  0.00  0.00    +0.000 C 
ATOM     13  C   UNL     1      18.727  10.219  36.800  0.00  0.00    +0.000 C 
ATOM     14  C   UNL     1      17.858  11.033  37.676  0.00  0.00    +0.000 C 
ATOM     15  C   UNL     1      17.383  10.088  38.775  0.00  0.00    +0.000 C 
ATOM     16  C   UNL     1      18.337   8.907  38.811  0.00  0.00    +0.000 C 
ATOM     17  C   UNL     1      19.797   9.358  38.750  0.00  0.00    +0.000 C 
ATOM     18  C   UNL     1      20.058   9.858  37.307  0.00  0.00    +0.000 C 
ENDBRANCH  11  12
ENDBRANCH   3  11
TORSDOF 3
ENDMDL
MODEL 3
REMARK VINA RESULT:      -6.5     21.845     22.903
REMARK  Name = 
REMARK  3 active torsions:
REMARK  status: ('A' for Active; 'I' for Inactive)
REMARK    1  A    between atoms: C_2  and  C_12
REMARK    2  A    between atoms: N_3  and  N_4
REMARK    3  A    between atoms: N_4  and  C_5
REMARK                            x       y       z     vdW  Elec       q    Type
REMARK                         _______ _______ _______ _____ _____    ______ ____
ROOT
ATOM      1  O   UNL     1      20.318  -8.997  24.342  0.00  0.00    +0.000 OA
ATOM      2  C   UNL     1      20.683  -8.386  25.373  0.00  0.00    +0.000 C 
ATOM      3  N   UNL     1      21.973  -8.714  25.940  0.00  0.00    +0.000 NA
ENDROOT
BRANCH   2   4
ATOM      4  C   UNL     1      19.832  -7.380  25.972  0.00  0.00    +0.000 A 
ATOM      5  C   UNL     1      20.063  -6.066  25.684  0.00  0.00    +0.000 A 
ATOM      6  C   UNL     1      19.282  -5.042  26.246  0.00  0.00    +0.000 A 
ATOM      7  C   UNL     1      18.273  -5.429  27.099  0.00  0.00    +0.000 A 
ATOM      8  C   UNL     1      18.049  -6.754  27.381  0.00  0.00    +0.000 A 
ATOM      9  C   UNL     1      18.818  -7.757  26.826  0.00  0.00    +0.000 A 
ATOM     10 BR   UNL     1      18.566  -9.607  27.145  0.00  0.00    +0.000 Br
ENDBRANCH   2   4
BRANCH   3  11
ATOM     11  N   UNL     1      22.728  -9.668  25.346  0.00  0.00    +0.000 NA
BRANCH  11  12
ATOM     12  C   UNL     1      24.073  -9.694  24.968  0.00  0.00    +0.000 C 
ATOM     13  C   UNL     1      24.437  -9.114  23.856  0.00  0.00    +0.000 C 
ATOM     14  C   UNL     1      23.424  -8.439  23.018  0.00  0.00    +0.000 C 
ATOM     15  C   UNL     1      23.645  -6.944  23.232  0.00  0.00    +0.000 C 
ATOM     16  C   UNL     1      25.048  -6.760  23.783  0.00  0.00    +0.000 C 
ATOM     17  C   UNL     1      26.071  -7.595  23.013  0.00  0.00    +0.000 C 
ATOM     18  C   UNL     1      25.833  -9.076  23.400  0.00  0.00    +0.000 C 
ENDBRANCH  11  12
ENDBRANCH   3  11
TORSDOF 3
ENDMDL
MODEL 4
REMARK VINA RESULT:      -6.3      2.831      4.268
REMARK  Name = 
REMARK  3 active torsions:
REMARK  status: ('A' for Active; 'I' for Inactive)
REMARK    1  A    between atoms: C_2  and  C_12
REMARK    2  A    between atoms: N_3  and  N_4
REMARK    3  A    between atoms: N_4  and  C_5
REMARK                            x       y       z     vdW  Elec       q    Type
REMARK                         _______ _______ _______ _____ _____    ______ ____
ROOT
ATOM      1  O   UNL     1      18.629  11.256  37.453  0.00  0.00    +0.000 OA
ATOM      2  C   UNL     1      17.970  10.337  36.914  0.00  0.00    +0.000 C 
ATOM      3  N   UNL     1      17.955   9.041  37.557  0.00  0.00    +0.000 NA
ENDROOT
BRANCH   2   4
ATOM      4  C   UNL     1      17.244  10.576  35.685  0.00  0.00    +0.000 A 
ATOM      5  C   UNL     1      17.811  10.196  34.502  0.00  0.00    +0.000 A 
ATOM      6  C   UNL     1      17.164  10.415  33.274  0.00  0.00    +0.000 A 
ATOM      7  C   UNL     1      15.932  11.028  33.322  0.00  0.00    +0.000 A 
ATOM      8  C   UNL     1      15.371  11.405  34.518  0.00  0.00    +0.000 A 
ATOM      9  C   UNL     1      16.010  11.188  35.723  0.00  0.00    +0.000 A 
ATOM     10 BR   UNL     1      15.301  11.657  37.416  0.00  0.00    +0.000 Br
ENDBRANCH   2   4
BRANCH   3  11
ATOM     11  N   UNL     1      18.657   8.868  38.702  0.00  0.00    +0.000 NA
BRANCH  11  12
ATOM     12  C   UNL     1      18.586   7.895  39.703  0.00  0.00    +0.000 C 
ATOM     13  C   UNL     1      18.033   8.194  40.848  0.00  0.00    +0.000 C 
ATOM     14  C   UNL     1      17.491   9.551  41.067  0.00  0.00    +0.000 C 
ATOM     15  C   UNL     1      15.975   9.403  40.993  0.00  0.00    +0.000 C 
ATOM     16  C   UNL     1      15.643   7.938  41.219  0.00  0.00    +0.000 C 
ATOM     17  C   UNL     1      16.425   7.358  42.398  0.00  0.00    +0.000 C 
ATOM     18  C   UNL     1      17.899   7.222  41.942  0.00  0.00    +0.000 C 
ENDBRANCH  11  12
ENDBRANCH   3  11
TORSDOF 3
ENDMDL
MODEL 5
REMARK VINA RESULT:      -6.2      1.822      2.228
REMARK  Name = 
REMARK  3 active torsions:
REMARK  status: ('A' for Active; 'I' for Inactive)
REMARK    1  A    between atoms: C_2  and  C_12
REMARK    2  A    between atoms: N_3  and  N_4
REMARK    3  A    between atoms: N_4  and  C_5
REMARK                            x       y       z     vdW  Elec       q    Type
REMARK                         _______ _______ _______ _____ _____    ______ ____
ROOT
ATOM      1  O   UNL     1      17.240  12.470  35.704  0.00  0.00    +0.000 OA
ATOM      2  C   UNL     1      16.807  11.391  35.239  0.00  0.00    +0.000 C 
ATOM      3  N   UNL     1      16.924  10.201  36.053  0.00  0.00    +0.000 NA
ENDROOT
BRANCH   2   4
ATOM      4  C   UNL     1      16.205  11.346  33.924  0.00  0.00    +0.000 A 
ATOM      5  C   UNL     1      16.795  10.586  32.955  0.00  0.00    +0.000 A 
ATOM      6  C   UNL     1      16.269  10.514  31.654  0.00  0.00    +0.000 A 
ATOM      7  C   UNL     1      15.128  11.244  31.406  0.00  0.00    +0.000 A 
ATOM      8  C   UNL     1      14.542  12.005  32.387  0.00  0.00    +0.000 A 
ATOM      9  C   UNL     1      15.063  12.073  33.664  0.00  0.00    +0.000 A 
ATOM     10 BR   UNL     1      14.309  13.079  35.081  0.00  0.00    +0.000 Br
ENDBRANCH   2   4
BRANCH   3  11
ATOM     11  N   UNL     1      17.502  10.295  37.274  0.00  0.00    +0.000 NA
BRANCH  11  12
ATOM     12  C   UNL     1      16.968  10.270  38.565  0.00  0.00    +0.000 C 
ATOM     13  C   UNL     1      17.445   9.425  39.440  0.00  0.00    +0.000 C 
ATOM     14  C   UNL     1      18.540   8.512  39.052  0.00  0.00    +0.000 C 
ATOM     15  C   UNL     1      19.794   9.068  39.718  0.00  0.00    +0.000 C 
ATOM     16  C   UNL     1      19.350   9.981  40.848  0.00  0.00    +0.000 C 
ATOM     17  C   UNL     1      18.242   9.342  41.686  0.00  0.00    +0.000 C 
ATOM     18  C   UNL     1      16.955   9.352  40.823  0.00  0.00    +0.000 C 
ENDBRANCH  11  12
ENDBRANCH   3  11
TORSDOF 3
ENDMDL
MODEL 6
REMARK VINA RESULT:      -6.2      2.703      4.043
REMARK  Name = 
REMARK  3 active torsions:
REMARK  status: ('A' for Active; 'I' for Inactive)
REMARK    1  A    between atoms: C_2  and  C_12
REMARK    2  A    between atoms: N_3  and  N_4
REMARK    3  A    between atoms: N_4  and  C_5
REMARK                            x       y       z     vdW  Elec       q    Type
REMARK                         _______ _______ _______ _____ _____    ______ ____
ROOT
ATOM      1  O   UNL     1      17.059  12.440  37.161  0.00  0.00    +0.000 OA
ATOM      2  C   UNL     1      16.514  11.443  36.633  0.00  0.00    +0.000 C 
ATOM      3  N   UNL     1      16.202  10.309  37.475  0.00  0.00    +0.000 NA
ENDROOT
BRANCH   2   4
ATOM      4  C   UNL     1      16.207  11.437  35.219  0.00  0.00    +0.000 A 
ATOM      5  C   UNL     1      15.225  12.265  34.754  0.00  0.00    +0.000 A 
ATOM      6  C   UNL     1      14.869  12.292  33.395  0.00  0.00    +0.000 A 
ATOM      7  C   UNL     1      15.559  11.447  32.556  0.00  0.00    +0.000 A 
ATOM      8  C   UNL     1      16.545  10.618  33.034  0.00  0.00    +0.000 A 
ATOM      9  C   UNL     1      16.891  10.594  34.370  0.00  0.00    +0.000 A 
ATOM     10 BR   UNL     1      18.249   9.499  35.109  0.00  0.00    +0.000 Br
ENDBRANCH   2   4
BRANCH   3  11
ATOM     11  N   UNL     1      16.516  10.363  38.791  0.00  0.00    +0.000 NA
BRANCH  11  12
ATOM     12  C   UNL     1      17.570   9.811  39.524  0.00  0.00    +0.000 C 
ATOM     13  C   UNL     1      17.354   9.398  40.745  0.00  0.00    +0.000 C 
ATOM     14  C   UNL     1      16.003   9.520  41.330  0.00  0.00    +0.000 C 
ATOM     15  C   UNL     1      15.428   8.107  41.333  0.00  0.00    +0.000 C 
ATOM     16  C   UNL     1      16.591   7.137  41.214  0.00  0.00    +0.000 C 
ATOM     17  C   UNL     1      17.738   7.512  42.153  0.00  0.00    +0.000 C 
ATOM     18  C   UNL     1      18.403   8.785  41.572  0.00  0.00    +0.000 C 
ENDBRANCH  11  12
ENDBRANCH   3  11
TORSDOF 3
ENDMDL
MODEL 7
REMARK VINA RESULT:      -6.2      3.745      5.440
REMARK  Name = 
REMARK  3 active torsions:
REMARK  status: ('A' for Active; 'I' for Inactive)
REMARK    1  A    between atoms: C_2  and  C_12
REMARK    2  A    between atoms: N_3  and  N_4
REMARK    3  A    between atoms: N_4  and  C_5
REMARK                            x       y       z     vdW  Elec       q    Type
REMARK                         _______ _______ _______ _____ _____    ______ ____
ROOT
ATOM      1  O   UNL     1      18.683   9.696  36.964  0.00  0.00    +0.000 OA
ATOM      2  C   UNL     1      18.276  10.756  37.494  0.00  0.00    +0.000 C 
ATOM      3  N   UNL     1      19.238  11.586  38.186  0.00  0.00    +0.000 NA
ENDROOT
BRANCH   2   4
ATOM      4  C   UNL     1      16.881  11.132  37.409  0.00  0.00    +0.000 A 
ATOM      5  C   UNL     1      16.465  11.880  36.345  0.00  0.00    +0.000 A 
ATOM      6  C   UNL     1      15.127  12.291  36.215  0.00  0.00    +0.000 A 
ATOM      7  C   UNL     1      14.259  11.900  37.209  0.00  0.00    +0.000 A 
ATOM      8  C   UNL     1      14.688  11.147  38.273  0.00  0.00    +0.000 A 
ATOM      9  C   UNL     1      16.003  10.745  38.398  0.00  0.00    +0.000 A 
ATOM     10 BR   UNL     1      16.675   9.691  39.821  0.00  0.00    +0.000 Br
ENDBRANCH   2   4
BRANCH   3  11
ATOM     11  N   UNL     1      20.530  11.186  38.243  0.00  0.00    +0.000 NA
BRANCH  11  12
ATOM     12  C   UNL     1      21.730  11.864  38.012  0.00  0.00    +0.000 C 
ATOM     13  C   UNL     1      22.835  11.182  37.872  0.00  0.00    +0.000 C 
ATOM     14  C   UNL     1      22.799   9.707  37.959  0.00  0.00    +0.000 C 
ATOM     15  C   UNL     1      22.953   9.208  36.526  0.00  0.00    +0.000 C 
ATOM     16  C   UNL     1      23.552  10.337  35.706  0.00  0.00    +0.000 C 
ATOM     17  C   UNL     1      24.725  10.999  36.429  0.00  0.00    +0.000 C 
ATOM     18  C   UNL     1      24.132  11.817  37.604  0.00  0.00    +0.000 C 
ENDBRANCH  11  12
ENDBRANCH   3  11
TORSDOF 3
ENDMDL
MODEL 8
REMARK VINA RESULT:      -6.0      6.212      7.678
REMARK  Name = 
REMARK  3 active torsions:
REMARK  status: ('A' for Active; 'I' for Inactive)
REMARK    1  A    between atoms: C_2  and  C_12
REMARK    2  A    between atoms: N_3  and  N_4
REMARK    3  A    between atoms: N_4  and  C_5
REMARK                            x       y       z     vdW  Elec       q    Type
REMARK                         _______ _______ _______ _____ _____    ______ ____
ROOT
ATOM      1  O   UNL     1      19.588  10.186  40.113  0.00  0.00    +0.000 OA
ATOM      2  C   UNL     1      18.668   9.621  39.479  0.00  0.00    +0.000 C 
ATOM      3  N   UNL     1      18.736   9.620  38.034  0.00  0.00    +0.000 NA
ENDROOT
BRANCH   2   4
ATOM      4  C   UNL     1      17.572   8.988  40.181  0.00  0.00    +0.000 A 
ATOM      5  C   UNL     1      16.426   9.700  40.391  0.00  0.00    +0.000 A 
ATOM      6  C   UNL     1      15.333   9.147  41.081  0.00  0.00    +0.000 A 
ATOM      7  C   UNL     1      15.474   7.854  41.530  0.00  0.00    +0.000 A 
ATOM      8  C   UNL     1      16.631   7.147  41.312  0.00  0.00    +0.000 A 
ATOM      9  C   UNL     1      17.702   7.694  40.635  0.00  0.00    +0.000 A 
ATOM     10 BR   UNL     1      19.324   6.784  40.274  0.00  0.00    +0.000 Br
ENDBRANCH   2   4
BRANCH   3  11
ATOM     11  N   UNL     1      19.779  10.232  37.425  0.00  0.00    +0.000 NA
BRANCH  11  12
ATOM     12  C   UNL     1      20.820   9.740  36.634  0.00  0.00    +0.000 C 
ATOM     13  C   UNL     1      22.042  10.139  36.862  0.00  0.00    +0.000 C 
ATOM     14  C   UNL     1      22.305  11.102  37.951  0.00  0.00    +0.000 C 
ATOM     15  C   UNL     1      22.942  10.289  39.073  0.00  0.00    +0.000 C 
ATOM     16  C   UNL     1      23.480   9.006  38.464  0.00  0.00    +0.000 C 
ATOM     17  C   UNL     1      24.243   9.273  37.167  0.00  0.00    +0.000 C 
ATOM     18  C   UNL     1      23.194   9.651  36.091  0.00  0.00    +0.000 C 
ENDBRANCH  11  12
ENDBRANCH   3  11
TORSDOF 3
ENDMDL
MODEL 9
REMARK VINA RESULT:      -5.9     21.528     22.527
REMARK  Name = 
REMARK  3 active torsions:
REMARK  status: ('A' for Active; 'I' for Inactive)
REMARK    1  A    between atoms: C_2  and  C_12
REMARK    2  A    between atoms: N_3  and  N_4
REMARK    3  A    between atoms: N_4  and  C_5
REMARK                            x       y       z     vdW  Elec       q    Type
REMARK                         _______ _______ _______ _____ _____    ______ ____
ROOT
ATOM      1  O   UNL     1      16.473  -8.874  27.383  0.00  0.00    +0.000 OA
ATOM      2  C   UNL     1      16.584  -8.058  26.439  0.00  0.00    +0.000 C 
ATOM      3  N   UNL     1      15.476  -7.923  25.520  0.00  0.00    +0.000 NA
ENDROOT
BRANCH   2   4
ATOM      4  C   UNL     1      17.792  -7.276  26.282  0.00  0.00    +0.000 A 
ATOM      5  C   UNL     1      17.812  -5.995  26.754  0.00  0.00    +0.000 A 
ATOM      6  C   UNL     1      18.949  -5.180  26.617  0.00  0.00    +0.000 A 
ATOM      7  C   UNL     1      20.039  -5.736  25.988  0.00  0.00    +0.000 A 
ATOM      8  C   UNL     1      20.008  -7.026  25.518  0.00  0.00    +0.000 A 
ATOM      9  C   UNL     1      18.889  -7.824  25.654  0.00  0.00    +0.000 A 
ATOM     10 BR   UNL     1      18.767  -9.617  25.053  0.00  0.00    +0.000 Br
ENDBRANCH   2   4
BRANCH   3  11
ATOM     11  N   UNL     1      14.371  -8.683  25.706  0.00  0.00    +0.000 NA
BRANCH  11  12
ATOM     12  C   UNL     1      13.090  -8.372  26.170  0.00  0.00    +0.000 C 
ATOM     13  C   UNL     1      12.246  -9.338  26.417  0.00  0.00    +0.000 C 
ATOM     14  C   UNL     1      12.659 -10.741  26.205  0.00  0.00    +0.000 C 
ATOM     15  C   UNL     1      12.886 -11.318  27.599  0.00  0.00    +0.000 C 
ATOM     16  C   UNL     1      12.153 -10.429  28.590  0.00  0.00    +0.000 C 
ATOM     17  C   UNL     1      10.742 -10.091  28.108  0.00  0.00    +0.000 C 
ATOM     18  C   UNL     1      10.890  -9.096  26.929  0.00  0.00    +0.000 C 
ENDBRANCH  11  12
ENDBRANCH   3  11
TORSDOF 3
ENDMDL
MODEL 10
REMARK VINA RESULT:      -5.7     22.071     24.492
REMARK  Name = 
REMARK  3 active torsions:
REMARK  status: ('A' for Active; 'I' for Inactive)
REMARK    1  A    between atoms: C_2  and  C_12
REMARK    2  A    between atoms: N_3  and  N_4
REMARK    3  A    between atoms: N_4  and  C_5
REMARK                            x       y       z     vdW  Elec       q    Type
REMARK                         _______ _______ _______ _____ _____    ______ ____
ROOT
ATOM      1  O   UNL     1      29.829  26.328  22.737  0.00  0.00    +0.000 OA
ATOM      2  C   UNL     1      29.754  25.098  22.512  0.00  0.00    +0.000 C 
ATOM      3  N   UNL     1      29.684  24.659  21.135  0.00  0.00    +0.000 NA
ENDROOT
BRANCH   2   4
ATOM      4  C   UNL     1      29.741  24.150  23.605  0.00  0.00    +0.000 A 
ATOM      5  C   UNL     1      30.931  23.694  24.096  0.00  0.00    +0.000 A 
ATOM      6  C   UNL     1      30.985  22.760  25.145  0.00  0.00    +0.000 A 
ATOM      7  C   UNL     1      29.780  22.331  25.654  0.00  0.00    +0.000 A 
ATOM      8  C   UNL     1      28.589  22.796  25.154  0.00  0.00    +0.000 A 
ATOM      9  C   UNL     1      28.541  23.713  24.123  0.00  0.00    +0.000 A 
ATOM     10 BR   UNL     1      26.945  24.421  23.387  0.00  0.00    +0.000 Br
ENDBRANCH   2   4
BRANCH   3  11
ATOM     11  N   UNL     1      29.693  25.586  20.149  0.00  0.00    +0.000 NA
BRANCH  11  12
ATOM     12  C   UNL     1      28.984  26.779  19.980  0.00  0.00    +0.000 C 
ATOM     13  C   UNL     1      29.519  27.750  19.291  0.00  0.00    +0.000 C 
ATOM     14  C   UNL     1      30.862  27.574  18.700  0.00  0.00    +0.000 C 
ATOM     15  C   UNL     1      30.630  27.373  17.206  0.00  0.00    +0.000 C 
ATOM     16  C   UNL     1      29.247  27.908  16.879  0.00  0.00    +0.000 C 
ATOM     17  C   UNL     1      29.000  29.270  17.528  0.00  0.00    +0.000 C 
ATOM     18  C   UNL     1      28.830  29.025  19.048  0.00  0.00    +0.000 C 
ENDBRANCH  11  12
ENDBRANCH   3  11
TORSDOF 3
ENDMDL
