MODEL 1
REMARK VINA RESULT:      -9.7      0.000      0.000
REMARK  Name = 
REMARK  4 active torsions:
REMARK  status: ('A' for Active; 'I' for Inactive)
REMARK    1  A    between atoms: C_8  and  C_9
REMARK    2  A    between atoms: C_11  and  C_12
REMARK    3  A    between atoms: N_20  and  C_22
REMARK    4  A    between atoms: C_22  and  C_23
REMARK                            x       y       z     vdW  Elec       q    Type
REMARK                         _______ _______ _______ _____ _____    ______ ____
ROOT
ATOM      1  C   UNL     1      36.834   4.692  13.664  0.00  0.00    +0.000 A 
ATOM      2  C   UNL     1      37.521   5.269  14.705  0.00  0.00    +0.000 A 
ATOM      3  C   UNL     1      38.348   4.500  15.499  0.00  0.00    +0.000 A 
ATOM      4  C   UNL     1      38.434   3.152  15.185  0.00  0.00    +0.000 A 
ATOM      5  C   UNL     1      37.749   2.564  14.143  0.00  0.00    +0.000 A 
ATOM      6  N   UNL     1      37.853   1.183  13.842  0.00  0.00    +0.000 N 
ATOM      7  C   UNL     1      38.924   0.769  12.969  0.00  0.00    +0.000 C 
ATOM      8  N   UNL     1      36.946   3.381  13.395  0.00  0.00    +0.000 NA
ENDROOT
BRANCH   1  16
ATOM      9  C   UNL     1      37.408   5.092  10.893  0.00  0.00    +0.000 C 
ATOM     10  C   UNL     1      36.208   5.703  11.488  0.00  0.00    +0.000 A 
ATOM     11  C   UNL     1      35.324   6.474  10.768  0.00  0.00    +0.000 A 
ATOM     12  C   UNL     1      34.203   7.044  11.327  0.00  0.00    +0.000 A 
ATOM     13  O   UNL     1      33.336   7.822  10.542  0.00  0.00    +0.000 OA
ATOM     14  C   UNL     1      33.958   6.831  12.662  0.00  0.00    +0.000 A 
ATOM     15  C   UNL     1      34.840   6.063  13.377  0.00  0.00    +0.000 A 
ATOM     16  C   UNL     1      35.962   5.490  12.826  0.00  0.00    +0.000 A 
ENDBRANCH   1  16
BRANCH   3  17
ATOM     17  C   UNL     1      39.098   5.076  16.609  0.00  0.00    +0.000 A 
ATOM     18  C   UNL     1      38.653   4.989  17.909  0.00  0.00    +0.000 A 
ATOM     19  C   UNL     1      39.387   5.541  18.960  0.00  0.00    +0.000 A 
ATOM     20  C   UNL     1      40.572   6.185  18.705  0.00  0.00    +0.000 A 
ATOM     21  C   UNL     1      41.034   6.284  17.418  0.00  0.00    +0.000 A 
ATOM     22  C   UNL     1      40.291   5.728  16.385  0.00  0.00    +0.000 A 
ENDBRANCH   3  17
BRANCH   6  23
ATOM     23  C   UNL     1      36.915   0.275  14.397  0.00  0.00    +0.000 C 
BRANCH  23  24
ATOM     24  C   UNL     1      37.495  -0.601  15.457  0.00  0.00    +0.000 A 
ATOM     25  C   UNL     1      38.555  -1.454  15.240  0.00  0.00    +0.000 A 
ATOM     26  C   UNL     1      39.052  -2.249  16.278  0.00  0.00    +0.000 A 
ATOM     27  C   UNL     1      38.503  -2.206  17.542  0.00  0.00    +0.000 A 
ATOM     28  C   UNL     1      37.442  -1.353  17.756  0.00  0.00    +0.000 A 
ATOM     29  C   UNL     1      36.880  -1.308  19.033  0.00  0.00    +0.000 A 
ATOM     30  C   UNL     1      35.823  -0.447  19.211  0.00  0.00    +0.000 A 
ATOM     31  C   UNL     1      35.321   0.340  18.211  0.00  0.00    +0.000 A 
ATOM     32  C   UNL     1      35.883   0.287  16.956  0.00  0.00    +0.000 A 
ATOM     33  C   UNL     1      36.959  -0.575  16.729  0.00  0.00    +0.000 A 
ENDBRANCH  23  24
ENDBRANCH   6  23
TORSDOF 4
ENDMDL
MODEL 2
REMARK VINA RESULT:      -9.5      0.684      1.857
REMARK  Name = 
REMARK  4 active torsions:
REMARK  status: ('A' for Active; 'I' for Inactive)
REMARK    1  A    between atoms: C_8  and  C_9
REMARK    2  A    between atoms: C_11  and  C_12
REMARK    3  A    between atoms: N_20  and  C_22
REMARK    4  A    between atoms: C_22  and  C_23
REMARK                            x       y       z     vdW  Elec       q    Type
REMARK                         _______ _______ _______ _____ _____    ______ ____
ROOT
ATOM      1  C   UNL     1      36.516   4.678  13.958  0.00  0.00    +0.000 A 
ATOM      2  C   UNL     1      37.314   5.267  14.909  0.00  0.00    +0.000 A 
ATOM      3  C   UNL     1      38.057   4.485  15.770  0.00  0.00    +0.000 A 
ATOM      4  C   UNL     1      37.948   3.111  15.615  0.00  0.00    +0.000 A 
ATOM      5  C   UNL     1      37.150   2.511  14.664  0.00  0.00    +0.000 A 
ATOM      6  N   UNL     1      37.054   1.104  14.525  0.00  0.00    +0.000 N 
ATOM      7  C   UNL     1      38.026   0.449  13.683  0.00  0.00    +0.000 C 
ATOM      8  N   UNL     1      36.439   3.342  13.842  0.00  0.00    +0.000 NA
ENDROOT
BRANCH   1  16
ATOM      9  C   UNL     1      37.277   4.994  11.222  0.00  0.00    +0.000 C 
ATOM     10  C   UNL     1      36.068   5.664  11.727  0.00  0.00    +0.000 A 
ATOM     11  C   UNL     1      35.262   6.451  10.938  0.00  0.00    +0.000 A 
ATOM     12  C   UNL     1      34.131   7.076  11.414  0.00  0.00    +0.000 A 
ATOM     13  O   UNL     1      33.347   7.870  10.561  0.00  0.00    +0.000 OA
ATOM     14  C   UNL     1      33.795   6.903  12.735  0.00  0.00    +0.000 A 
ATOM     15  C   UNL     1      34.600   6.117  13.519  0.00  0.00    +0.000 A 
ATOM     16  C   UNL     1      35.731   5.490  13.052  0.00  0.00    +0.000 A 
ENDBRANCH   1  16
BRANCH   3  17
ATOM     17  C   UNL     1      38.920   5.072  16.790  0.00  0.00    +0.000 A 
ATOM     18  C   UNL     1      38.595   5.033  18.127  0.00  0.00    +0.000 A 
ATOM     19  C   UNL     1      39.435   5.597  19.089  0.00  0.00    +0.000 A 
ATOM     20  C   UNL     1      40.606   6.202  18.707  0.00  0.00    +0.000 A 
ATOM     21  C   UNL     1      40.949   6.252  17.381  0.00  0.00    +0.000 A 
ATOM     22  C   UNL     1      40.102   5.686  16.438  0.00  0.00    +0.000 A 
ENDBRANCH   3  17
BRANCH   6  23
ATOM     23  C   UNL     1      36.022   0.404  15.202  0.00  0.00    +0.000 C 
BRANCH  23  24
ATOM     24  C   UNL     1      36.371   0.054  16.610  0.00  0.00    +0.000 A 
ATOM     25  C   UNL     1      35.992   0.812  17.696  0.00  0.00    +0.000 A 
ATOM     26  C   UNL     1      36.352   0.427  18.992  0.00  0.00    +0.000 A 
ATOM     27  C   UNL     1      37.091  -0.714  19.223  0.00  0.00    +0.000 A 
ATOM     28  C   UNL     1      37.469  -1.470  18.136  0.00  0.00    +0.000 A 
ATOM     29  C   UNL     1      38.218  -2.625  18.364  0.00  0.00    +0.000 A 
ATOM     30  C   UNL     1      38.579  -3.355  17.256  0.00  0.00    +0.000 A 
ATOM     31  C   UNL     1      38.238  -2.998  15.980  0.00  0.00    +0.000 A 
ATOM     32  C   UNL     1      37.498  -1.857  15.767  0.00  0.00    +0.000 A 
ATOM     33  C   UNL     1      37.110  -1.084  16.864  0.00  0.00    +0.000 A 
ENDBRANCH  23  24
ENDBRANCH   6  23
TORSDOF 4
ENDMDL
MODEL 3
REMARK VINA RESULT:      -9.3      3.239      7.750
REMARK  Name = 
REMARK  4 active torsions:
REMARK  status: ('A' for Active; 'I' for Inactive)
REMARK    1  A    between atoms: C_8  and  C_9
REMARK    2  A    between atoms: C_11  and  C_12
REMARK    3  A    between atoms: N_20  and  C_22
REMARK    4  A    between atoms: C_22  and  C_23
REMARK                            x       y       z     vdW  Elec       q    Type
REMARK                         _______ _______ _______ _____ _____    ______ ____
ROOT
ATOM      1  C   UNL     1      38.958   0.965  14.436  0.00  0.00    +0.000 A 
ATOM      2  C   UNL     1      38.051   0.020  14.855  0.00  0.00    +0.000 A 
ATOM      3  C   UNL     1      36.934   0.403  15.569  0.00  0.00    +0.000 A 
ATOM      4  C   UNL     1      36.793   1.759  15.827  0.00  0.00    +0.000 A 
ATOM      5  C   UNL     1      37.697   2.713  15.410  0.00  0.00    +0.000 A 
ATOM      6  N   UNL     1      37.532   4.094  15.686  0.00  0.00    +0.000 N 
ATOM      7  C   UNL     1      36.748   4.870  14.757  0.00  0.00    +0.000 C 
ATOM      8  N   UNL     1      38.784   2.269  14.707  0.00  0.00    +0.000 NA
ENDROOT
BRANCH   1  16
ATOM      9  C   UNL     1      39.009   1.105  11.582  0.00  0.00    +0.000 C 
ATOM     10  C   UNL     1      40.194   0.628  12.313  0.00  0.00    +0.000 A 
ATOM     11  C   UNL     1      41.355   0.238  11.685  0.00  0.00    +0.000 A 
ATOM     12  C   UNL     1      42.462  -0.208  12.372  0.00  0.00    +0.000 A 
ATOM     13  O   UNL     1      43.620  -0.593  11.676  0.00  0.00    +0.000 OA
ATOM     14  C   UNL     1      42.402  -0.263  13.743  0.00  0.00    +0.000 A 
ATOM     15  C   UNL     1      41.244   0.127  14.366  0.00  0.00    +0.000 A 
ATOM     16  C   UNL     1      40.135   0.573  13.688  0.00  0.00    +0.000 A 
ENDBRANCH   1  16
BRANCH   3  17
ATOM     17  C   UNL     1      35.946  -0.568  16.027  0.00  0.00    +0.000 A 
ATOM     18  C   UNL     1      35.909  -1.854  15.535  0.00  0.00    +0.000 A 
ATOM     19  C   UNL     1      34.959  -2.770  15.989  0.00  0.00    +0.000 A 
ATOM     20  C   UNL     1      34.043  -2.396  16.940  0.00  0.00    +0.000 A 
ATOM     21  C   UNL     1      34.063  -1.121  17.443  0.00  0.00    +0.000 A 
ATOM     22  C   UNL     1      35.014  -0.222  16.981  0.00  0.00    +0.000 A 
ENDBRANCH   3  17
BRANCH   6  23
ATOM     23  C   UNL     1      38.137   4.652  16.842  0.00  0.00    +0.000 C 
BRANCH  23  24
ATOM     24  C   UNL     1      39.460   5.284  16.569  0.00  0.00    +0.000 A 
ATOM     25  C   UNL     1      40.027   5.350  15.314  0.00  0.00    +0.000 A 
ATOM     26  C   UNL     1      41.272   5.958  15.128  0.00  0.00    +0.000 A 
ATOM     27  C   UNL     1      41.969   6.507  16.183  0.00  0.00    +0.000 A 
ATOM     28  C   UNL     1      41.402   6.439  17.436  0.00  0.00    +0.000 A 
ATOM     29  C   UNL     1      42.104   6.991  18.509  0.00  0.00    +0.000 A 
ATOM     30  C   UNL     1      41.510   6.905  19.746  0.00  0.00    +0.000 A 
ATOM     31  C   UNL     1      40.293   6.316  19.951  0.00  0.00    +0.000 A 
ATOM     32  C   UNL     1      39.609   5.775  18.886  0.00  0.00    +0.000 A 
ATOM     33  C   UNL     1      40.176   5.839  17.611  0.00  0.00    +0.000 A 
ENDBRANCH  23  24
ENDBRANCH   6  23
TORSDOF 4
ENDMDL
MODEL 4
REMARK VINA RESULT:      -9.3      2.816      7.852
REMARK  Name = 
REMARK  4 active torsions:
REMARK  status: ('A' for Active; 'I' for Inactive)
REMARK    1  A    between atoms: C_8  and  C_9
REMARK    2  A    between atoms: C_11  and  C_12
REMARK    3  A    between atoms: N_20  and  C_22
REMARK    4  A    between atoms: C_22  and  C_23
REMARK                            x       y       z     vdW  Elec       q    Type
REMARK                         _______ _______ _______ _____ _____    ______ ____
ROOT
ATOM      1  C   UNL     1      36.754   2.569  15.144  0.00  0.00    +0.000 A 
ATOM      2  C   UNL     1      35.952   3.368  14.364  0.00  0.00    +0.000 A 
ATOM      3  C   UNL     1      36.124   4.737  14.370  0.00  0.00    +0.000 A 
ATOM      4  C   UNL     1      37.127   5.235  15.189  0.00  0.00    +0.000 A 
ATOM      5  C   UNL     1      37.936   4.442  15.974  0.00  0.00    +0.000 A 
ATOM      6  N   UNL     1      38.955   4.975  16.803  0.00  0.00    +0.000 N 
ATOM      7  C   UNL     1      40.254   5.187  16.212  0.00  0.00    +0.000 C 
ATOM      8  N   UNL     1      37.715   3.093  15.923  0.00  0.00    +0.000 NA
ENDROOT
BRANCH   1  16
ATOM      9  C   UNL     1      34.987   1.298  16.996  0.00  0.00    +0.000 C 
ATOM     10  C   UNL     1      35.737   0.486  16.024  0.00  0.00    +0.000 A 
ATOM     11  C   UNL     1      35.633  -0.885  15.953  0.00  0.00    +0.000 A 
ATOM     12  C   UNL     1      36.336  -1.642  15.043  0.00  0.00    +0.000 A 
ATOM     13  O   UNL     1      36.189  -3.038  15.018  0.00  0.00    +0.000 OA
ATOM     14  C   UNL     1      37.176  -0.997  14.168  0.00  0.00    +0.000 A 
ATOM     15  C   UNL     1      37.279   0.368  14.241  0.00  0.00    +0.000 A 
ATOM     16  C   UNL     1      36.580   1.131  15.146  0.00  0.00    +0.000 A 
ENDBRANCH   1  16
BRANCH   3  17
ATOM     17  C   UNL     1      35.296   5.618  13.554  0.00  0.00    +0.000 A 
ATOM     18  C   UNL     1      34.181   6.244  14.061  0.00  0.00    +0.000 A 
ATOM     19  C   UNL     1      33.404   7.088  13.265  0.00  0.00    +0.000 A 
ATOM     20  C   UNL     1      33.748   7.303  11.955  0.00  0.00    +0.000 A 
ATOM     21  C   UNL     1      34.855   6.690  11.428  0.00  0.00    +0.000 A 
ATOM     22  C   UNL     1      35.617   5.854  12.234  0.00  0.00    +0.000 A 
ENDBRANCH   3  17
BRANCH   6  23
ATOM     23  C   UNL     1      38.667   5.270  18.161  0.00  0.00    +0.000 C 
BRANCH  23  24
ATOM     24  C   UNL     1      38.826   6.715  18.498  0.00  0.00    +0.000 A 
ATOM     25  C   UNL     1      37.928   7.687  18.115  0.00  0.00    +0.000 A 
ATOM     26  C   UNL     1      38.137   9.025  18.465  0.00  0.00    +0.000 A 
ATOM     27  C   UNL     1      39.238   9.413  19.198  0.00  0.00    +0.000 A 
ATOM     28  C   UNL     1      40.135   8.439  19.580  0.00  0.00    +0.000 A 
ATOM     29  C   UNL     1      41.252   8.826  20.321  0.00  0.00    +0.000 A 
ATOM     30  C   UNL     1      42.127   7.829  20.684  0.00  0.00    +0.000 A 
ATOM     31  C   UNL     1      41.943   6.515  20.353  0.00  0.00    +0.000 A 
ATOM     32  C   UNL     1      40.837   6.145  19.622  0.00  0.00    +0.000 A 
ATOM     33  C   UNL     1      39.922   7.124  19.231  0.00  0.00    +0.000 A 
ENDBRANCH  23  24
ENDBRANCH   6  23
TORSDOF 4
ENDMDL
MODEL 5
REMARK VINA RESULT:      -9.3      2.975      7.794
REMARK  Name = 
REMARK  4 active torsions:
REMARK  status: ('A' for Active; 'I' for Inactive)
REMARK    1  A    between atoms: C_8  and  C_9
REMARK    2  A    between atoms: C_11  and  C_12
REMARK    3  A    between atoms: N_20  and  C_22
REMARK    4  A    between atoms: C_22  and  C_23
REMARK                            x       y       z     vdW  Elec       q    Type
REMARK                         _______ _______ _______ _____ _____    ______ ____
ROOT
ATOM      1  C   UNL     1      36.962   2.620  15.227  0.00  0.00    +0.000 A 
ATOM      2  C   UNL     1      36.147   3.387  14.429  0.00  0.00    +0.000 A 
ATOM      3  C   UNL     1      36.225   4.764  14.482  0.00  0.00    +0.000 A 
ATOM      4  C   UNL     1      37.150   5.302  15.365  0.00  0.00    +0.000 A 
ATOM      5  C   UNL     1      37.972   4.540  16.169  0.00  0.00    +0.000 A 
ATOM      6  N   UNL     1      38.909   5.113  17.064  0.00  0.00    +0.000 N 
ATOM      7  C   UNL     1      40.218   5.429  16.547  0.00  0.00    +0.000 C 
ATOM      8  N   UNL     1      37.845   3.181  16.069  0.00  0.00    +0.000 NA
ENDROOT
BRANCH   1  16
ATOM      9  C   UNL     1      35.007   1.193  16.748  0.00  0.00    +0.000 C 
ATOM     10  C   UNL     1      35.957   0.454  15.900  0.00  0.00    +0.000 A 
ATOM     11  C   UNL     1      35.957  -0.918  15.793  0.00  0.00    +0.000 A 
ATOM     12  C   UNL     1      36.847  -1.605  14.999  0.00  0.00    +0.000 A 
ATOM     13  O   UNL     1      36.799  -3.008  14.931  0.00  0.00    +0.000 OA
ATOM     14  C   UNL     1      37.773  -0.888  14.283  0.00  0.00    +0.000 A 
ATOM     15  C   UNL     1      37.771   0.480  14.390  0.00  0.00    +0.000 A 
ATOM     16  C   UNL     1      36.886   1.174  15.181  0.00  0.00    +0.000 A 
ENDBRANCH   1  16
BRANCH   3  17
ATOM     17  C   UNL     1      35.381   5.613  13.649  0.00  0.00    +0.000 A 
ATOM     18  C   UNL     1      34.264   6.243  14.149  0.00  0.00    +0.000 A 
ATOM     19  C   UNL     1      33.472   7.056  13.337  0.00  0.00    +0.000 A 
ATOM     20  C   UNL     1      33.801   7.237  12.017  0.00  0.00    +0.000 A 
ATOM     21  C   UNL     1      34.909   6.619  11.498  0.00  0.00    +0.000 A 
ATOM     22  C   UNL     1      35.687   5.814  12.320  0.00  0.00    +0.000 A 
ENDBRANCH   3  17
BRANCH   6  23
ATOM     23  C   UNL     1      38.535   5.346  18.412  0.00  0.00    +0.000 C 
BRANCH  23  24
ATOM     24  C   UNL     1      39.405   6.341  19.104  0.00  0.00    +0.000 A 
ATOM     25  C   UNL     1      40.673   6.054  19.560  0.00  0.00    +0.000 A 
ATOM     26  C   UNL     1      41.438   7.034  20.201  0.00  0.00    +0.000 A 
ATOM     27  C   UNL     1      40.953   8.309  20.397  0.00  0.00    +0.000 A 
ATOM     28  C   UNL     1      39.684   8.595  19.941  0.00  0.00    +0.000 A 
ATOM     29  C   UNL     1      39.187   9.884  20.138  0.00  0.00    +0.000 A 
ATOM     30  C   UNL     1      37.917  10.133  19.673  0.00  0.00    +0.000 A 
ATOM     31  C   UNL     1      37.153   9.190  19.043  0.00  0.00    +0.000 A 
ATOM     32  C   UNL     1      37.653   7.923  18.853  0.00  0.00    +0.000 A 
ATOM     33  C   UNL     1      38.938   7.624  19.311  0.00  0.00    +0.000 A 
ENDBRANCH  23  24
ENDBRANCH   6  23
TORSDOF 4
ENDMDL
MODEL 6
REMARK VINA RESULT:      -9.0      1.691      2.663
REMARK  Name = 
REMARK  4 active torsions:
REMARK  status: ('A' for Active; 'I' for Inactive)
REMARK    1  A    between atoms: C_8  and  C_9
REMARK    2  A    between atoms: C_11  and  C_12
REMARK    3  A    between atoms: N_20  and  C_22
REMARK    4  A    between atoms: C_22  and  C_23
REMARK                            x       y       z     vdW  Elec       q    Type
REMARK                         _______ _______ _______ _____ _____    ______ ____
ROOT
ATOM      1  C   UNL     1      37.020   5.965  14.479  0.00  0.00    +0.000 A 
ATOM      2  C   UNL     1      37.549   6.514  15.622  0.00  0.00    +0.000 A 
ATOM      3  C   UNL     1      37.969   5.696  16.652  0.00  0.00    +0.000 A 
ATOM      4  C   UNL     1      37.827   4.329  16.460  0.00  0.00    +0.000 A 
ATOM      5  C   UNL     1      37.298   3.770  15.316  0.00  0.00    +0.000 A 
ATOM      6  N   UNL     1      37.162   2.370  15.143  0.00  0.00    +0.000 N 
ATOM      7  C   UNL     1      38.292   1.651  14.606  0.00  0.00    +0.000 C 
ATOM      8  N   UNL     1      36.900   4.635  14.333  0.00  0.00    +0.000 NA
ENDROOT
BRANCH   1  16
ATOM      9  C   UNL     1      34.240   6.455  14.034  0.00  0.00    +0.000 C 
ATOM     10  C   UNL     1      35.243   7.073  13.151  0.00  0.00    +0.000 A 
ATOM     11  C   UNL     1      34.910   7.894  12.098  0.00  0.00    +0.000 A 
ATOM     12  C   UNL     1      35.850   8.469  11.273  0.00  0.00    +0.000 A 
ATOM     13  O   UNL     1      35.450   9.299  10.213  0.00  0.00    +0.000 OA
ATOM     14  C   UNL     1      37.177   8.211  11.516  0.00  0.00    +0.000 A 
ATOM     15  C   UNL     1      37.506   7.393  12.566  0.00  0.00    +0.000 A 
ATOM     16  C   UNL     1      36.574   6.814  13.394  0.00  0.00    +0.000 A 
ENDBRANCH   1  16
BRANCH   3  17
ATOM     17  C   UNL     1      38.540   6.240  17.879  0.00  0.00    +0.000 A 
ATOM     18  C   UNL     1      38.023   7.362  18.486  0.00  0.00    +0.000 A 
ATOM     19  C   UNL     1      38.580   7.864  19.663  0.00  0.00    +0.000 A 
ATOM     20  C   UNL     1      39.660   7.239  20.233  0.00  0.00    +0.000 A 
ATOM     21  C   UNL     1      40.191   6.120  19.645  0.00  0.00    +0.000 A 
ATOM     22  C   UNL     1      39.625   5.633  18.475  0.00  0.00    +0.000 A 
ENDBRANCH   3  17
BRANCH   6  23
ATOM     23  C   UNL     1      35.941   1.738  15.493  0.00  0.00    +0.000 C 
BRANCH  23  24
ATOM     24  C   UNL     1      36.057   0.846  16.684  0.00  0.00    +0.000 A 
ATOM     25  C   UNL     1      36.130   1.314  17.978  0.00  0.00    +0.000 A 
ATOM     26  C   UNL     1      36.238   0.423  19.051  0.00  0.00    +0.000 A 
ATOM     27  C   UNL     1      36.273  -0.941  18.851  0.00  0.00    +0.000 A 
ATOM     28  C   UNL     1      36.201  -1.406  17.556  0.00  0.00    +0.000 A 
ATOM     29  C   UNL     1      36.239  -2.785  17.348  0.00  0.00    +0.000 A 
ATOM     30  C   UNL     1      36.166  -3.215  16.044  0.00  0.00    +0.000 A 
ATOM     31  C   UNL     1      36.060  -2.362  14.980  0.00  0.00    +0.000 A 
ATOM     32  C   UNL     1      36.023  -1.003  15.197  0.00  0.00    +0.000 A 
ATOM     33  C   UNL     1      36.095  -0.522  16.506  0.00  0.00    +0.000 A 
ENDBRANCH  23  24
ENDBRANCH   6  23
TORSDOF 4
ENDMDL
MODEL 7
REMARK VINA RESULT:      -8.9      2.865      6.885
REMARK  Name = 
REMARK  4 active torsions:
REMARK  status: ('A' for Active; 'I' for Inactive)
REMARK    1  A    between atoms: C_8  and  C_9
REMARK    2  A    between atoms: C_11  and  C_12
REMARK    3  A    between atoms: N_20  and  C_22
REMARK    4  A    between atoms: C_22  and  C_23
REMARK                            x       y       z     vdW  Elec       q    Type
REMARK                         _______ _______ _______ _____ _____    ______ ____
ROOT
ATOM      1  C   UNL     1      36.725   2.958  15.729  0.00  0.00    +0.000 A 
ATOM      2  C   UNL     1      37.331   3.678  16.730  0.00  0.00    +0.000 A 
ATOM      3  C   UNL     1      37.717   4.985  16.506  0.00  0.00    +0.000 A 
ATOM      4  C   UNL     1      37.459   5.502  15.245  0.00  0.00    +0.000 A 
ATOM      5  C   UNL     1      36.851   4.787  14.235  0.00  0.00    +0.000 A 
ATOM      6  N   UNL     1      36.598   5.338  12.954  0.00  0.00    +0.000 N 
ATOM      7  C   UNL     1      35.364   6.061  12.770  0.00  0.00    +0.000 C 
ATOM      8  N   UNL     1      36.493   3.498  14.521  0.00  0.00    +0.000 NA
ENDROOT
BRANCH   1  16
ATOM      9  C   UNL     1      38.236   0.777  14.668  0.00  0.00    +0.000 C 
ATOM     10  C   UNL     1      37.023   0.511  15.458  0.00  0.00    +0.000 A 
ATOM     11  C   UNL     1      36.564  -0.759  15.722  0.00  0.00    +0.000 A 
ATOM     12  C   UNL     1      35.428  -1.005  16.461  0.00  0.00    +0.000 A 
ATOM     13  O   UNL     1      35.008  -2.324  16.699  0.00  0.00    +0.000 OA
ATOM     14  C   UNL     1      34.726   0.067  16.955  0.00  0.00    +0.000 A 
ATOM     15  C   UNL     1      35.185   1.332  16.690  0.00  0.00    +0.000 A 
ATOM     16  C   UNL     1      36.318   1.586  15.954  0.00  0.00    +0.000 A 
ENDBRANCH   1  16
BRANCH   3  17
ATOM     17  C   UNL     1      38.359   5.784  17.543  0.00  0.00    +0.000 A 
ATOM     18  C   UNL     1      39.252   5.235  18.435  0.00  0.00    +0.000 A 
ATOM     19  C   UNL     1      39.860   6.017  19.418  0.00  0.00    +0.000 A 
ATOM     20  C   UNL     1      39.571   7.355  19.507  0.00  0.00    +0.000 A 
ATOM     21  C   UNL     1      38.684   7.923  18.629  0.00  0.00    +0.000 A 
ATOM     22  C   UNL     1      38.089   7.130  17.657  0.00  0.00    +0.000 A 
ENDBRANCH   3  17
BRANCH   6  23
ATOM     23  C   UNL     1      37.549   5.157  11.916  0.00  0.00    +0.000 C 
BRANCH  23  24
ATOM     24  C   UNL     1      37.267   3.971  11.056  0.00  0.00    +0.000 A 
ATOM     25  C   UNL     1      37.580   2.679  11.419  0.00  0.00    +0.000 A 
ATOM     26  C   UNL     1      37.289   1.610  10.565  0.00  0.00    +0.000 A 
ATOM     27  C   UNL     1      36.684   1.812   9.343  0.00  0.00    +0.000 A 
ATOM     28  C   UNL     1      36.373   3.104   8.981  0.00  0.00    +0.000 A 
ATOM     29  C   UNL     1      35.763   3.314   7.744  0.00  0.00    +0.000 A 
ATOM     30  C   UNL     1      35.468   4.617   7.414  0.00  0.00    +0.000 A 
ATOM     31  C   UNL     1      35.743   5.677   8.234  0.00  0.00    +0.000 A 
ATOM     32  C   UNL     1      36.345   5.457   9.453  0.00  0.00    +0.000 A 
ATOM     33  C   UNL     1      36.664   4.150   9.828  0.00  0.00    +0.000 A 
ENDBRANCH  23  24
ENDBRANCH   6  23
TORSDOF 4
ENDMDL
MODEL 8
REMARK VINA RESULT:      -8.7      2.685      6.087
REMARK  Name = 
REMARK  4 active torsions:
REMARK  status: ('A' for Active; 'I' for Inactive)
REMARK    1  A    between atoms: C_8  and  C_9
REMARK    2  A    between atoms: C_11  and  C_12
REMARK    3  A    between atoms: N_20  and  C_22
REMARK    4  A    between atoms: C_22  and  C_23
REMARK                            x       y       z     vdW  Elec       q    Type
REMARK                         _______ _______ _______ _____ _____    ______ ____
ROOT
ATOM      1  C   UNL     1      36.657   2.698  15.781  0.00  0.00    +0.000 A 
ATOM      2  C   UNL     1      37.589   3.295  16.595  0.00  0.00    +0.000 A 
ATOM      3  C   UNL     1      38.069   4.553  16.290  0.00  0.00    +0.000 A 
ATOM      4  C   UNL     1      37.562   5.153  15.147  0.00  0.00    +0.000 A 
ATOM      5  C   UNL     1      36.625   4.562  14.325  0.00  0.00    +0.000 A 
ATOM      6  N   UNL     1      36.122   5.195  13.161  0.00  0.00    +0.000 N 
ATOM      7  C   UNL     1      34.987   6.070  13.316  0.00  0.00    +0.000 C 
ATOM      8  N   UNL     1      36.191   3.314  14.682  0.00  0.00    +0.000 NA
ENDROOT
BRANCH   1  16
ATOM      9  C   UNL     1      37.953   0.349  14.798  0.00  0.00    +0.000 C 
ATOM     10  C   UNL     1      36.749   0.224  15.634  0.00  0.00    +0.000 A 
ATOM     11  C   UNL     1      36.198  -0.989  15.980  0.00  0.00    +0.000 A 
ATOM     12  C   UNL     1      35.071  -1.102  16.763  0.00  0.00    +0.000 A 
ATOM     13  O   UNL     1      34.554  -2.368  17.082  0.00  0.00    +0.000 OA
ATOM     14  C   UNL     1      34.473   0.048  17.218  0.00  0.00    +0.000 A 
ATOM     15  C   UNL     1      35.024   1.255  16.872  0.00  0.00    +0.000 A 
ATOM     16  C   UNL     1      36.149   1.377  16.091  0.00  0.00    +0.000 A 
ENDBRANCH   1  16
BRANCH   3  17
ATOM     17  C   UNL     1      39.056   5.222  17.130  0.00  0.00    +0.000 A 
ATOM     18  C   UNL     1      38.897   5.328  18.494  0.00  0.00    +0.000 A 
ATOM     19  C   UNL     1      39.855   5.968  19.282  0.00  0.00    +0.000 A 
ATOM     20  C   UNL     1      40.976   6.504  18.700  0.00  0.00    +0.000 A 
ATOM     21  C   UNL     1      41.154   6.410  17.344  0.00  0.00    +0.000 A 
ATOM     22  C   UNL     1      40.192   5.770  16.575  0.00  0.00    +0.000 A 
ENDBRANCH   3  17
BRANCH   6  23
ATOM     23  C   UNL     1      36.740   4.945  11.909  0.00  0.00    +0.000 C 
BRANCH  23  24
ATOM     24  C   UNL     1      38.147   4.465  12.028  0.00  0.00    +0.000 A 
ATOM     25  C   UNL     1      39.200   5.282  12.382  0.00  0.00    +0.000 A 
ATOM     26  C   UNL     1      40.497   4.768  12.477  0.00  0.00    +0.000 A 
ATOM     27  C   UNL     1      40.765   3.440  12.221  0.00  0.00    +0.000 A 
ATOM     28  C   UNL     1      39.712   2.626  11.867  0.00  0.00    +0.000 A 
ATOM     29  C   UNL     1      39.977   1.281  11.605  0.00  0.00    +0.000 A 
ATOM     30  C   UNL     1      38.903   0.498  11.252  0.00  0.00    +0.000 A 
ATOM     31  C   UNL     1      37.626   0.979  11.154  0.00  0.00    +0.000 A 
ATOM     32  C   UNL     1      37.376   2.307  11.415  0.00  0.00    +0.000 A 
ATOM     33  C   UNL     1      38.437   3.140  11.776  0.00  0.00    +0.000 A 
ENDBRANCH  23  24
ENDBRANCH   6  23
TORSDOF 4
ENDMDL
MODEL 9
REMARK VINA RESULT:      -8.6      2.635      5.900
REMARK  Name = 
REMARK  4 active torsions:
REMARK  status: ('A' for Active; 'I' for Inactive)
REMARK    1  A    between atoms: C_8  and  C_9
REMARK    2  A    between atoms: C_11  and  C_12
REMARK    3  A    between atoms: N_20  and  C_22
REMARK    4  A    between atoms: C_22  and  C_23
REMARK                            x       y       z     vdW  Elec       q    Type
REMARK                         _______ _______ _______ _____ _____    ______ ____
ROOT
ATOM      1  C   UNL     1      37.029   2.652  15.668  0.00  0.00    +0.000 A 
ATOM      2  C   UNL     1      37.822   3.322  16.568  0.00  0.00    +0.000 A 
ATOM      3  C   UNL     1      38.417   4.515  16.213  0.00  0.00    +0.000 A 
ATOM      4  C   UNL     1      38.169   4.977  14.928  0.00  0.00    +0.000 A 
ATOM      5  C   UNL     1      37.375   4.312  14.018  0.00  0.00    +0.000 A 
ATOM      6  N   UNL     1      37.135   4.803  12.710  0.00  0.00    +0.000 N 
ATOM      7  C   UNL     1      36.039   5.724  12.534  0.00  0.00    +0.000 C 
ATOM      8  N   UNL     1      36.815   3.134  14.432  0.00  0.00    +0.000 NA
ENDROOT
BRANCH   1  16
ATOM      9  C   UNL     1      38.272   0.150  15.065  0.00  0.00    +0.000 C 
ATOM     10  C   UNL     1      36.973   0.174  15.756  0.00  0.00    +0.000 A 
ATOM     11  C   UNL     1      36.307  -0.967  16.139  0.00  0.00    +0.000 A 
ATOM     12  C   UNL     1      35.091  -0.941  16.786  0.00  0.00    +0.000 A 
ATOM     13  O   UNL     1      34.457  -2.140  17.153  0.00  0.00    +0.000 OA
ATOM     14  C   UNL     1      34.523   0.279  17.059  0.00  0.00    +0.000 A 
ATOM     15  C   UNL     1      35.189   1.415  16.676  0.00  0.00    +0.000 A 
ATOM     16  C   UNL     1      36.402   1.397  16.031  0.00  0.00    +0.000 A 
ENDBRANCH   1  16
BRANCH   3  17
ATOM     17  C   UNL     1      39.261   5.259  17.141  0.00  0.00    +0.000 A 
ATOM     18  C   UNL     1      40.414   5.889  16.730  0.00  0.00    +0.000 A 
ATOM     19  C   UNL     1      41.207   6.601  17.632  0.00  0.00    +0.000 A 
ATOM     20  C   UNL     1      40.841   6.679  18.953  0.00  0.00    +0.000 A 
ATOM     21  C   UNL     1      39.697   6.058  19.384  0.00  0.00    +0.000 A 
ATOM     22  C   UNL     1      38.921   5.356  18.473  0.00  0.00    +0.000 A 
ENDBRANCH   3  17
BRANCH   6  23
ATOM     23  C   UNL     1      37.965   4.375  11.641  0.00  0.00    +0.000 C 
BRANCH  23  24
ATOM     24  C   UNL     1      38.153   2.896  11.594  0.00  0.00    +0.000 A 
ATOM     25  C   UNL     1      37.165   2.017  11.206  0.00  0.00    +0.000 A 
ATOM     26  C   UNL     1      37.407   0.640  11.184  0.00  0.00    +0.000 A 
ATOM     27  C   UNL     1      38.631   0.120  11.547  0.00  0.00    +0.000 A 
ATOM     28  C   UNL     1      39.618   1.000  11.935  0.00  0.00    +0.000 A 
ATOM     29  C   UNL     1      40.858   0.479  12.305  0.00  0.00    +0.000 A 
ATOM     30  C   UNL     1      41.819   1.386  12.689  0.00  0.00    +0.000 A 
ATOM     31  C   UNL     1      41.604   2.736  12.718  0.00  0.00    +0.000 A 
ATOM     32  C   UNL     1      40.376   3.239  12.350  0.00  0.00    +0.000 A 
ATOM     33  C   UNL     1      39.370   2.354  11.954  0.00  0.00    +0.000 A 
ENDBRANCH  23  24
ENDBRANCH   6  23
TORSDOF 4
ENDMDL
MODEL 10
REMARK VINA RESULT:      -8.5      1.286      2.498
REMARK  Name = 
REMARK  4 active torsions:
REMARK  status: ('A' for Active; 'I' for Inactive)
REMARK    1  A    between atoms: C_8  and  C_9
REMARK    2  A    between atoms: C_11  and  C_12
REMARK    3  A    between atoms: N_20  and  C_22
REMARK    4  A    between atoms: C_22  and  C_23
REMARK                            x       y       z     vdW  Elec       q    Type
REMARK                         _______ _______ _______ _____ _____    ______ ____
ROOT
ATOM      1  C   UNL     1      37.511   5.216  12.877  0.00  0.00    +0.000 A 
ATOM      2  C   UNL     1      38.006   5.630  14.090  0.00  0.00    +0.000 A 
ATOM      3  C   UNL     1      38.522   4.709  14.978  0.00  0.00    +0.000 A 
ATOM      4  C   UNL     1      38.509   3.381  14.576  0.00  0.00    +0.000 A 
ATOM      5  C   UNL     1      38.015   2.956  13.361  0.00  0.00    +0.000 A 
ATOM      6  N   UNL     1      38.011   1.593  12.972  0.00  0.00    +0.000 N 
ATOM      7  C   UNL     1      39.195   1.081  12.326  0.00  0.00    +0.000 C 
ATOM      8  N   UNL     1      37.517   3.919  12.526  0.00  0.00    +0.000 NA
ENDROOT
BRANCH   1  16
ATOM      9  C   UNL     1      34.819   6.146  13.114  0.00  0.00    +0.000 C 
ATOM     10  C   UNL     1      35.672   6.645  12.024  0.00  0.00    +0.000 A 
ATOM     11  C   UNL     1      35.238   7.557  11.089  0.00  0.00    +0.000 A 
ATOM     12  C   UNL     1      36.039   8.022  10.070  0.00  0.00    +0.000 A 
ATOM     13  O   UNL     1      35.540   8.954   9.145  0.00  0.00    +0.000 OA
ATOM     14  C   UNL     1      37.327   7.553   9.986  0.00  0.00    +0.000 A 
ATOM     15  C   UNL     1      37.758   6.644  10.918  0.00  0.00    +0.000 A 
ATOM     16  C   UNL     1      36.965   6.175  11.939  0.00  0.00    +0.000 A 
ENDBRANCH   1  16
BRANCH   3  17
ATOM     17  C   UNL     1      39.061   5.109  16.273  0.00  0.00    +0.000 A 
ATOM     18  C   UNL     1      38.459   4.742  17.456  0.00  0.00    +0.000 A 
ATOM     19  C   UNL     1      38.991   5.131  18.686  0.00  0.00    +0.000 A 
ATOM     20  C   UNL     1      40.133   5.891  18.729  0.00  0.00    +0.000 A 
ATOM     21  C   UNL     1      40.749   6.267  17.564  0.00  0.00    +0.000 A 
ATOM     22  C   UNL     1      40.206   5.872  16.350  0.00  0.00    +0.000 A 
ENDBRANCH   3  17
BRANCH   6  23
ATOM     23  C   UNL     1      36.863   0.798  13.224  0.00  0.00    +0.000 C 
BRANCH  23  24
ATOM     24  C   UNL     1      36.193   1.120  14.517  0.00  0.00    +0.000 A 
ATOM     25  C   UNL     1      35.293   2.153  14.669  0.00  0.00    +0.000 A 
ATOM     26  C   UNL     1      34.700   2.401  15.911  0.00  0.00    +0.000 A 
ATOM     27  C   UNL     1      34.993   1.629  17.015  0.00  0.00    +0.000 A 
ATOM     28  C   UNL     1      35.894   0.598  16.861  0.00  0.00    +0.000 A 
ATOM     29  C   UNL     1      36.196  -0.186  17.975  0.00  0.00    +0.000 A 
ATOM     30  C   UNL     1      37.100  -1.205  17.786  0.00  0.00    +0.000 A 
ATOM     31  C   UNL     1      37.691  -1.467  16.581  0.00  0.00    +0.000 A 
ATOM     32  C   UNL     1      37.386  -0.687  15.489  0.00  0.00    +0.000 A 
ATOM     33  C   UNL     1      36.473   0.360  15.635  0.00  0.00    +0.000 A 
ENDBRANCH  23  24
ENDBRANCH   6  23
TORSDOF 4
ENDMDL
