MODEL 1
REMARK VINA RESULT:      -6.6      0.000      0.000
REMARK  Name = 
REMARK  2 active torsions:
REMARK  status: ('A' for Active; 'I' for Inactive)
REMARK    1  A    between atoms: C_5  and  C_6
REMARK    2  A    between atoms: N_8  and  C_9
REMARK                            x       y       z     vdW  Elec       q    Type
REMARK                         _______ _______ _______ _____ _____    ______ ____
ROOT
ATOM      1  C   UNL     1      17.052  10.290  34.963  0.00  0.00    +0.000 C 
ATOM      2  O   UNL     1      16.652   9.330  34.283  0.00  0.00    +0.000 OA
ATOM      3  N   UNL     1      16.772  11.602  34.462  0.00  0.00    +0.000 NA
ENDROOT
BRANCH   3   4
ATOM      4  C   UNL     1      16.101  11.895  33.289  0.00  0.00    +0.000 C 
ATOM      5  C   UNL     1      14.633  12.057  33.276  0.00  0.00    +0.000 C 
ATOM      6  C   UNL     1      14.236  13.201  32.356  0.00  0.00    +0.000 C 
ATOM      7  C   UNL     1      14.856  13.048  30.979  0.00  0.00    +0.000 C 
ATOM      8  C   UNL     1      14.307  11.751  30.367  0.00  0.00    +0.000 C 
ATOM      9  C   UNL     1      14.701  10.600  31.269  0.00  0.00    +0.000 C 
ATOM     10  C   UNL     1      14.064  10.786  32.631  0.00  0.00    +0.000 C 
ATOM     11  C   UNL     1      16.192  10.515  31.313  0.00  0.00    +0.000 C 
ATOM     12  C   UNL     1      16.768  11.776  31.983  0.00  0.00    +0.000 C 
ATOM     13  C   UNL     1      16.362  12.924  31.066  0.00  0.00    +0.000 C 
ENDBRANCH   3   4
BRANCH   1  18
ATOM     14  N   UNL     1      19.804   9.911  39.962  0.00  0.00    +0.000 NA
ATOM     15  C   UNL     1      19.138   9.993  38.697  0.00  0.00    +0.000 A 
ATOM     16  C   UNL     1      17.796  10.342  38.632  0.00  0.00    +0.000 A 
ATOM     17  C   UNL     1      17.157  10.424  37.418  0.00  0.00    +0.000 A 
ATOM     18  C   UNL     1      17.782  10.173  36.221  0.00  0.00    +0.000 A 
ATOM     19  C   UNL     1      19.128   9.821  36.283  0.00  0.00    +0.000 A 
ATOM     20  C   UNL     1      19.779   9.737  37.506  0.00  0.00    +0.000 A 
ENDBRANCH   1  18
TORSDOF 2
ENDMDL
MODEL 2
REMARK VINA RESULT:      -6.5      3.803      7.415
REMARK  Name = 
REMARK  2 active torsions:
REMARK  status: ('A' for Active; 'I' for Inactive)
REMARK    1  A    between atoms: C_5  and  C_6
REMARK    2  A    between atoms: N_8  and  C_9
REMARK                            x       y       z     vdW  Elec       q    Type
REMARK                         _______ _______ _______ _____ _____    ______ ____
ROOT
ATOM      1  C   UNL     1      16.922  11.899  37.129  0.00  0.00    +0.000 C 
ATOM      2  O   UNL     1      17.597  12.646  36.400  0.00  0.00    +0.000 OA
ATOM      3  N   UNL     1      17.641  11.012  37.993  0.00  0.00    +0.000 NA
ENDROOT
BRANCH   3   4
ATOM      4  C   UNL     1      19.018  10.910  38.085  0.00  0.00    +0.000 C 
ATOM      5  C   UNL     1      19.713   9.670  37.687  0.00  0.00    +0.000 C 
ATOM      6  C   UNL     1      21.008  10.001  36.961  0.00  0.00    +0.000 C 
ATOM      7  C   UNL     1      21.864  10.964  37.763  0.00  0.00    +0.000 C 
ATOM      8  C   UNL     1      22.239  10.265  39.078  0.00  0.00    +0.000 C 
ATOM      9  C   UNL     1      20.958   9.935  39.817  0.00  0.00    +0.000 C 
ATOM     10  C   UNL     1      20.132   8.972  38.989  0.00  0.00    +0.000 C 
ATOM     11  C   UNL     1      20.248  11.210  40.138  0.00  0.00    +0.000 C 
ATOM     12  C   UNL     1      19.803  11.902  38.836  0.00  0.00    +0.000 C 
ATOM     13  C   UNL     1      21.100  12.225  38.104  0.00  0.00    +0.000 C 
ENDBRANCH   3   4
BRANCH   1  18
ATOM     14  N   UNL     1      11.213  11.630  37.343  0.00  0.00    +0.000 NA
ATOM     15  C   UNL     1      12.641  11.719  37.270  0.00  0.00    +0.000 A 
ATOM     16  C   UNL     1      13.434  11.021  38.169  0.00  0.00    +0.000 A 
ATOM     17  C   UNL     1      14.804  11.104  38.098  0.00  0.00    +0.000 A 
ATOM     18  C   UNL     1      15.463  11.862  37.161  0.00  0.00    +0.000 A 
ATOM     19  C   UNL     1      14.670  12.565  36.258  0.00  0.00    +0.000 A 
ATOM     20  C   UNL     1      13.286  12.484  36.325  0.00  0.00    +0.000 A 
ENDBRANCH   1  18
TORSDOF 2
ENDMDL
MODEL 3
REMARK VINA RESULT:      -6.5      1.923      7.183
REMARK  Name = 
REMARK  2 active torsions:
REMARK  status: ('A' for Active; 'I' for Inactive)
REMARK    1  A    between atoms: C_5  and  C_6
REMARK    2  A    between atoms: N_8  and  C_9
REMARK                            x       y       z     vdW  Elec       q    Type
REMARK                         _______ _______ _______ _____ _____    ______ ____
ROOT
ATOM      1  C   UNL     1      15.642  11.564  35.637  0.00  0.00    +0.000 C 
ATOM      2  O   UNL     1      14.984  11.299  36.657  0.00  0.00    +0.000 OA
ATOM      3  N   UNL     1      17.038  11.245  35.664  0.00  0.00    +0.000 NA
ENDROOT
BRANCH   3   4
ATOM      4  C   UNL     1      17.719  10.676  36.726  0.00  0.00    +0.000 C 
ATOM      5  C   UNL     1      17.918  11.421  37.985  0.00  0.00    +0.000 C 
ATOM      6  C   UNL     1      17.751  10.494  39.179  0.00  0.00    +0.000 C 
ATOM      7  C   UNL     1      18.617   9.254  39.046  0.00  0.00    +0.000 C 
ATOM      8  C   UNL     1      20.082   9.716  39.021  0.00  0.00    +0.000 C 
ATOM      9  C   UNL     1      20.266  10.635  37.832  0.00  0.00    +0.000 C 
ATOM     10  C   UNL     1      19.389  11.859  38.000  0.00  0.00    +0.000 C 
ATOM     11  C   UNL     1      19.985   9.864  36.582  0.00  0.00    +0.000 C 
ATOM     12  C   UNL     1      18.504   9.444  36.550  0.00  0.00    +0.000 C 
ATOM     13  C   UNL     1      18.334   8.523  37.752  0.00  0.00    +0.000 C 
ENDBRANCH   3   4
BRANCH   1  18
ATOM     14  N   UNL     1      13.606  13.868  30.816  0.00  0.00    +0.000 NA
ATOM     15  C   UNL     1      14.098  13.309  32.038  0.00  0.00    +0.000 A 
ATOM     16  C   UNL     1      14.896  12.173  32.019  0.00  0.00    +0.000 A 
ATOM     17  C   UNL     1      15.371  11.637  33.192  0.00  0.00    +0.000 A 
ATOM     18  C   UNL     1      15.096  12.171  34.428  0.00  0.00    +0.000 A 
ATOM     19  C   UNL     1      14.296  13.310  34.450  0.00  0.00    +0.000 A 
ATOM     20  C   UNL     1      13.814  13.856  33.268  0.00  0.00    +0.000 A 
ENDBRANCH   1  18
TORSDOF 2
ENDMDL
MODEL 4
REMARK VINA RESULT:      -6.5     20.526     23.125
REMARK  Name = 
REMARK  2 active torsions:
REMARK  status: ('A' for Active; 'I' for Inactive)
REMARK    1  A    between atoms: C_5  and  C_6
REMARK    2  A    between atoms: N_8  and  C_9
REMARK                            x       y       z     vdW  Elec       q    Type
REMARK                         _______ _______ _______ _____ _____    ______ ____
ROOT
ATOM      1  C   UNL     1      32.834  -3.678  33.756  0.00  0.00    +0.000 C 
ATOM      2  O   UNL     1      32.045  -4.530  34.196  0.00  0.00    +0.000 OA
ATOM      3  N   UNL     1      33.572  -4.023  32.578  0.00  0.00    +0.000 NA
ENDROOT
BRANCH   3   4
ATOM      4  C   UNL     1      33.487  -5.221  31.890  0.00  0.00    +0.000 C 
ATOM      5  C   UNL     1      34.303  -6.383  32.292  0.00  0.00    +0.000 C 
ATOM      6  C   UNL     1      33.490  -7.664  32.177  0.00  0.00    +0.000 C 
ATOM      7  C   UNL     1      32.852  -7.796  30.806  0.00  0.00    +0.000 C 
ATOM      8  C   UNL     1      33.988  -7.875  29.774  0.00  0.00    +0.000 C 
ATOM      9  C   UNL     1      34.803  -6.603  29.872  0.00  0.00    +0.000 C 
ATOM     10  C   UNL     1      35.424  -6.506  31.251  0.00  0.00    +0.000 C 
ATOM     11  C   UNL     1      33.924  -5.443  29.529  0.00  0.00    +0.000 C 
ATOM     12  C   UNL     1      32.813  -5.300  30.585  0.00  0.00    +0.000 C 
ATOM     13  C   UNL     1      32.003  -6.587  30.476  0.00  0.00    +0.000 C 
ENDBRANCH   3   4
BRANCH   1  18
ATOM     14  N   UNL     1      33.832   1.491  35.991  0.00  0.00    +0.000 NA
ATOM     15  C   UNL     1      33.563   0.191  35.453  0.00  0.00    +0.000 A 
ATOM     16  C   UNL     1      34.019  -0.153  34.188  0.00  0.00    +0.000 A 
ATOM     17  C   UNL     1      33.764  -1.401  33.672  0.00  0.00    +0.000 A 
ATOM     18  C   UNL     1      33.061  -2.365  34.352  0.00  0.00    +0.000 A 
ATOM     19  C   UNL     1      32.601  -2.023  35.621  0.00  0.00    +0.000 A 
ATOM     20  C   UNL     1      32.857  -0.764  36.147  0.00  0.00    +0.000 A 
ENDBRANCH   1  18
TORSDOF 2
ENDMDL
MODEL 5
REMARK VINA RESULT:      -6.4     20.408     23.277
REMARK  Name = 
REMARK  2 active torsions:
REMARK  status: ('A' for Active; 'I' for Inactive)
REMARK    1  A    between atoms: C_5  and  C_6
REMARK    2  A    between atoms: N_8  and  C_9
REMARK                            x       y       z     vdW  Elec       q    Type
REMARK                         _______ _______ _______ _____ _____    ______ ____
ROOT
ATOM      1  C   UNL     1      34.231  -4.766  32.789  0.00  0.00    +0.000 C 
ATOM      2  O   UNL     1      34.892  -5.201  33.746  0.00  0.00    +0.000 OA
ATOM      3  N   UNL     1      33.611  -3.485  32.956  0.00  0.00    +0.000 NA
ENDROOT
BRANCH   3   4
ATOM      4  C   UNL     1      33.680  -2.694  34.090  0.00  0.00    +0.000 C 
ATOM      5  C   UNL     1      32.799  -2.951  35.246  0.00  0.00    +0.000 C 
ATOM      6  C   UNL     1      33.564  -2.753  36.546  0.00  0.00    +0.000 C 
ATOM      7  C   UNL     1      34.260  -1.405  36.582  0.00  0.00    +0.000 C 
ATOM      8  C   UNL     1      33.172  -0.322  36.516  0.00  0.00    +0.000 C 
ATOM      9  C   UNL     1      32.406  -0.502  35.222  0.00  0.00    +0.000 C 
ATOM     10  C   UNL     1      31.725  -1.855  35.223  0.00  0.00    +0.000 C 
ATOM     11  C   UNL     1      33.346  -0.306  34.077  0.00  0.00    +0.000 C 
ATOM     12  C   UNL     1      34.411  -1.418  34.080  0.00  0.00    +0.000 C 
ATOM     13  C   UNL     1      35.172  -1.226  35.387  0.00  0.00    +0.000 C 
ENDBRANCH   3   4
BRANCH   1  18
ATOM     14  N   UNL     1      33.343  -7.466  27.826  0.00  0.00    +0.000 NA
ATOM     15  C   UNL     1      33.593  -6.799  29.069  0.00  0.00    +0.000 A 
ATOM     16  C   UNL     1      32.658  -5.917  29.592  0.00  0.00    +0.000 A 
ATOM     17  C   UNL     1      32.896  -5.279  30.786  0.00  0.00    +0.000 A 
ATOM     18  C   UNL     1      34.042  -5.463  31.521  0.00  0.00    +0.000 A 
ATOM     19  C   UNL     1      34.983  -6.346  30.997  0.00  0.00    +0.000 A 
ATOM     20  C   UNL     1      34.747  -6.994  29.792  0.00  0.00    +0.000 A 
ENDBRANCH   1  18
TORSDOF 2
ENDMDL
MODEL 6
REMARK VINA RESULT:      -6.4      3.230      8.362
REMARK  Name = 
REMARK  2 active torsions:
REMARK  status: ('A' for Active; 'I' for Inactive)
REMARK    1  A    between atoms: C_5  and  C_6
REMARK    2  A    between atoms: N_8  and  C_9
REMARK                            x       y       z     vdW  Elec       q    Type
REMARK                         _______ _______ _______ _____ _____    ______ ____
ROOT
ATOM      1  C   UNL     1      17.856  10.409  38.148  0.00  0.00    +0.000 C 
ATOM      2  O   UNL     1      18.840  10.889  38.737  0.00  0.00    +0.000 OA
ATOM      3  N   UNL     1      17.004   9.545  38.908  0.00  0.00    +0.000 NA
ENDROOT
BRANCH   3   4
ATOM      4  C   UNL     1      17.181   9.194  40.235  0.00  0.00    +0.000 C 
ATOM      5  C   UNL     1      18.313   8.341  40.647  0.00  0.00    +0.000 C 
ATOM      6  C   UNL     1      18.887   8.830  41.968  0.00  0.00    +0.000 C 
ATOM      7  C   UNL     1      17.807   8.982  43.023  0.00  0.00    +0.000 C 
ATOM      8  C   UNL     1      17.203   7.591  43.269  0.00  0.00    +0.000 C 
ATOM      9  C   UNL     1      16.620   7.093  41.963  0.00  0.00    +0.000 C 
ATOM     10  C   UNL     1      17.725   6.953  40.937  0.00  0.00    +0.000 C 
ATOM     11  C   UNL     1      15.527   8.022  41.541  0.00  0.00    +0.000 C 
ATOM     12  C   UNL     1      16.114   9.409  41.225  0.00  0.00    +0.000 C 
ATOM     13  C   UNL     1      16.699   9.896  42.546  0.00  0.00    +0.000 C 
ENDBRANCH   3   4
BRANCH   1  18
ATOM     14  N   UNL     1      16.401  11.474  32.721  0.00  0.00    +0.000 NA
ATOM     15  C   UNL     1      16.787  11.190  34.071  0.00  0.00    +0.000 A 
ATOM     16  C   UNL     1      16.264  11.931  35.121  0.00  0.00    +0.000 A 
ATOM     17  C   UNL     1      16.631  11.657  36.417  0.00  0.00    +0.000 A 
ATOM     18  C   UNL     1      17.516  10.661  36.752  0.00  0.00    +0.000 A 
ATOM     19  C   UNL     1      18.043   9.916  35.700  0.00  0.00    +0.000 A 
ATOM     20  C   UNL     1      17.675  10.189  34.390  0.00  0.00    +0.000 A 
ENDBRANCH   1  18
TORSDOF 2
ENDMDL
MODEL 7
REMARK VINA RESULT:      -6.3      3.623      8.789
REMARK  Name = 
REMARK  2 active torsions:
REMARK  status: ('A' for Active; 'I' for Inactive)
REMARK    1  A    between atoms: C_5  and  C_6
REMARK    2  A    between atoms: N_8  and  C_9
REMARK                            x       y       z     vdW  Elec       q    Type
REMARK                         _______ _______ _______ _____ _____    ______ ____
ROOT
ATOM      1  C   UNL     1      17.170   9.952  38.472  0.00  0.00    +0.000 C 
ATOM      2  O   UNL     1      18.275   9.413  38.292  0.00  0.00    +0.000 OA
ATOM      3  N   UNL     1      16.544   9.740  39.743  0.00  0.00    +0.000 NA
ENDROOT
BRANCH   3   4
ATOM      4  C   UNL     1      17.057   8.985  40.783  0.00  0.00    +0.000 C 
ATOM      5  C   UNL     1      16.559   7.620  41.045  0.00  0.00    +0.000 C 
ATOM      6  C   UNL     1      17.710   6.704  41.429  0.00  0.00    +0.000 C 
ATOM      7  C   UNL     1      18.536   7.292  42.559  0.00  0.00    +0.000 C 
ATOM      8  C   UNL     1      17.618   7.419  43.784  0.00  0.00    +0.000 C 
ATOM      9  C   UNL     1      16.469   8.336  43.419  0.00  0.00    +0.000 C 
ATOM     10  C   UNL     1      15.669   7.716  42.292  0.00  0.00    +0.000 C 
ATOM     11  C   UNL     1      17.020   9.686  43.090  0.00  0.00    +0.000 C 
ATOM     12  C   UNL     1      17.893   9.600  41.825  0.00  0.00    +0.000 C 
ATOM     13  C   UNL     1      19.042   8.674  42.207  0.00  0.00    +0.000 C 
ENDBRANCH   3   4
BRANCH   1  18
ATOM     14  N   UNL     1      14.315  13.163  34.699  0.00  0.00    +0.000 NA
ATOM     15  C   UNL     1      15.053  12.359  35.626  0.00  0.00    +0.000 A 
ATOM     16  C   UNL     1      14.560  12.129  36.903  0.00  0.00    +0.000 A 
ATOM     17  C   UNL     1      15.267  11.356  37.792  0.00  0.00    +0.000 A 
ATOM     18  C   UNL     1      16.474  10.775  37.489  0.00  0.00    +0.000 A 
ATOM     19  C   UNL     1      16.972  11.005  36.208  0.00  0.00    +0.000 A 
ATOM     20  C   UNL     1      16.262  11.785  35.306  0.00  0.00    +0.000 A 
ENDBRANCH   1  18
TORSDOF 2
ENDMDL
MODEL 8
REMARK VINA RESULT:      -6.2     17.587     19.664
REMARK  Name = 
REMARK  2 active torsions:
REMARK  status: ('A' for Active; 'I' for Inactive)
REMARK    1  A    between atoms: C_5  and  C_6
REMARK    2  A    between atoms: N_8  and  C_9
REMARK                            x       y       z     vdW  Elec       q    Type
REMARK                         _______ _______ _______ _____ _____    ______ ____
ROOT
ATOM      1  C   UNL     1      26.259  24.161  26.469  0.00  0.00    +0.000 C 
ATOM      2  O   UNL     1      25.731  23.244  25.819  0.00  0.00    +0.000 OA
ATOM      3  N   UNL     1      27.288  24.912  25.814  0.00  0.00    +0.000 NA
ENDROOT
BRANCH   3   4
ATOM      4  C   UNL     1      27.747  24.704  24.526  0.00  0.00    +0.000 C 
ATOM      5  C   UNL     1      29.084  24.124  24.283  0.00  0.00    +0.000 C 
ATOM      6  C   UNL     1      29.031  23.150  23.116  0.00  0.00    +0.000 C 
ATOM      7  C   UNL     1      28.396  23.782  21.892  0.00  0.00    +0.000 C 
ATOM      8  C   UNL     1      29.284  24.962  21.468  0.00  0.00    +0.000 C 
ATOM      9  C   UNL     1      29.340  25.946  22.619  0.00  0.00    +0.000 C 
ATOM     10  C   UNL     1      29.980  25.281  23.820  0.00  0.00    +0.000 C 
ATOM     11  C   UNL     1      27.959  26.455  22.881  0.00  0.00    +0.000 C 
ATOM     12  C   UNL     1      27.062  25.303  23.370  0.00  0.00    +0.000 C 
ATOM     13  C   UNL     1      27.017  24.322  22.205  0.00  0.00    +0.000 C 
ENDBRANCH   3   4
BRANCH   1  18
ATOM     14  N   UNL     1      24.845  25.703  31.792  0.00  0.00    +0.000 NA
ATOM     15  C   UNL     1      25.211  25.292  30.470  0.00  0.00    +0.000 A 
ATOM     16  C   UNL     1      24.740  25.986  29.364  0.00  0.00    +0.000 A 
ATOM     17  C   UNL     1      25.093  25.594  28.094  0.00  0.00    +0.000 A 
ATOM     18  C   UNL     1      25.910  24.520  27.840  0.00  0.00    +0.000 A 
ATOM     19  C   UNL     1      26.382  23.820  28.948  0.00  0.00    +0.000 A 
ATOM     20  C   UNL     1      26.030  24.212  30.231  0.00  0.00    +0.000 A 
ENDBRANCH   1  18
TORSDOF 2
ENDMDL
MODEL 9
REMARK VINA RESULT:      -6.2     19.031     20.954
REMARK  Name = 
REMARK  2 active torsions:
REMARK  status: ('A' for Active; 'I' for Inactive)
REMARK    1  A    between atoms: C_5  and  C_6
REMARK    2  A    between atoms: N_8  and  C_9
REMARK                            x       y       z     vdW  Elec       q    Type
REMARK                         _______ _______ _______ _____ _____    ______ ____
ROOT
ATOM      1  C   UNL     1      24.053   3.470  17.886  0.00  0.00    +0.000 C 
ATOM      2  O   UNL     1      24.752   3.263  18.892  0.00  0.00    +0.000 OA
ATOM      3  N   UNL     1      24.594   4.345  16.889  0.00  0.00    +0.000 NA
ENDROOT
BRANCH   3   4
ATOM      4  C   UNL     1      25.821   4.982  16.949  0.00  0.00    +0.000 C 
ATOM      5  C   UNL     1      25.924   6.383  17.403  0.00  0.00    +0.000 C 
ATOM      6  C   UNL     1      27.158   6.566  18.274  0.00  0.00    +0.000 C 
ATOM      7  C   UNL     1      28.406   6.041  17.588  0.00  0.00    +0.000 C 
ATOM      8  C   UNL     1      28.615   6.870  16.312  0.00  0.00    +0.000 C 
ATOM      9  C   UNL     1      27.397   6.692  15.430  0.00  0.00    +0.000 C 
ATOM     10  C   UNL     1      26.173   7.228  16.145  0.00  0.00    +0.000 C 
ATOM     11  C   UNL     1      27.285   5.250  15.052  0.00  0.00    +0.000 C 
ATOM     12  C   UNL     1      27.010   4.401  16.306  0.00  0.00    +0.000 C 
ATOM     13  C   UNL     1      28.241   4.591  17.184  0.00  0.00    +0.000 C 
ENDBRANCH   3   4
BRANCH   1  18
ATOM     14  N   UNL     1      18.936   1.137  16.853  0.00  0.00    +0.000 NA
ATOM     15  C   UNL     1      20.205   1.737  17.133  0.00  0.00    +0.000 A 
ATOM     16  C   UNL     1      21.358   1.253  16.531  0.00  0.00    +0.000 A 
ATOM     17  C   UNL     1      22.577   1.829  16.798  0.00  0.00    +0.000 A 
ATOM     18  C   UNL     1      22.734   2.892  17.654  0.00  0.00    +0.000 A 
ATOM     19  C   UNL     1      21.579   3.379  18.261  0.00  0.00    +0.000 A 
ATOM     20  C   UNL     1      20.346   2.801  17.994  0.00  0.00    +0.000 A 
ENDBRANCH   1  18
TORSDOF 2
ENDMDL
MODEL 10
REMARK VINA RESULT:      -6.2     18.474     20.231
REMARK  Name = 
REMARK  2 active torsions:
REMARK  status: ('A' for Active; 'I' for Inactive)
REMARK    1  A    between atoms: C_5  and  C_6
REMARK    2  A    between atoms: N_8  and  C_9
REMARK                            x       y       z     vdW  Elec       q    Type
REMARK                         _______ _______ _______ _____ _____    ______ ____
ROOT
ATOM      1  C   UNL     1      33.980   2.955  34.360  0.00  0.00    +0.000 C 
ATOM      2  O   UNL     1      33.610   3.792  33.520  0.00  0.00    +0.000 OA
ATOM      3  N   UNL     1      34.706   3.449  35.492  0.00  0.00    +0.000 NA
ENDROOT
BRANCH   3   4
ATOM      4  C   UNL     1      35.034   4.772  35.729  0.00  0.00    +0.000 C 
ATOM      5  C   UNL     1      36.377   5.289  35.399  0.00  0.00    +0.000 C 
ATOM      6  C   UNL     1      36.274   6.691  34.818  0.00  0.00    +0.000 C 
ATOM      7  C   UNL     1      35.458   7.605  35.712  0.00  0.00    +0.000 C 
ATOM      8  C   UNL     1      36.196   7.716  37.055  0.00  0.00    +0.000 C 
ATOM      9  C   UNL     1      36.300   6.328  37.651  0.00  0.00    +0.000 C 
ATOM     10  C   UNL     1      37.121   5.445  36.733  0.00  0.00    +0.000 C 
ATOM     11  C   UNL     1      34.921   5.810  37.903  0.00  0.00    +0.000 C 
ATOM     12  C   UNL     1      34.179   5.627  36.566  0.00  0.00    +0.000 C 
ATOM     13  C   UNL     1      34.084   7.030  35.978  0.00  0.00    +0.000 C 
ENDBRANCH   3   4
BRANCH   1  18
ATOM     14  N   UNL     1      33.007  -2.677  34.168  0.00  0.00    +0.000 NA
ATOM     15  C   UNL     1      33.254  -1.266  34.187  0.00  0.00    +0.000 A 
ATOM     16  C   UNL     1      33.044  -0.533  35.346  0.00  0.00    +0.000 A 
ATOM     17  C   UNL     1      33.283   0.820  35.366  0.00  0.00    +0.000 A 
ATOM     18  C   UNL     1      33.731   1.520  34.272  0.00  0.00    +0.000 A 
ATOM     19  C   UNL     1      33.942   0.787  33.107  0.00  0.00    +0.000 A 
ATOM     20  C   UNL     1      33.703  -0.580  33.082  0.00  0.00    +0.000 A 
ENDBRANCH   1  18
TORSDOF 2
ENDMDL
