MODEL 1
REMARK VINA RESULT:      -6.9      0.000      0.000
REMARK  Name = 
REMARK  3 active torsions:
REMARK  status: ('A' for Active; 'I' for Inactive)
REMARK    1  A    between atoms: C_2  and  C_13
REMARK    2  A    between atoms: N_3  and  N_4
REMARK    3  A    between atoms: C_5  and  C_7
REMARK                            x       y       z     vdW  Elec       q    Type
REMARK                         _______ _______ _______ _____ _____    ______ ____
ROOT
ATOM      1  C   UNL     1      16.380  12.965  36.731  0.00  0.00    +0.000 C 
ATOM      2  C   UNL     1      15.818  11.626  37.039  0.00  0.00    +0.000 C 
ATOM      3  N   UNL     1      16.609  10.629  37.031  0.00  0.00    +0.000 NA
ENDROOT
BRANCH   2   4
ATOM      4  C   UNL     1      14.393  11.438  37.347  0.00  0.00    +0.000 A 
ATOM      5  C   UNL     1      13.397  12.002  36.583  0.00  0.00    +0.000 A 
ATOM      6  C   UNL     1      12.060  11.823  36.877  0.00  0.00    +0.000 A 
ATOM      7  C   UNL     1      11.661  11.063  37.958  0.00  0.00    +0.000 A 
ATOM      8  F   UNL     1      10.345  10.883  38.251  0.00  0.00    +0.000 F 
ATOM      9  C   UNL     1      12.661  10.499  38.722  0.00  0.00    +0.000 A 
ATOM     10  C   UNL     1      13.997  10.679  38.428  0.00  0.00    +0.000 A 
ENDBRANCH   2   4
BRANCH   3  11
ATOM     11  N   UNL     1      17.981  10.703  36.750  0.00  0.00    +0.000 NA
ATOM     12  C   UNL     1      18.891  10.488  37.818  0.00  0.00    +0.000 C 
ATOM     13  O   UNL     1      18.440  10.242  38.967  0.00  0.00    +0.000 OA
BRANCH  12  14
ATOM     14  C   UNL     1      20.334  10.541  37.646  0.00  0.00    +0.000 A 
ATOM     15  C   UNL     1      21.080   9.779  36.757  0.00  0.00    +0.000 A 
ATOM     16  C   UNL     1      22.399  10.141  36.919  0.00  0.00    +0.000 A 
ATOM     17  C   UNL     1      23.535   9.569  36.161  0.00  0.00    +0.000 C 
ATOM     18  N   UNL     1      22.429  11.076  37.862  0.00  0.00    +0.000 NA
ATOM     19  N   UNL     1      21.212  11.316  38.296  0.00  0.00    +0.000 NA
ENDBRANCH  12  14
ENDBRANCH   3  11
TORSDOF 3
ENDMDL
MODEL 2
REMARK VINA RESULT:      -6.9      3.866      5.171
REMARK  Name = 
REMARK  3 active torsions:
REMARK  status: ('A' for Active; 'I' for Inactive)
REMARK    1  A    between atoms: C_2  and  C_13
REMARK    2  A    between atoms: N_3  and  N_4
REMARK    3  A    between atoms: C_5  and  C_7
REMARK                            x       y       z     vdW  Elec       q    Type
REMARK                         _______ _______ _______ _____ _____    ______ ____
ROOT
ATOM      1  C   UNL     1      13.607  12.521  36.830  0.00  0.00    +0.000 C 
ATOM      2  C   UNL     1      14.661  12.190  35.838  0.00  0.00    +0.000 C 
ATOM      3  N   UNL     1      15.677  11.539  36.239  0.00  0.00    +0.000 NA
ENDROOT
BRANCH   2   4
ATOM      4  C   UNL     1      14.551  12.596  34.429  0.00  0.00    +0.000 A 
ATOM      5  C   UNL     1      13.831  13.702  34.038  0.00  0.00    +0.000 A 
ATOM      6  C   UNL     1      13.730  14.079  32.714  0.00  0.00    +0.000 A 
ATOM      7  C   UNL     1      14.352  13.356  31.715  0.00  0.00    +0.000 A 
ATOM      8  F   UNL     1      14.256  13.723  30.410  0.00  0.00    +0.000 F 
ATOM      9  C   UNL     1      15.073  12.248  32.110  0.00  0.00    +0.000 A 
ATOM     10  C   UNL     1      15.173  11.872  33.434  0.00  0.00    +0.000 A 
ENDBRANCH   2   4
BRANCH   3  11
ATOM     11  N   UNL     1      15.877  11.107  37.558  0.00  0.00    +0.000 NA
ATOM     12  C   UNL     1      17.087  10.429  37.860  0.00  0.00    +0.000 C 
ATOM     13  O   UNL     1      17.929  10.241  36.944  0.00  0.00    +0.000 OA
BRANCH  12  14
ATOM     14  C   UNL     1      17.402   9.935  39.192  0.00  0.00    +0.000 A 
ATOM     15  C   UNL     1      16.485   9.615  40.184  0.00  0.00    +0.000 A 
ATOM     16  C   UNL     1      17.204   9.191  41.280  0.00  0.00    +0.000 A 
ATOM     17  C   UNL     1      16.612   8.752  42.563  0.00  0.00    +0.000 C 
ATOM     18  N   UNL     1      18.489   9.258  40.947  0.00  0.00    +0.000 NA
ATOM     19  N   UNL     1      18.612   9.697  39.716  0.00  0.00    +0.000 NA
ENDBRANCH  12  14
ENDBRANCH   3  11
TORSDOF 3
ENDMDL
MODEL 3
REMARK VINA RESULT:      -6.5      4.121      6.560
REMARK  Name = 
REMARK  3 active torsions:
REMARK  status: ('A' for Active; 'I' for Inactive)
REMARK    1  A    between atoms: C_2  and  C_13
REMARK    2  A    between atoms: N_3  and  N_4
REMARK    3  A    between atoms: C_5  and  C_7
REMARK                            x       y       z     vdW  Elec       q    Type
REMARK                         _______ _______ _______ _____ _____    ______ ____
ROOT
ATOM      1  C   UNL     1      19.292   9.891  36.895  0.00  0.00    +0.000 C 
ATOM      2  C   UNL     1      18.006   9.933  37.636  0.00  0.00    +0.000 C 
ATOM      3  N   UNL     1      16.935  10.092  36.969  0.00  0.00    +0.000 NA
ENDROOT
BRANCH   2   4
ATOM      4  C   UNL     1      17.952   9.795  39.099  0.00  0.00    +0.000 A 
ATOM      5  C   UNL     1      16.764   9.643  39.778  0.00  0.00    +0.000 A 
ATOM      6  C   UNL     1      16.717   9.515  41.151  0.00  0.00    +0.000 A 
ATOM      7  C   UNL     1      17.870   9.534  41.911  0.00  0.00    +0.000 A 
ATOM      8  F   UNL     1      17.830   9.407  43.264  0.00  0.00    +0.000 F 
ATOM      9  C   UNL     1      19.059   9.686  41.228  0.00  0.00    +0.000 A 
ATOM     10  C   UNL     1      19.104   9.815  39.855  0.00  0.00    +0.000 A 
ENDBRANCH   2   4
BRANCH   3  11
ATOM     11  N   UNL     1      16.879  10.232  35.574  0.00  0.00    +0.000 NA
ATOM     12  C   UNL     1      15.975  11.186  35.038  0.00  0.00    +0.000 C 
ATOM     13  O   UNL     1      15.264  11.866  35.822  0.00  0.00    +0.000 OA
BRANCH  12  14
ATOM     14  C   UNL     1      15.831  11.418  33.608  0.00  0.00    +0.000 A 
ATOM     15  C   UNL     1      14.962  12.320  33.009  0.00  0.00    +0.000 A 
ATOM     16  C   UNL     1      15.147  12.219  31.648  0.00  0.00    +0.000 A 
ATOM     17  C   UNL     1      14.416  13.009  30.632  0.00  0.00    +0.000 C 
ATOM     18  N   UNL     1      16.085  11.297  31.454  0.00  0.00    +0.000 NA
ATOM     19  N   UNL     1      16.492  10.820  32.608  0.00  0.00    +0.000 NA
ENDBRANCH  12  14
ENDBRANCH   3  11
TORSDOF 3
ENDMDL
MODEL 4
REMARK VINA RESULT:      -6.5      3.437      4.239
REMARK  Name = 
REMARK  3 active torsions:
REMARK  status: ('A' for Active; 'I' for Inactive)
REMARK    1  A    between atoms: C_2  and  C_13
REMARK    2  A    between atoms: N_3  and  N_4
REMARK    3  A    between atoms: C_5  and  C_7
REMARK                            x       y       z     vdW  Elec       q    Type
REMARK                         _______ _______ _______ _____ _____    ______ ____
ROOT
ATOM      1  C   UNL     1      14.510  12.152  37.159  0.00  0.00    +0.000 C 
ATOM      2  C   UNL     1      15.268  11.947  35.899  0.00  0.00    +0.000 C 
ATOM      3  N   UNL     1      16.340  11.263  35.950  0.00  0.00    +0.000 NA
ENDROOT
BRANCH   2   4
ATOM      4  C   UNL     1      14.811  12.509  34.620  0.00  0.00    +0.000 A 
ATOM      5  C   UNL     1      13.999  13.619  34.556  0.00  0.00    +0.000 A 
ATOM      6  C   UNL     1      13.570  14.143  33.353  0.00  0.00    +0.000 A 
ATOM      7  C   UNL     1      13.941  13.572  32.151  0.00  0.00    +0.000 A 
ATOM      8  F   UNL     1      13.523  14.085  30.963  0.00  0.00    +0.000 F 
ATOM      9  C   UNL     1      14.755  12.461  32.219  0.00  0.00    +0.000 A 
ATOM     10  C   UNL     1      15.182  11.937  33.422  0.00  0.00    +0.000 A 
ENDBRANCH   2   4
BRANCH   3  11
ATOM     11  N   UNL     1      16.861  10.686  37.118  0.00  0.00    +0.000 NA
ATOM     12  C   UNL     1      18.099   9.998  37.023  0.00  0.00    +0.000 C 
ATOM     13  O   UNL     1      18.680   9.931  35.909  0.00  0.00    +0.000 OA
BRANCH  12  14
ATOM     14  C   UNL     1      18.734   9.359  38.166  0.00  0.00    +0.000 A 
ATOM     15  C   UNL     1      20.049   9.536  38.576  0.00  0.00    +0.000 A 
ATOM     16  C   UNL     1      20.236   8.750  39.691  0.00  0.00    +0.000 A 
ATOM     17  C   UNL     1      21.502   8.643  40.450  0.00  0.00    +0.000 C 
ATOM     18  N   UNL     1      19.081   8.137  39.929  0.00  0.00    +0.000 NA
ATOM     19  N   UNL     1      18.191   8.492  39.030  0.00  0.00    +0.000 NA
ENDBRANCH  12  14
ENDBRANCH   3  11
TORSDOF 3
ENDMDL
MODEL 5
REMARK VINA RESULT:      -6.4     18.261     19.777
REMARK  Name = 
REMARK  3 active torsions:
REMARK  status: ('A' for Active; 'I' for Inactive)
REMARK    1  A    between atoms: C_2  and  C_13
REMARK    2  A    between atoms: N_3  and  N_4
REMARK    3  A    between atoms: C_5  and  C_7
REMARK                            x       y       z     vdW  Elec       q    Type
REMARK                         _______ _______ _______ _____ _____    ______ ____
ROOT
ATOM      1  C   UNL     1      32.687   5.129  33.889  0.00  0.00    +0.000 C 
ATOM      2  C   UNL     1      33.812   4.243  34.279  0.00  0.00    +0.000 C 
ATOM      3  N   UNL     1      34.805   4.764  34.880  0.00  0.00    +0.000 NA
ENDROOT
BRANCH   2   4
ATOM      4  C   UNL     1      33.798   2.801  33.988  0.00  0.00    +0.000 A 
ATOM      5  C   UNL     1      33.597   1.857  34.969  0.00  0.00    +0.000 A 
ATOM      6  C   UNL     1      33.585   0.505  34.691  0.00  0.00    +0.000 A 
ATOM      7  C   UNL     1      33.777   0.037  33.406  0.00  0.00    +0.000 A 
ATOM      8  F   UNL     1      33.765  -1.294  33.127  0.00  0.00    +0.000 F 
ATOM      9  C   UNL     1      33.978   0.986  32.425  0.00  0.00    +0.000 A 
ATOM     10  C   UNL     1      33.990   2.337  32.704  0.00  0.00    +0.000 A 
ENDBRANCH   2   4
BRANCH   3  11
ATOM     11  N   UNL     1      34.915   6.125  35.204  0.00  0.00    +0.000 NA
ATOM     12  C   UNL     1      36.136   6.577  35.768  0.00  0.00    +0.000 C 
ATOM     13  O   UNL     1      37.067   5.752  35.956  0.00  0.00    +0.000 OA
BRANCH  12  14
ATOM     14  C   UNL     1      36.364   7.964  36.143  0.00  0.00    +0.000 A 
ATOM     15  C   UNL     1      36.014   9.082  35.397  0.00  0.00    +0.000 A 
ATOM     16  C   UNL     1      36.410  10.189  36.114  0.00  0.00    +0.000 A 
ATOM     17  C   UNL     1      36.225  11.592  35.679  0.00  0.00    +0.000 C 
ATOM     18  N   UNL     1      36.967   9.743  37.236  0.00  0.00    +0.000 NA
ATOM     19  N   UNL     1      36.944   8.430  37.258  0.00  0.00    +0.000 NA
ENDBRANCH  12  14
ENDBRANCH   3  11
TORSDOF 3
ENDMDL
MODEL 6
REMARK VINA RESULT:      -6.4     22.721     24.728
REMARK  Name = 
REMARK  3 active torsions:
REMARK  status: ('A' for Active; 'I' for Inactive)
REMARK    1  A    between atoms: C_2  and  C_13
REMARK    2  A    between atoms: N_3  and  N_4
REMARK    3  A    between atoms: C_5  and  C_7
REMARK                            x       y       z     vdW  Elec       q    Type
REMARK                         _______ _______ _______ _____ _____    ______ ____
ROOT
ATOM      1  C   UNL     1      27.172  23.926  21.788  0.00  0.00    +0.000 C 
ATOM      2  C   UNL     1      28.400  23.885  22.622  0.00  0.00    +0.000 C 
ATOM      3  N   UNL     1      29.476  24.349  22.126  0.00  0.00    +0.000 NA
ENDROOT
BRANCH   2   4
ATOM      4  C   UNL     1      28.393  23.329  23.983  0.00  0.00    +0.000 A 
ATOM      5  C   UNL     1      29.542  22.894  24.603  0.00  0.00    +0.000 A 
ATOM      6  C   UNL     1      29.530  22.372  25.881  0.00  0.00    +0.000 A 
ATOM      7  C   UNL     1      28.356  22.264  26.599  0.00  0.00    +0.000 A 
ATOM      8  F   UNL     1      28.339  21.752  27.859  0.00  0.00    +0.000 F 
ATOM      9  C   UNL     1      27.206  22.701  25.975  0.00  0.00    +0.000 A 
ATOM     10  C   UNL     1      27.219  23.222  24.697  0.00  0.00    +0.000 A 
ENDBRANCH   2   4
BRANCH   3  11
ATOM     11  N   UNL     1      29.588  24.899  20.841  0.00  0.00    +0.000 NA
ATOM     12  C   UNL     1      29.614  26.313  20.723  0.00  0.00    +0.000 C 
ATOM     13  O   UNL     1      29.537  27.016  21.763  0.00  0.00    +0.000 OA
BRANCH  12  14
ATOM     14  C   UNL     1      29.726  26.995  19.442  0.00  0.00    +0.000 A 
ATOM     15  C   UNL     1      28.899  28.010  18.980  0.00  0.00    +0.000 A 
ATOM     16  C   UNL     1      29.354  28.367  17.731  0.00  0.00    +0.000 A 
ATOM     17  C   UNL     1      28.755  29.419  16.879  0.00  0.00    +0.000 C 
ATOM     18  N   UNL     1      30.405  27.597  17.468  0.00  0.00    +0.000 NA
ATOM     19  N   UNL     1      30.628  26.783  18.475  0.00  0.00    +0.000 NA
ENDBRANCH  12  14
ENDBRANCH   3  11
TORSDOF 3
ENDMDL
MODEL 7
REMARK VINA RESULT:      -6.1     20.333     22.146
REMARK  Name = 
REMARK  3 active torsions:
REMARK  status: ('A' for Active; 'I' for Inactive)
REMARK    1  A    between atoms: C_2  and  C_13
REMARK    2  A    between atoms: N_3  and  N_4
REMARK    3  A    between atoms: C_5  and  C_7
REMARK                            x       y       z     vdW  Elec       q    Type
REMARK                         _______ _______ _______ _____ _____    ______ ____
ROOT
ATOM      1  C   UNL     1      25.800  24.977  25.292  0.00  0.00    +0.000 C 
ATOM      2  C   UNL     1      26.908  24.093  25.732  0.00  0.00    +0.000 C 
ATOM      3  N   UNL     1      27.858  23.873  24.916  0.00  0.00    +0.000 NA
ENDROOT
BRANCH   2   4
ATOM      4  C   UNL     1      26.925  23.481  27.069  0.00  0.00    +0.000 A 
ATOM      5  C   UNL     1      26.024  23.834  28.048  0.00  0.00    +0.000 A 
ATOM      6  C   UNL     1      26.044  23.257  29.302  0.00  0.00    +0.000 A 
ATOM      7  C   UNL     1      26.976  22.294  29.632  0.00  0.00    +0.000 A 
ATOM      8  F   UNL     1      26.999  21.722  30.866  0.00  0.00    +0.000 F 
ATOM      9  C   UNL     1      27.878  21.942  28.649  0.00  0.00    +0.000 A 
ATOM     10  C   UNL     1      27.857  22.520  27.395  0.00  0.00    +0.000 A 
ENDBRANCH   2   4
BRANCH   3  11
ATOM     11  N   UNL     1      27.936  24.407  23.621  0.00  0.00    +0.000 NA
ATOM     12  C   UNL     1      29.204  24.847  23.159  0.00  0.00    +0.000 C 
ATOM     13  O   UNL     1      30.203  24.743  23.917  0.00  0.00    +0.000 OA
BRANCH  12  14
ATOM     14  C   UNL     1      29.405  25.418  21.836  0.00  0.00    +0.000 A 
ATOM     15  C   UNL     1      29.364  26.768  21.512  0.00  0.00    +0.000 A 
ATOM     16  C   UNL     1      29.604  26.869  20.160  0.00  0.00    +0.000 A 
ATOM     17  C   UNL     1      29.650  28.138  19.399  0.00  0.00    +0.000 C 
ATOM     18  N   UNL     1      29.779  25.632  19.706  0.00  0.00    +0.000 NA
ATOM     19  N   UNL     1      29.662  24.771  20.691  0.00  0.00    +0.000 NA
ENDBRANCH  12  14
ENDBRANCH   3  11
TORSDOF 3
ENDMDL
MODEL 8
REMARK VINA RESULT:      -6.1     24.937     27.118
REMARK  Name = 
REMARK  3 active torsions:
REMARK  status: ('A' for Active; 'I' for Inactive)
REMARK    1  A    between atoms: C_2  and  C_13
REMARK    2  A    between atoms: N_3  and  N_4
REMARK    3  A    between atoms: C_5  and  C_7
REMARK                            x       y       z     vdW  Elec       q    Type
REMARK                         _______ _______ _______ _____ _____    ______ ____
ROOT
ATOM      1  C   UNL     1      28.536  29.033  20.704  0.00  0.00    +0.000 C 
ATOM      2  C   UNL     1      29.539  28.138  20.075  0.00  0.00    +0.000 C 
ATOM      3  N   UNL     1      29.419  26.885  20.255  0.00  0.00    +0.000 NA
ENDROOT
BRANCH   2   4
ATOM      4  C   UNL     1      30.646  28.666  19.264  0.00  0.00    +0.000 A 
ATOM      5  C   UNL     1      31.321  27.889  18.350  0.00  0.00    +0.000 A 
ATOM      6  C   UNL     1      32.360  28.389  17.591  0.00  0.00    +0.000 A 
ATOM      7  C   UNL     1      32.771  29.701  17.716  0.00  0.00    +0.000 A 
ATOM      8  F   UNL     1      33.793  30.198  16.970  0.00  0.00    +0.000 F 
ATOM      9  C   UNL     1      32.092  30.477  18.633  0.00  0.00    +0.000 A 
ATOM     10  C   UNL     1      31.054  29.976  19.391  0.00  0.00    +0.000 A 
ENDBRANCH   2   4
BRANCH   3  11
ATOM     11  N   UNL     1      28.402  26.282  21.010  0.00  0.00    +0.000 NA
ATOM     12  C   UNL     1      28.565  24.921  21.379  0.00  0.00    +0.000 C 
ATOM     13  O   UNL     1      29.604  24.309  21.020  0.00  0.00    +0.000 OA
BRANCH  12  14
ATOM     14  C   UNL     1      27.576  24.193  22.159  0.00  0.00    +0.000 A 
ATOM     15  C   UNL     1      27.563  24.056  23.541  0.00  0.00    +0.000 A 
ATOM     16  C   UNL     1      26.463  23.294  23.863  0.00  0.00    +0.000 A 
ATOM     17  C   UNL     1      26.072  22.908  25.237  0.00  0.00    +0.000 C 
ATOM     18  N   UNL     1      25.852  22.995  22.721  0.00  0.00    +0.000 NA
ATOM     19  N   UNL     1      26.506  23.522  21.711  0.00  0.00    +0.000 NA
ENDBRANCH  12  14
ENDBRANCH   3  11
TORSDOF 3
ENDMDL
MODEL 9
REMARK VINA RESULT:      -6.0      4.296      5.740
REMARK  Name = 
REMARK  3 active torsions:
REMARK  status: ('A' for Active; 'I' for Inactive)
REMARK    1  A    between atoms: C_2  and  C_13
REMARK    2  A    between atoms: N_3  and  N_4
REMARK    3  A    between atoms: C_5  and  C_7
REMARK                            x       y       z     vdW  Elec       q    Type
REMARK                         _______ _______ _______ _____ _____    ______ ____
ROOT
ATOM      1  C   UNL     1      18.831   9.726  36.112  0.00  0.00    +0.000 C 
ATOM      2  C   UNL     1      17.441  10.248  36.089  0.00  0.00    +0.000 C 
ATOM      3  N   UNL     1      16.805  10.305  37.189  0.00  0.00    +0.000 NA
ENDROOT
BRANCH   2   4
ATOM      4  C   UNL     1      16.802  10.691  34.841  0.00  0.00    +0.000 A 
ATOM      5  C   UNL     1      15.718  11.540  34.834  0.00  0.00    +0.000 A 
ATOM      6  C   UNL     1      15.121  11.952  33.660  0.00  0.00    +0.000 A 
ATOM      7  C   UNL     1      15.588  11.528  32.432  0.00  0.00    +0.000 A 
ATOM      8  F   UNL     1      15.003  11.933  31.272  0.00  0.00    +0.000 F 
ATOM      9  C   UNL     1      16.674  10.678  32.442  0.00  0.00    +0.000 A 
ATOM     10  C   UNL     1      17.270  10.266  33.616  0.00  0.00    +0.000 A 
ENDBRANCH   2   4
BRANCH   3  11
ATOM     11  N   UNL     1      17.324   9.908  38.430  0.00  0.00    +0.000 NA
ATOM     12  C   UNL     1      16.460   9.950  39.556  0.00  0.00    +0.000 C 
ATOM     13  O   UNL     1      15.272  10.337  39.403  0.00  0.00    +0.000 OA
BRANCH  12  14
ATOM     14  C   UNL     1      16.887   9.563  40.891  0.00  0.00    +0.000 A 
ATOM     15  C   UNL     1      16.056   9.210  41.947  0.00  0.00    +0.000 A 
ATOM     16  C   UNL     1      16.866   8.919  43.021  0.00  0.00    +0.000 A 
ATOM     17  C   UNL     1      16.385   8.495  44.355  0.00  0.00    +0.000 C 
ATOM     18  N   UNL     1      18.121   9.093  42.617  0.00  0.00    +0.000 NA
ATOM     19  N   UNL     1      18.139   9.474  41.361  0.00  0.00    +0.000 NA
ENDBRANCH  12  14
ENDBRANCH   3  11
TORSDOF 3
ENDMDL
MODEL 10
REMARK VINA RESULT:      -5.9     20.366     23.331
REMARK  Name = 
REMARK  3 active torsions:
REMARK  status: ('A' for Active; 'I' for Inactive)
REMARK    1  A    between atoms: C_2  and  C_13
REMARK    2  A    between atoms: N_3  and  N_4
REMARK    3  A    between atoms: C_5  and  C_7
REMARK                            x       y       z     vdW  Elec       q    Type
REMARK                         _______ _______ _______ _____ _____    ______ ____
ROOT
ATOM      1  C   UNL     1      34.334  -5.568  34.103  0.00  0.00    +0.000 C 
ATOM      2  C   UNL     1      33.948  -4.859  32.858  0.00  0.00    +0.000 C 
ATOM      3  N   UNL     1      33.485  -3.678  32.960  0.00  0.00    +0.000 NA
ENDROOT
BRANCH   2   4
ATOM      4  C   UNL     1      34.088  -5.486  31.535  0.00  0.00    +0.000 A 
ATOM      5  C   UNL     1      33.401  -5.033  30.432  0.00  0.00    +0.000 A 
ATOM      6  C   UNL     1      33.535  -5.625  29.193  0.00  0.00    +0.000 A 
ATOM      7  C   UNL     1      34.373  -6.706  29.003  0.00  0.00    +0.000 A 
ATOM      8  F   UNL     1      34.510  -7.292  27.784  0.00  0.00    +0.000 F 
ATOM      9  C   UNL     1      35.061  -7.158  30.110  0.00  0.00    +0.000 A 
ATOM     10  C   UNL     1      34.925  -6.565  31.349  0.00  0.00    +0.000 A 
ENDBRANCH   2   4
BRANCH   3  11
ATOM     11  N   UNL     1      33.312  -2.993  34.172  0.00  0.00    +0.000 NA
ATOM     12  C   UNL     1      33.588  -1.601  34.193  0.00  0.00    +0.000 C 
ATOM     13  O   UNL     1      33.974  -1.036  33.137  0.00  0.00    +0.000 OA
BRANCH  12  14
ATOM     14  C   UNL     1      33.445  -0.788  35.392  0.00  0.00    +0.000 A 
ATOM     15  C   UNL     1      34.135   0.384  35.673  0.00  0.00    +0.000 A 
ATOM     16  C   UNL     1      33.700   0.825  36.903  0.00  0.00    +0.000 A 
ATOM     17  C   UNL     1      34.181   2.049  37.582  0.00  0.00    +0.000 C 
ATOM     18  N   UNL     1      32.793  -0.048  37.328  0.00  0.00    +0.000 NA
ATOM     19  N   UNL     1      32.639  -1.004  36.440  0.00  0.00    +0.000 NA
ENDBRANCH  12  14
ENDBRANCH   3  11
TORSDOF 3
ENDMDL
