MODEL 1
REMARK VINA RESULT:      -6.4      0.000      0.000
REMARK  Name = 
REMARK  3 active torsions:
REMARK  status: ('A' for Active; 'I' for Inactive)
REMARK    1  A    between atoms: C_2  and  C_5
REMARK    2  A    between atoms: N_7  and  C_8
REMARK    3  A    between atoms: C_11  and  N_12
REMARK                            x       y       z     vdW  Elec       q    Type
REMARK                         _______ _______ _______ _____ _____    ______ ____
ROOT
ATOM      1  C   UNL     1      31.240  22.479  29.412  0.00  0.00    +0.000 A 
ATOM      2  N   UNL     1      31.279  22.619  28.077  0.00  0.00    +0.000 NA
ATOM      3  N   UNL     1      30.041  22.839  27.618  0.00  0.00    +0.000 N 
ATOM      4  C   UNL     1      29.183  22.846  28.659  0.00  0.00    +0.000 A 
ATOM      5  C   UNL     1      29.922  22.621  29.789  0.00  0.00    +0.000 A 
ATOM      6  C   UNL     1      28.980  22.625  30.942  0.00  0.00    +0.000 C 
ATOM      7  C   UNL     1      27.662  22.299  30.283  0.00  0.00    +0.000 C 
ATOM      8  N   UNL     1      27.795  23.000  29.002  0.00  0.00    +0.000 NA
ENDROOT
BRANCH   3   9
ATOM      9  C   UNL     1      29.685  23.037  26.256  0.00  0.00    +0.000 A 
ATOM     10  C   UNL     1      28.385  22.927  25.808  0.00  0.00    +0.000 A 
ATOM     11  C   UNL     1      28.057  23.124  24.474  0.00  0.00    +0.000 A 
ATOM     12  C   UNL     1      29.019  23.439  23.539  0.00  0.00    +0.000 A 
ATOM     13  C   UNL     1      30.320  23.551  23.980  0.00  0.00    +0.000 A 
ATOM     14  C   UNL     1      30.641  23.353  25.317  0.00  0.00    +0.000 A 
BRANCH  12  15
ATOM     15  N   UNL     1      28.665  23.640  22.170  0.00  0.00    +0.000 N 
ATOM     16  O   UNL     1      29.468  24.045  21.327  0.00  0.00    +0.000 OA
ATOM     17  O   UNL     1      27.388  23.371  21.794  0.00  0.00    +0.000 OA
ENDBRANCH  12  15
ENDBRANCH   3   9
BRANCH   1  19
ATOM     18  C   UNL     1      32.174  21.057  31.214  0.00  0.00    +0.000 C 
ATOM     19  C   UNL     1      32.415  22.219  30.309  0.00  0.00    +0.000 C 
ATOM     20  C   UNL     1      32.750  23.489  31.071  0.00  0.00    +0.000 C 
ATOM     21  C   UNL     1      33.615  21.903  29.441  0.00  0.00    +0.000 C 
ENDBRANCH   1  19
TORSDOF 3
ENDMDL
MODEL 2
REMARK VINA RESULT:      -6.3     22.228     24.373
REMARK  Name = 
REMARK  3 active torsions:
REMARK  status: ('A' for Active; 'I' for Inactive)
REMARK    1  A    between atoms: C_2  and  C_5
REMARK    2  A    between atoms: N_7  and  C_8
REMARK    3  A    between atoms: C_11  and  N_12
REMARK                            x       y       z     vdW  Elec       q    Type
REMARK                         _______ _______ _______ _____ _____    ______ ____
ROOT
ATOM      1  C   UNL     1      34.115   2.861  36.599  0.00  0.00    +0.000 A 
ATOM      2  N   UNL     1      33.900   1.535  36.619  0.00  0.00    +0.000 NA
ATOM      3  N   UNL     1      33.646   1.110  35.376  0.00  0.00    +0.000 N 
ATOM      4  C   UNL     1      33.694   2.162  34.533  0.00  0.00    +0.000 A 
ATOM      5  C   UNL     1      33.986   3.266  35.289  0.00  0.00    +0.000 A 
ATOM      6  C   UNL     1      34.040   4.432  34.366  0.00  0.00    +0.000 C 
ATOM      7  C   UNL     1      33.205   3.961  33.201  0.00  0.00    +0.000 C 
ATOM      8  N   UNL     1      33.550   2.536  33.153  0.00  0.00    +0.000 NA
ENDROOT
BRANCH   3   9
ATOM      9  C   UNL     1      33.371  -0.234  34.999  0.00  0.00    +0.000 A 
ATOM     10  C   UNL     1      33.979  -0.838  33.918  0.00  0.00    +0.000 A 
ATOM     11  C   UNL     1      33.698  -2.150  33.566  0.00  0.00    +0.000 A 
ATOM     12  C   UNL     1      32.797  -2.907  34.285  0.00  0.00    +0.000 A 
ATOM     13  C   UNL     1      32.187  -2.310  35.365  0.00  0.00    +0.000 A 
ATOM     14  C   UNL     1      32.473  -0.995  35.712  0.00  0.00    +0.000 A 
BRANCH  12  15
ATOM     15  N   UNL     1      32.519  -4.257  33.910  0.00  0.00    +0.000 N 
ATOM     16  O   UNL     1      33.048  -4.801  32.939  0.00  0.00    +0.000 OA
ATOM     17  O   UNL     1      31.632  -4.959  34.661  0.00  0.00    +0.000 OA
ENDBRANCH  12  15
ENDBRANCH   3   9
BRANCH   1  19
ATOM     18  C   UNL     1      34.445   2.935  39.055  0.00  0.00    +0.000 C 
ATOM     19  C   UNL     1      34.432   3.723  37.787  0.00  0.00    +0.000 C 
ATOM     20  C   UNL     1      33.454   4.883  37.834  0.00  0.00    +0.000 C 
ATOM     21  C   UNL     1      35.809   4.322  37.586  0.00  0.00    +0.000 C 
ENDBRANCH   1  19
TORSDOF 3
ENDMDL
MODEL 3
REMARK VINA RESULT:      -6.3     18.882     19.943
REMARK  Name = 
REMARK  3 active torsions:
REMARK  status: ('A' for Active; 'I' for Inactive)
REMARK    1  A    between atoms: C_2  and  C_5
REMARK    2  A    between atoms: N_7  and  C_8
REMARK    3  A    between atoms: C_11  and  N_12
REMARK                            x       y       z     vdW  Elec       q    Type
REMARK                         _______ _______ _______ _____ _____    ______ ____
ROOT
ATOM      1  C   UNL     1      20.108   9.642  39.048  0.00  0.00    +0.000 A 
ATOM      2  N   UNL     1      19.857   9.917  37.757  0.00  0.00    +0.000 NA
ATOM      3  N   UNL     1      18.541  10.086  37.589  0.00  0.00    +0.000 N 
ATOM      4  C   UNL     1      17.922   9.922  38.776  0.00  0.00    +0.000 A 
ATOM      5  C   UNL     1      18.894   9.642  39.699  0.00  0.00    +0.000 A 
ATOM      6  C   UNL     1      18.219   9.459  41.012  0.00  0.00    +0.000 C 
ATOM      7  C   UNL     1      16.811   9.099  40.603  0.00  0.00    +0.000 C 
ATOM      8  N   UNL     1      16.632   9.933  39.411  0.00  0.00    +0.000 NA
ENDROOT
BRANCH   3   9
ATOM      9  C   UNL     1      17.894  10.391  36.359  0.00  0.00    +0.000 A 
ATOM     10  C   UNL     1      16.984  11.421  36.238  0.00  0.00    +0.000 A 
ATOM     11  C   UNL     1      16.364  11.703  35.030  0.00  0.00    +0.000 A 
ATOM     12  C   UNL     1      16.633  10.965  33.897  0.00  0.00    +0.000 A 
ATOM     13  C   UNL     1      17.541   9.936  34.011  0.00  0.00    +0.000 A 
ATOM     14  C   UNL     1      18.158   9.658  35.225  0.00  0.00    +0.000 A 
BRANCH  12  15
ATOM     15  N   UNL     1      15.986  11.269  32.660  0.00  0.00    +0.000 N 
ATOM     16  O   UNL     1      16.269  10.701  31.604  0.00  0.00    +0.000 OA
ATOM     17  O   UNL     1      15.023  12.226  32.660  0.00  0.00    +0.000 OA
ENDBRANCH  12  15
ENDBRANCH   3   9
BRANCH   1  19
ATOM     18  C   UNL     1      21.535   8.035  40.283  0.00  0.00    +0.000 C 
ATOM     19  C   UNL     1      21.459   9.385  39.650  0.00  0.00    +0.000 C 
ATOM     20  C   UNL     1      21.790  10.501  40.623  0.00  0.00    +0.000 C 
ATOM     21  C   UNL     1      22.494   9.449  38.546  0.00  0.00    +0.000 C 
ENDBRANCH   1  19
TORSDOF 3
ENDMDL
MODEL 4
REMARK VINA RESULT:      -6.0     19.402     21.790
REMARK  Name = 
REMARK  3 active torsions:
REMARK  status: ('A' for Active; 'I' for Inactive)
REMARK    1  A    between atoms: C_2  and  C_5
REMARK    2  A    between atoms: N_7  and  C_8
REMARK    3  A    between atoms: C_11  and  N_12
REMARK                            x       y       z     vdW  Elec       q    Type
REMARK                         _______ _______ _______ _____ _____    ______ ____
ROOT
ATOM      1  C   UNL     1      33.926   1.427  36.116  0.00  0.00    +0.000 A 
ATOM      2  N   UNL     1      34.285   2.637  36.574  0.00  0.00    +0.000 NA
ATOM      3  N   UNL     1      34.300   3.508  35.558  0.00  0.00    +0.000 N 
ATOM      4  C   UNL     1      33.949   2.866  34.425  0.00  0.00    +0.000 A 
ATOM      5  C   UNL     1      33.713   1.561  34.762  0.00  0.00    +0.000 A 
ATOM      6  C   UNL     1      33.325   0.845  33.515  0.00  0.00    +0.000 C 
ATOM      7  C   UNL     1      33.926   1.720  32.441  0.00  0.00    +0.000 C 
ATOM      8  N   UNL     1      33.738   3.056  33.016  0.00  0.00    +0.000 NA
ENDROOT
BRANCH   3   9
ATOM      9  C   UNL     1      34.631   4.888  35.654  0.00  0.00    +0.000 A 
ATOM     10  C   UNL     1      33.687   5.858  35.919  0.00  0.00    +0.000 A 
ATOM     11  C   UNL     1      34.029   7.200  36.009  0.00  0.00    +0.000 A 
ATOM     12  C   UNL     1      35.331   7.620  35.836  0.00  0.00    +0.000 A 
ATOM     13  C   UNL     1      36.279   6.656  35.571  0.00  0.00    +0.000 A 
ATOM     14  C   UNL     1      35.929   5.314  35.482  0.00  0.00    +0.000 A 
BRANCH  12  15
ATOM     15  N   UNL     1      35.667   9.004  35.932  0.00  0.00    +0.000 N 
ATOM     16  O   UNL     1      36.812   9.397  36.162  0.00  0.00    +0.000 OA
ATOM     17  O   UNL     1      34.675   9.917  35.762  0.00  0.00    +0.000 OA
ENDBRANCH  12  15
ENDBRANCH   3   9
BRANCH   1  19
ATOM     18  C   UNL     1      32.727  -0.724  36.398  0.00  0.00    +0.000 C 
ATOM     19  C   UNL     1      33.790   0.176  36.935  0.00  0.00    +0.000 C 
ATOM     20  C   UNL     1      33.551   0.555  38.385  0.00  0.00    +0.000 C 
ATOM     21  C   UNL     1      35.109  -0.568  36.892  0.00  0.00    +0.000 C 
ENDBRANCH   1  19
TORSDOF 3
ENDMDL
MODEL 5
REMARK VINA RESULT:      -6.0     26.699     28.417
REMARK  Name = 
REMARK  3 active torsions:
REMARK  status: ('A' for Active; 'I' for Inactive)
REMARK    1  A    between atoms: C_2  and  C_5
REMARK    2  A    between atoms: N_7  and  C_8
REMARK    3  A    between atoms: C_11  and  N_12
REMARK                            x       y       z     vdW  Elec       q    Type
REMARK                         _______ _______ _______ _____ _____    ______ ____
ROOT
ATOM      1  C   UNL     1      33.487  -2.329  33.927  0.00  0.00    +0.000 A 
ATOM      2  N   UNL     1      33.743  -2.919  32.748  0.00  0.00    +0.000 NA
ATOM      3  N   UNL     1      33.466  -4.225  32.838  0.00  0.00    +0.000 N 
ATOM      4  C   UNL     1      33.024  -4.496  34.083  0.00  0.00    +0.000 A 
ATOM      5  C   UNL     1      33.033  -3.315  34.776  0.00  0.00    +0.000 A 
ATOM      6  C   UNL     1      32.548  -3.606  36.153  0.00  0.00    +0.000 C 
ATOM      7  C   UNL     1      32.832  -5.082  36.290  0.00  0.00    +0.000 C 
ATOM      8  N   UNL     1      32.557  -5.558  34.931  0.00  0.00    +0.000 NA
ENDROOT
BRANCH   3   9
ATOM      9  C   UNL     1      33.610  -5.177  31.791  0.00  0.00    +0.000 A 
ATOM     10  C   UNL     1      32.571  -5.512  30.947  0.00  0.00    +0.000 A 
ATOM     11  C   UNL     1      32.732  -6.443  29.932  0.00  0.00    +0.000 A 
ATOM     12  C   UNL     1      33.940  -7.073  29.722  0.00  0.00    +0.000 A 
ATOM     13  C   UNL     1      34.982  -6.743  30.561  0.00  0.00    +0.000 A 
ATOM     14  C   UNL     1      34.814  -5.810  31.577  0.00  0.00    +0.000 A 
BRANCH  12  15
ATOM     15  N   UNL     1      34.090  -8.029  28.672  0.00  0.00    +0.000 N 
ATOM     16  O   UNL     1      33.192  -8.278  27.865  0.00  0.00    +0.000 OA
ATOM     17  O   UNL     1      35.274  -8.686  28.568  0.00  0.00    +0.000 OA
ENDBRANCH  12  15
ENDBRANCH   3   9
BRANCH   1  19
ATOM     18  C   UNL     1      34.125  -0.099  33.054  0.00  0.00    +0.000 C 
ATOM     19  C   UNL     1      33.665  -0.873  34.245  0.00  0.00    +0.000 C 
ATOM     20  C   UNL     1      34.607  -0.733  35.426  0.00  0.00    +0.000 C 
ATOM     21  C   UNL     1      32.328  -0.314  34.686  0.00  0.00    +0.000 C 
ENDBRANCH   1  19
TORSDOF 3
ENDMDL
MODEL 6
REMARK VINA RESULT:      -6.0     22.032     24.234
REMARK  Name = 
REMARK  3 active torsions:
REMARK  status: ('A' for Active; 'I' for Inactive)
REMARK    1  A    between atoms: C_2  and  C_5
REMARK    2  A    between atoms: N_7  and  C_8
REMARK    3  A    between atoms: C_11  and  N_12
REMARK                            x       y       z     vdW  Elec       q    Type
REMARK                         _______ _______ _______ _____ _____    ______ ____
ROOT
ATOM      1  C   UNL     1      33.984   3.565  35.721  0.00  0.00    +0.000 A 
ATOM      2  N   UNL     1      33.618   2.518  34.963  0.00  0.00    +0.000 NA
ATOM      3  N   UNL     1      33.800   1.387  35.654  0.00  0.00    +0.000 N 
ATOM      4  C   UNL     1      34.288   1.691  36.874  0.00  0.00    +0.000 A 
ATOM      5  C   UNL     1      34.409   3.054  36.928  0.00  0.00    +0.000 A 
ATOM      6  C   UNL     1      34.949   3.397  38.272  0.00  0.00    +0.000 C 
ATOM      7  C   UNL     1      35.627   2.113  38.685  0.00  0.00    +0.000 C 
ATOM      8  N   UNL     1      34.722   1.110  38.115  0.00  0.00    +0.000 NA
ENDROOT
BRANCH   3   9
ATOM      9  C   UNL     1      33.522   0.074  35.182  0.00  0.00    +0.000 A 
ATOM     10  C   UNL     1      32.648  -0.775  35.829  0.00  0.00    +0.000 A 
ATOM     11  C   UNL     1      32.390  -2.052  35.353  0.00  0.00    +0.000 A 
ATOM     12  C   UNL     1      32.999  -2.527  34.211  0.00  0.00    +0.000 A 
ATOM     13  C   UNL     1      33.873  -1.685  33.561  0.00  0.00    +0.000 A 
ATOM     14  C   UNL     1      34.127  -0.407  34.043  0.00  0.00    +0.000 A 
BRANCH  12  15
ATOM     15  N   UNL     1      32.722  -3.845  33.734  0.00  0.00    +0.000 N 
ATOM     16  O   UNL     1      31.954  -4.615  34.313  0.00  0.00    +0.000 OA
ATOM     17  O   UNL     1      33.339  -4.255  32.596  0.00  0.00    +0.000 OA
ENDBRANCH  12  15
ENDBRANCH   3   9
BRANCH   1  19
ATOM     18  C   UNL     1      32.956   5.243  34.215  0.00  0.00    +0.000 C 
ATOM     19  C   UNL     1      33.935   5.010  35.317  0.00  0.00    +0.000 C 
ATOM     20  C   UNL     1      35.335   5.473  34.957  0.00  0.00    +0.000 C 
ATOM     21  C   UNL     1      33.501   5.826  36.517  0.00  0.00    +0.000 C 
ENDBRANCH   1  19
TORSDOF 3
ENDMDL
MODEL 7
REMARK VINA RESULT:      -5.9     31.830     32.652
REMARK  Name = 
REMARK  3 active torsions:
REMARK  status: ('A' for Active; 'I' for Inactive)
REMARK    1  A    between atoms: C_2  and  C_5
REMARK    2  A    between atoms: N_7  and  C_8
REMARK    3  A    between atoms: C_11  and  N_12
REMARK                            x       y       z     vdW  Elec       q    Type
REMARK                         _______ _______ _______ _____ _____    ______ ____
ROOT
ATOM      1  C   UNL     1      24.470 -10.144  24.779  0.00  0.00    +0.000 A 
ATOM      2  N   UNL     1      23.285  -9.865  25.346  0.00  0.00    +0.000 NA
ATOM      3  N   UNL     1      22.894  -8.641  24.975  0.00  0.00    +0.000 N 
ATOM      4  C   UNL     1      23.828  -8.111  24.158  0.00  0.00    +0.000 A 
ATOM      5  C   UNL     1      24.821  -9.043  24.028  0.00  0.00    +0.000 A 
ATOM      6  C   UNL     1      25.856  -8.465  23.128  0.00  0.00    +0.000 C 
ATOM      7  C   UNL     1      25.610  -6.982  23.265  0.00  0.00    +0.000 C 
ATOM      8  N   UNL     1      24.150  -6.940  23.390  0.00  0.00    +0.000 NA
ENDROOT
BRANCH   3   9
ATOM      9  C   UNL     1      21.689  -7.998  25.374  0.00  0.00    +0.000 A 
ATOM     10  C   UNL     1      21.481  -6.646  25.203  0.00  0.00    +0.000 A 
ATOM     11  C   UNL     1      20.298  -6.037  25.598  0.00  0.00    +0.000 A 
ATOM     12  C   UNL     1      19.280  -6.762  26.179  0.00  0.00    +0.000 A 
ATOM     13  C   UNL     1      19.481  -8.113  26.352  0.00  0.00    +0.000 A 
ATOM     14  C   UNL     1      20.668  -8.716  25.954  0.00  0.00    +0.000 A 
BRANCH  12  15
ATOM     15  N   UNL     1      18.068  -6.121  26.580  0.00  0.00    +0.000 N 
ATOM     16  O   UNL     1      17.031  -6.744  26.815  0.00  0.00    +0.000 OA
ATOM     17  O   UNL     1      18.070  -4.768  26.702  0.00  0.00    +0.000 OA
ENDBRANCH  12  15
ENDBRANCH   3   9
BRANCH   1  19
ATOM     18  C   UNL     1      25.517 -12.074  23.629  0.00  0.00    +0.000 C 
ATOM     19  C   UNL     1      25.251 -11.415  24.942  0.00  0.00    +0.000 C 
ATOM     20  C   UNL     1      24.520 -12.327  25.910  0.00  0.00    +0.000 C 
ATOM     21  C   UNL     1      26.582 -11.078  25.582  0.00  0.00    +0.000 C 
ENDBRANCH   1  19
TORSDOF 3
ENDMDL
MODEL 8
REMARK VINA RESULT:      -5.9      1.612      3.629
REMARK  Name = 
REMARK  3 active torsions:
REMARK  status: ('A' for Active; 'I' for Inactive)
REMARK    1  A    between atoms: C_2  and  C_5
REMARK    2  A    between atoms: N_7  and  C_8
REMARK    3  A    between atoms: C_11  and  N_12
REMARK                            x       y       z     vdW  Elec       q    Type
REMARK                         _______ _______ _______ _____ _____    ______ ____
ROOT
ATOM      1  C   UNL     1      27.920  23.546  28.940  0.00  0.00    +0.000 A 
ATOM      2  N   UNL     1      27.642  23.990  27.703  0.00  0.00    +0.000 NA
ATOM      3  N   UNL     1      28.703  23.792  26.913  0.00  0.00    +0.000 N 
ATOM      4  C   UNL     1      29.686  23.214  27.635  0.00  0.00    +0.000 A 
ATOM      5  C   UNL     1      29.207  23.056  28.908  0.00  0.00    +0.000 A 
ATOM      6  C   UNL     1      30.286  22.420  29.711  0.00  0.00    +0.000 C 
ATOM      7  C   UNL     1      31.526  22.782  28.930  0.00  0.00    +0.000 C 
ATOM      8  N   UNL     1      31.031  22.715  27.552  0.00  0.00    +0.000 NA
ENDROOT
BRANCH   3   9
ATOM      9  C   UNL     1      28.786  24.132  25.535  0.00  0.00    +0.000 A 
ATOM     10  C   UNL     1      28.796  25.439  25.095  0.00  0.00    +0.000 A 
ATOM     11  C   UNL     1      28.877  25.751  23.746  0.00  0.00    +0.000 A 
ATOM     12  C   UNL     1      28.953  24.765  22.786  0.00  0.00    +0.000 A 
ATOM     13  C   UNL     1      28.945  23.457  23.218  0.00  0.00    +0.000 A 
ATOM     14  C   UNL     1      28.863  23.152  24.572  0.00  0.00    +0.000 A 
BRANCH  12  15
ATOM     15  N   UNL     1      29.038  25.103  21.401  0.00  0.00    +0.000 N 
ATOM     16  O   UNL     1      29.775  24.506  20.614  0.00  0.00    +0.000 OA
ATOM     17  O   UNL     1      28.270  26.125  20.944  0.00  0.00    +0.000 OA
ENDBRANCH  12  15
ENDBRANCH   3   9
BRANCH   1  19
ATOM     18  C   UNL     1      27.607  24.301  31.280  0.00  0.00    +0.000 C 
ATOM     19  C   UNL     1      26.995  23.585  30.122  0.00  0.00    +0.000 C 
ATOM     20  C   UNL     1      26.573  22.170  30.471  0.00  0.00    +0.000 C 
ATOM     21  C   UNL     1      25.737  24.327  29.718  0.00  0.00    +0.000 C 
ENDBRANCH   1  19
TORSDOF 3
ENDMDL
MODEL 9
REMARK VINA RESULT:      -5.8     31.554     32.442
REMARK  Name = 
REMARK  3 active torsions:
REMARK  status: ('A' for Active; 'I' for Inactive)
REMARK    1  A    between atoms: C_2  and  C_5
REMARK    2  A    between atoms: N_7  and  C_8
REMARK    3  A    between atoms: C_11  and  N_12
REMARK                            x       y       z     vdW  Elec       q    Type
REMARK                         _______ _______ _______ _____ _____    ______ ____
ROOT
ATOM      1  C   UNL     1      18.228  -8.327  25.641  0.00  0.00    +0.000 A 
ATOM      2  N   UNL     1      19.406  -8.677  25.099  0.00  0.00    +0.000 NA
ATOM      3  N   UNL     1      20.289  -7.689  25.283  0.00  0.00    +0.000 N 
ATOM      4  C   UNL     1      19.688  -6.682  25.950  0.00  0.00    +0.000 A 
ATOM      5  C   UNL     1      18.395  -7.070  26.180  0.00  0.00    +0.000 A 
ATOM      6  C   UNL     1      17.725  -5.963  26.915  0.00  0.00    +0.000 C 
ATOM      7  C   UNL     1      18.574  -4.771  26.548  0.00  0.00    +0.000 C 
ATOM      8  N   UNL     1      19.911  -5.371  26.496  0.00  0.00    +0.000 NA
ENDROOT
BRANCH   3   9
ATOM      9  C   UNL     1      21.643  -7.695  24.849  0.00  0.00    +0.000 A 
ATOM     10  C   UNL     1      22.276  -6.561  24.385  0.00  0.00    +0.000 A 
ATOM     11  C   UNL     1      23.598  -6.587  23.965  0.00  0.00    +0.000 A 
ATOM     12  C   UNL     1      24.336  -7.751  23.995  0.00  0.00    +0.000 A 
ATOM     13  C   UNL     1      23.710  -8.887  24.458  0.00  0.00    +0.000 A 
ATOM     14  C   UNL     1      22.385  -8.854  24.876  0.00  0.00    +0.000 A 
BRANCH  12  15
ATOM     15  N   UNL     1      25.696  -7.761  23.560  0.00  0.00    +0.000 N 
ATOM     16  O   UNL     1      26.180  -6.867  22.864  0.00  0.00    +0.000 OA
ATOM     17  O   UNL     1      26.480  -8.806  23.935  0.00  0.00    +0.000 OA
ENDBRANCH  12  15
ENDBRANCH   3   9
BRANCH   1  19
ATOM     18  C   UNL     1      15.804  -8.395  25.129  0.00  0.00    +0.000 C 
ATOM     19  C   UNL     1      16.977  -9.157  25.649  0.00  0.00    +0.000 C 
ATOM     20  C   UNL     1      16.745  -9.693  27.050  0.00  0.00    +0.000 C 
ATOM     21  C   UNL     1      17.196 -10.359  24.753  0.00  0.00    +0.000 C 
ENDBRANCH   1  19
TORSDOF 3
ENDMDL
MODEL 10
REMARK VINA RESULT:      -5.8     14.122     17.602
REMARK  Name = 
REMARK  3 active torsions:
REMARK  status: ('A' for Active; 'I' for Inactive)
REMARK    1  A    between atoms: C_2  and  C_5
REMARK    2  A    between atoms: N_7  and  C_8
REMARK    3  A    between atoms: C_11  and  N_12
REMARK                            x       y       z     vdW  Elec       q    Type
REMARK                         _______ _______ _______ _____ _____    ______ ____
ROOT
ATOM      1  C   UNL     1      34.279  20.997   9.588  0.00  0.00    +0.000 A 
ATOM      2  N   UNL     1      33.627  21.586  10.604  0.00  0.00    +0.000 NA
ATOM      3  N   UNL     1      32.311  21.546  10.367  0.00  0.00    +0.000 N 
ATOM      4  C   UNL     1      32.096  20.927   9.188  0.00  0.00    +0.000 A 
ATOM      5  C   UNL     1      33.322  20.578   8.690  0.00  0.00    +0.000 A 
ATOM      6  C   UNL     1      33.093  19.895   7.388  0.00  0.00    +0.000 C 
ATOM      7  C   UNL     1      31.735  20.418   6.983  0.00  0.00    +0.000 C 
ATOM      8  N   UNL     1      31.061  20.509   8.282  0.00  0.00    +0.000 NA
ENDROOT
BRANCH   3   9
ATOM      9  C   UNL     1      31.299  22.069  11.219  0.00  0.00    +0.000 A 
ATOM     10  C   UNL     1      30.312  22.917  10.760  0.00  0.00    +0.000 A 
ATOM     11  C   UNL     1      29.333  23.417  11.606  0.00  0.00    +0.000 A 
ATOM     12  C   UNL     1      29.306  23.087  12.944  0.00  0.00    +0.000 A 
ATOM     13  C   UNL     1      30.289  22.241  13.409  0.00  0.00    +0.000 A 
ATOM     14  C   UNL     1      31.267  21.744  12.556  0.00  0.00    +0.000 A 
BRANCH  12  15
ATOM     15  N   UNL     1      28.291  23.610  13.802  0.00  0.00    +0.000 N 
ATOM     16  O   UNL     1      28.471  24.591  14.525  0.00  0.00    +0.000 OA
ATOM     17  O   UNL     1      27.083  22.990  13.815  0.00  0.00    +0.000 OA
ENDBRANCH  12  15
ENDBRANCH   3   9
BRANCH   1  19
ATOM     18  C   UNL     1      36.483  21.401  10.648  0.00  0.00    +0.000 C 
ATOM     19  C   UNL     1      35.766  20.834   9.468  0.00  0.00    +0.000 C 
ATOM     20  C   UNL     1      36.230  21.445   8.158  0.00  0.00    +0.000 C 
ATOM     21  C   UNL     1      36.079  19.353   9.391  0.00  0.00    +0.000 C 
ENDBRANCH   1  19
TORSDOF 3
ENDMDL
