MODEL 1
REMARK VINA RESULT:      -5.9      0.000      0.000
REMARK  Name = 
REMARK  4 active torsions:
REMARK  status: ('A' for Active; 'I' for Inactive)
REMARK    1  A    between atoms: C_2  and  O_3
REMARK    2  A    between atoms: O_3  and  C_4
REMARK    3  A    between atoms: C_4  and  C_6
REMARK    4  A    between atoms: C_8  and  C_9
REMARK                            x       y       z     vdW  Elec       q    Type
REMARK                         _______ _______ _______ _____ _____    ______ ____
ROOT
ATOM      1  C   UNL     1      19.384  -7.279  26.033  0.00  0.00    +0.000 A 
ATOM      2  C   UNL     1      20.487  -7.942  25.545  0.00  0.00    +0.000 A 
ATOM      3  C   UNL     1      21.427  -6.997  25.204  0.00  0.00    +0.000 A 
ATOM      4  O   UNL     1      20.928  -5.813  25.471  0.00  0.00    +0.000 OA
ATOM      5  C   UNL     1      19.710  -5.942  25.967  0.00  0.00    +0.000 A 
ATOM      6  C   UNL     1      18.885  -4.765  26.366  0.00  0.00    +0.000 C 
ENDROOT
BRANCH   3   7
ATOM      7  C   UNL     1      22.736  -7.302  24.649  0.00  0.00    +0.000 A 
ATOM      8  C   UNL     1      23.153  -8.606  24.502  0.00  0.00    +0.000 A 
ATOM      9  C   UNL     1      24.398  -8.939  23.976  0.00  0.00    +0.000 A 
ATOM     10  C   UNL     1      25.238  -7.923  23.589  0.00  0.00    +0.000 A 
ATOM     11  N   UNL     1      26.512  -8.263  23.049  0.00  0.00    +0.000 NA
ATOM     12  C   UNL     1      24.827  -6.617  23.733  0.00  0.00    +0.000 A 
ATOM     13  C   UNL     1      23.595  -6.280  24.255  0.00  0.00    +0.000 A 
ENDBRANCH   3   7
BRANCH   1  14
ATOM     14  C   UNL     1      18.125  -7.836  26.524  0.00  0.00    +0.000 C 
ATOM     15  O   UNL     1      17.263  -8.245  25.705  0.00  0.00    +0.000 OA
BRANCH  14  16
ATOM     16  O   UNL     1      17.830  -7.940  27.863  0.00  0.00    +0.000 OA
BRANCH  16  18
ATOM     17  C   UNL     1      19.205  -9.527  28.937  0.00  0.00    +0.000 C 
ATOM     18  C   UNL     1      17.777  -9.163  28.574  0.00  0.00    +0.000 C 
ENDBRANCH  16  18
ENDBRANCH  14  16
ENDBRANCH   1  14
TORSDOF 4
ENDMDL
MODEL 2
REMARK VINA RESULT:      -5.7     20.811     21.822
REMARK  Name = 
REMARK  4 active torsions:
REMARK  status: ('A' for Active; 'I' for Inactive)
REMARK    1  A    between atoms: C_2  and  O_3
REMARK    2  A    between atoms: O_3  and  C_4
REMARK    3  A    between atoms: C_4  and  C_6
REMARK    4  A    between atoms: C_8  and  C_9
REMARK                            x       y       z     vdW  Elec       q    Type
REMARK                         _______ _______ _______ _____ _____    ______ ____
ROOT
ATOM      1  C   UNL     1      17.577  10.276  36.788  0.00  0.00    +0.000 A 
ATOM      2  C   UNL     1      17.506  10.563  35.443  0.00  0.00    +0.000 A 
ATOM      3  C   UNL     1      16.272  11.120  35.198  0.00  0.00    +0.000 A 
ATOM      4  O   UNL     1      15.618  11.174  36.334  0.00  0.00    +0.000 OA
ATOM      5  C   UNL     1      16.365  10.680  37.305  0.00  0.00    +0.000 A 
ATOM      6  C   UNL     1      15.889  10.606  38.716  0.00  0.00    +0.000 C 
ENDROOT
BRANCH   3   7
ATOM      7  C   UNL     1      15.815  11.560  33.890  0.00  0.00    +0.000 A 
ATOM      8  C   UNL     1      14.841  12.527  33.772  0.00  0.00    +0.000 A 
ATOM      9  C   UNL     1      14.377  12.974  32.538  0.00  0.00    +0.000 A 
ATOM     10  C   UNL     1      14.914  12.426  31.398  0.00  0.00    +0.000 A 
ATOM     11  N   UNL     1      14.440  12.884  30.135  0.00  0.00    +0.000 NA
ATOM     12  C   UNL     1      15.888  11.460  31.510  0.00  0.00    +0.000 A 
ATOM     13  C   UNL     1      16.352  11.011  32.729  0.00  0.00    +0.000 A 
ENDBRANCH   3   7
BRANCH   1  14
ATOM     14  C   UNL     1      18.679   9.677  37.539  0.00  0.00    +0.000 C 
ATOM     15  O   UNL     1      19.820  10.203  37.495  0.00  0.00    +0.000 OA
BRANCH  14  16
ATOM     16  O   UNL     1      18.527   8.547  38.306  0.00  0.00    +0.000 OA
BRANCH  16  18
ATOM     17  C   UNL     1      18.447   7.124  40.185  0.00  0.00    +0.000 C 
ATOM     18  C   UNL     1      19.041   8.400  39.617  0.00  0.00    +0.000 C 
ENDBRANCH  16  18
ENDBRANCH  14  16
ENDBRANCH   1  14
TORSDOF 4
ENDMDL
MODEL 3
REMARK VINA RESULT:      -5.7     20.004     21.350
REMARK  Name = 
REMARK  4 active torsions:
REMARK  status: ('A' for Active; 'I' for Inactive)
REMARK    1  A    between atoms: C_2  and  O_3
REMARK    2  A    between atoms: O_3  and  C_4
REMARK    3  A    between atoms: C_4  and  C_6
REMARK    4  A    between atoms: C_8  and  C_9
REMARK                            x       y       z     vdW  Elec       q    Type
REMARK                         _______ _______ _______ _____ _____    ______ ____
ROOT
ATOM      1  C   UNL     1      18.569  10.044  37.492  0.00  0.00    +0.000 A 
ATOM      2  C   UNL     1      19.860  10.222  37.936  0.00  0.00    +0.000 A 
ATOM      3  C   UNL     1      20.708   9.798  36.940  0.00  0.00    +0.000 A 
ATOM      4  O   UNL     1      19.976   9.382  35.933  0.00  0.00    +0.000 OA
ATOM      5  C   UNL     1      18.695   9.514  36.226  0.00  0.00    +0.000 A 
ATOM      6  C   UNL     1      17.616   9.122  35.274  0.00  0.00    +0.000 C 
ENDROOT
BRANCH   3   7
ATOM      7  C   UNL     1      22.159   9.825  37.029  0.00  0.00    +0.000 A 
ATOM      8  C   UNL     1      22.803   9.423  38.178  0.00  0.00    +0.000 A 
ATOM      9  C   UNL     1      24.189   9.434  38.302  0.00  0.00    +0.000 A 
ATOM     10  C   UNL     1      24.939   9.865  37.234  0.00  0.00    +0.000 A 
ATOM     11  N   UNL     1      26.358   9.876  37.360  0.00  0.00    +0.000 NA
ATOM     12  C   UNL     1      24.301  10.268  36.083  0.00  0.00    +0.000 A 
ATOM     13  C   UNL     1      22.928  10.260  35.953  0.00  0.00    +0.000 A 
ENDBRANCH   3   7
BRANCH   1  14
ATOM     14  C   UNL     1      17.315  10.343  38.181  0.00  0.00    +0.000 C 
ATOM     15  O   UNL     1      17.069   9.800  39.289  0.00  0.00    +0.000 OA
BRANCH  14  16
ATOM     16  O   UNL     1      16.373  11.204  37.672  0.00  0.00    +0.000 OA
BRANCH  16  18
ATOM     17  C   UNL     1      15.973  12.445  35.706  0.00  0.00    +0.000 C 
ATOM     18  C   UNL     1      16.678  12.440  37.050  0.00  0.00    +0.000 C 
ENDBRANCH  16  18
ENDBRANCH  14  16
ENDBRANCH   1  14
TORSDOF 4
ENDMDL
MODEL 4
REMARK VINA RESULT:      -5.6     20.359     22.299
REMARK  Name = 
REMARK  4 active torsions:
REMARK  status: ('A' for Active; 'I' for Inactive)
REMARK    1  A    between atoms: C_2  and  O_3
REMARK    2  A    between atoms: O_3  and  C_4
REMARK    3  A    between atoms: C_4  and  C_6
REMARK    4  A    between atoms: C_8  and  C_9
REMARK                            x       y       z     vdW  Elec       q    Type
REMARK                         _______ _______ _______ _____ _____    ______ ____
ROOT
ATOM      1  C   UNL     1      15.743  11.891  34.213  0.00  0.00    +0.000 A 
ATOM      2  C   UNL     1      16.213  11.889  35.507  0.00  0.00    +0.000 A 
ATOM      3  C   UNL     1      17.205  10.939  35.592  0.00  0.00    +0.000 A 
ATOM      4  O   UNL     1      17.339  10.386  34.409  0.00  0.00    +0.000 OA
ATOM      5  C   UNL     1      16.484  10.929  33.561  0.00  0.00    +0.000 A 
ATOM      6  C   UNL     1      16.400  10.504  32.134  0.00  0.00    +0.000 C 
ENDROOT
BRANCH   3   7
ATOM      7  C   UNL     1      17.950  10.635  36.802  0.00  0.00    +0.000 A 
ATOM      8  C   UNL     1      18.514  11.640  37.555  0.00  0.00    +0.000 A 
ATOM      9  C   UNL     1      19.234  11.389  38.720  0.00  0.00    +0.000 A 
ATOM     10  C   UNL     1      19.384  10.086  39.128  0.00  0.00    +0.000 A 
ATOM     11  N   UNL     1      20.121   9.828  40.321  0.00  0.00    +0.000 NA
ATOM     12  C   UNL     1      18.823   9.076  38.380  0.00  0.00    +0.000 A 
ATOM     13  C   UNL     1      18.109   9.318  37.225  0.00  0.00    +0.000 A 
ENDBRANCH   3   7
BRANCH   1  14
ATOM     14  C   UNL     1      14.693  12.719  33.622  0.00  0.00    +0.000 C 
ATOM     15  O   UNL     1      14.047  13.516  34.349  0.00  0.00    +0.000 OA
BRANCH  14  16
ATOM     16  O   UNL     1      14.370  12.669  32.287  0.00  0.00    +0.000 OA
BRANCH  16  18
ATOM     17  C   UNL     1      15.444  13.777  30.504  0.00  0.00    +0.000 C 
ATOM     18  C   UNL     1      14.260  13.807  31.452  0.00  0.00    +0.000 C 
ENDBRANCH  16  18
ENDBRANCH  14  16
ENDBRANCH   1  14
TORSDOF 4
ENDMDL
MODEL 5
REMARK VINA RESULT:      -5.6     21.391     22.551
REMARK  Name = 
REMARK  4 active torsions:
REMARK  status: ('A' for Active; 'I' for Inactive)
REMARK    1  A    between atoms: C_2  and  O_3
REMARK    2  A    between atoms: O_3  and  C_4
REMARK    3  A    between atoms: C_4  and  C_6
REMARK    4  A    between atoms: C_8  and  C_9
REMARK                            x       y       z     vdW  Elec       q    Type
REMARK                         _______ _______ _______ _____ _____    ______ ____
ROOT
ATOM      1  C   UNL     1      15.245  11.902  35.973  0.00  0.00    +0.000 A 
ATOM      2  C   UNL     1      15.962  11.608  37.111  0.00  0.00    +0.000 A 
ATOM      3  C   UNL     1      17.022  10.812  36.744  0.00  0.00    +0.000 A 
ATOM      4  O   UNL     1      16.962  10.627  35.447  0.00  0.00    +0.000 OA
ATOM      5  C   UNL     1      15.914  11.262  34.952  0.00  0.00    +0.000 A 
ATOM      6  C   UNL     1      15.581  11.237  33.499  0.00  0.00    +0.000 C 
ENDROOT
BRANCH   3   7
ATOM      7  C   UNL     1      18.016  10.290  37.668  0.00  0.00    +0.000 A 
ATOM      8  C   UNL     1      17.664   9.922  38.948  0.00  0.00    +0.000 A 
ATOM      9  C   UNL     1      18.586   9.418  39.862  0.00  0.00    +0.000 A 
ATOM     10  C   UNL     1      19.895   9.285  39.465  0.00  0.00    +0.000 A 
ATOM     11  N   UNL     1      20.838   8.768  40.400  0.00  0.00    +0.000 NA
ATOM     12  C   UNL     1      20.252   9.650  38.188  0.00  0.00    +0.000 A 
ATOM     13  C   UNL     1      19.345  10.151  37.277  0.00  0.00    +0.000 A 
ENDBRANCH   3   7
BRANCH   1  14
ATOM     14  C   UNL     1      14.036  12.713  35.837  0.00  0.00    +0.000 C 
ATOM     15  O   UNL     1      14.004  13.646  34.994  0.00  0.00    +0.000 OA
BRANCH  14  16
ATOM     16  O   UNL     1      12.911  12.501  36.597  0.00  0.00    +0.000 OA
BRANCH  16  18
ATOM     17  C   UNL     1      11.012  11.350  37.392  0.00  0.00    +0.000 C 
ATOM     18  C   UNL     1      12.488  11.231  37.057  0.00  0.00    +0.000 C 
ENDBRANCH  16  18
ENDBRANCH  14  16
ENDBRANCH   1  14
TORSDOF 4
ENDMDL
MODEL 6
REMARK VINA RESULT:      -5.6     19.846     21.598
REMARK  Name = 
REMARK  4 active torsions:
REMARK  status: ('A' for Active; 'I' for Inactive)
REMARK    1  A    between atoms: C_2  and  O_3
REMARK    2  A    between atoms: O_3  and  C_4
REMARK    3  A    between atoms: C_4  and  C_6
REMARK    4  A    between atoms: C_8  and  C_9
REMARK                            x       y       z     vdW  Elec       q    Type
REMARK                         _______ _______ _______ _____ _____    ______ ____
ROOT
ATOM      1  C   UNL     1      18.590   9.128  39.309  0.00  0.00    +0.000 A 
ATOM      2  C   UNL     1      18.656   9.361  37.954  0.00  0.00    +0.000 A 
ATOM      3  C   UNL     1      17.470   9.945  37.571  0.00  0.00    +0.000 A 
ATOM      4  O   UNL     1      16.715  10.068  38.637  0.00  0.00    +0.000 OA
ATOM      5  C   UNL     1      17.350   9.591  39.693  0.00  0.00    +0.000 A 
ATOM      6  C   UNL     1      16.742   9.592  41.055  0.00  0.00    +0.000 C 
ENDROOT
BRANCH   3   7
ATOM      7  C   UNL     1      17.153  10.344  36.210  0.00  0.00    +0.000 A 
ATOM      8  C   UNL     1      16.214  11.320  35.961  0.00  0.00    +0.000 A 
ATOM      9  C   UNL     1      15.882  11.728  34.673  0.00  0.00    +0.000 A 
ATOM     10  C   UNL     1      16.520  11.131  33.612  0.00  0.00    +0.000 A 
ATOM     11  N   UNL     1      16.181  11.549  32.292  0.00  0.00    +0.000 NA
ATOM     12  C   UNL     1      17.459  10.155  33.853  0.00  0.00    +0.000 A 
ATOM     13  C   UNL     1      17.792   9.744  35.128  0.00  0.00    +0.000 A 
ENDBRANCH   3   7
BRANCH   1  14
ATOM     14  C   UNL     1      19.595   8.527  40.184  0.00  0.00    +0.000 C 
ATOM     15  O   UNL     1      20.289   9.262  40.933  0.00  0.00    +0.000 OA
BRANCH  14  16
ATOM     16  O   UNL     1      19.824   7.173  40.232  0.00  0.00    +0.000 OA
BRANCH  16  18
ATOM     17  C   UNL     1      19.447   4.852  40.051  0.00  0.00    +0.000 C 
ATOM     18  C   UNL     1      18.805   6.196  40.339  0.00  0.00    +0.000 C 
ENDBRANCH  16  18
ENDBRANCH  14  16
ENDBRANCH   1  14
TORSDOF 4
ENDMDL
MODEL 7
REMARK VINA RESULT:      -5.6      1.587      2.744
REMARK  Name = 
REMARK  4 active torsions:
REMARK  status: ('A' for Active; 'I' for Inactive)
REMARK    1  A    between atoms: C_2  and  O_3
REMARK    2  A    between atoms: O_3  and  C_4
REMARK    3  A    between atoms: C_4  and  C_6
REMARK    4  A    between atoms: C_8  and  C_9
REMARK                            x       y       z     vdW  Elec       q    Type
REMARK                         _______ _______ _______ _____ _____    ______ ____
ROOT
ATOM      1  C   UNL     1      18.681  -7.479  26.387  0.00  0.00    +0.000 A 
ATOM      2  C   UNL     1      19.700  -7.073  25.554  0.00  0.00    +0.000 A 
ATOM      3  C   UNL     1      20.797  -7.860  25.819  0.00  0.00    +0.000 A 
ATOM      4  O   UNL     1      20.469  -8.708  26.765  0.00  0.00    +0.000 OA
ATOM      5  C   UNL     1      19.215  -8.511  27.129  0.00  0.00    +0.000 A 
ATOM      6  C   UNL     1      18.556  -9.326  28.190  0.00  0.00    +0.000 C 
ENDROOT
BRANCH   3   7
ATOM      7  C   UNL     1      22.078  -7.739  25.143  0.00  0.00    +0.000 A 
ATOM      8  C   UNL     1      22.539  -6.512  24.720  0.00  0.00    +0.000 A 
ATOM      9  C   UNL     1      23.759  -6.355  24.069  0.00  0.00    +0.000 A 
ATOM     10  C   UNL     1      24.529  -7.471  23.842  0.00  0.00    +0.000 A 
ATOM     11  N   UNL     1      25.779  -7.311  23.176  0.00  0.00    +0.000 NA
ATOM     12  C   UNL     1      24.074  -8.700  24.262  0.00  0.00    +0.000 A 
ATOM     13  C   UNL     1      22.865  -8.863  24.908  0.00  0.00    +0.000 A 
ENDBRANCH   3   7
BRANCH   1  14
ATOM     14  C   UNL     1      17.320  -6.957  26.489  0.00  0.00    +0.000 C 
ATOM     15  O   UNL     1      17.037  -6.130  27.393  0.00  0.00    +0.000 OA
BRANCH  14  16
ATOM     16  O   UNL     1      16.315  -7.329  25.629  0.00  0.00    +0.000 OA
BRANCH  16  18
ATOM     17  C   UNL     1      14.518  -8.818  25.971  0.00  0.00    +0.000 C 
ATOM     18  C   UNL     1      15.917  -8.669  25.401  0.00  0.00    +0.000 C 
ENDBRANCH  16  18
ENDBRANCH  14  16
ENDBRANCH   1  14
TORSDOF 4
ENDMDL
MODEL 8
REMARK VINA RESULT:      -5.4     13.592     15.628
REMARK  Name = 
REMARK  4 active torsions:
REMARK  status: ('A' for Active; 'I' for Inactive)
REMARK    1  A    between atoms: C_2  and  O_3
REMARK    2  A    between atoms: O_3  and  C_4
REMARK    3  A    between atoms: C_4  and  C_6
REMARK    4  A    between atoms: C_8  and  C_9
REMARK                            x       y       z     vdW  Elec       q    Type
REMARK                         _______ _______ _______ _____ _____    ______ ____
ROOT
ATOM      1  C   UNL     1      33.842  -3.078  34.293  0.00  0.00    +0.000 A 
ATOM      2  C   UNL     1      33.521  -3.447  33.006  0.00  0.00    +0.000 A 
ATOM      3  C   UNL     1      34.071  -4.687  32.777  0.00  0.00    +0.000 A 
ATOM      4  O   UNL     1      34.697  -5.063  33.867  0.00  0.00    +0.000 OA
ATOM      5  C   UNL     1      34.581  -4.128  34.794  0.00  0.00    +0.000 A 
ATOM      6  C   UNL     1      35.191  -4.269  36.147  0.00  0.00    +0.000 C 
ENDROOT
BRANCH   3   7
ATOM      7  C   UNL     1      33.953  -5.420  31.526  0.00  0.00    +0.000 A 
ATOM      8  C   UNL     1      32.881  -5.215  30.687  0.00  0.00    +0.000 A 
ATOM      9  C   UNL     1      32.733  -5.896  29.482  0.00  0.00    +0.000 A 
ATOM     10  C   UNL     1      33.697  -6.807  29.122  0.00  0.00    +0.000 A 
ATOM     11  N   UNL     1      33.546  -7.504  27.889  0.00  0.00    +0.000 NA
ATOM     12  C   UNL     1      34.771  -7.016  29.956  0.00  0.00    +0.000 A 
ATOM     13  C   UNL     1      34.924  -6.345  31.152  0.00  0.00    +0.000 A 
ENDBRANCH   3   7
BRANCH   1  14
ATOM     14  C   UNL     1      33.491  -1.852  35.008  0.00  0.00    +0.000 C 
ATOM     15  O   UNL     1      32.673  -1.900  35.962  0.00  0.00    +0.000 OA
BRANCH  14  16
ATOM     16  O   UNL     1      34.021  -0.626  34.684  0.00  0.00    +0.000 OA
BRANCH  16  18
ATOM     17  C   UNL     1      34.308   0.275  32.523  0.00  0.00    +0.000 C 
ATOM     18  C   UNL     1      33.435   0.277  33.764  0.00  0.00    +0.000 C 
ENDBRANCH  16  18
ENDBRANCH  14  16
ENDBRANCH   1  14
TORSDOF 4
ENDMDL
MODEL 9
REMARK VINA RESULT:      -5.4     32.429     34.227
REMARK  Name = 
REMARK  4 active torsions:
REMARK  status: ('A' for Active; 'I' for Inactive)
REMARK    1  A    between atoms: C_2  and  O_3
REMARK    2  A    between atoms: O_3  and  C_4
REMARK    3  A    between atoms: C_4  and  C_6
REMARK    4  A    between atoms: C_8  and  C_9
REMARK                            x       y       z     vdW  Elec       q    Type
REMARK                         _______ _______ _______ _____ _____    ______ ____
ROOT
ATOM      1  C   UNL     1      27.380  24.181  22.577  0.00  0.00    +0.000 A 
ATOM      2  C   UNL     1      27.453  25.259  21.723  0.00  0.00    +0.000 A 
ATOM      3  C   UNL     1      28.779  25.606  21.600  0.00  0.00    +0.000 A 
ATOM      4  O   UNL     1      29.485  24.783  22.339  0.00  0.00    +0.000 OA
ATOM      5  C   UNL     1      28.684  23.919  22.936  0.00  0.00    +0.000 A 
ATOM      6  C   UNL     1      29.199  22.855  23.847  0.00  0.00    +0.000 C 
ENDROOT
BRANCH   3   7
ATOM      7  C   UNL     1      29.268  26.703  20.780  0.00  0.00    +0.000 A 
ATOM      8  C   UNL     1      29.878  26.461  19.570  0.00  0.00    +0.000 A 
ATOM      9  C   UNL     1      30.360  27.483  18.757  0.00  0.00    +0.000 A 
ATOM     10  C   UNL     1      30.217  28.782  19.184  0.00  0.00    +0.000 A 
ATOM     11  N   UNL     1      30.709  29.829  18.352  0.00  0.00    +0.000 NA
ATOM     12  C   UNL     1      29.608  29.030  20.393  0.00  0.00    +0.000 A 
ATOM     13  C   UNL     1      29.129  28.022  21.204  0.00  0.00    +0.000 A 
ENDBRANCH   3   7
BRANCH   1  14
ATOM     14  C   UNL     1      26.197  23.448  23.025  0.00  0.00    +0.000 C 
ATOM     15  O   UNL     1      25.501  22.819  22.188  0.00  0.00    +0.000 OA
BRANCH  14  16
ATOM     16  O   UNL     1      25.801  23.409  24.341  0.00  0.00    +0.000 OA
BRANCH  16  18
ATOM     17  C   UNL     1      25.625  24.032  26.608  0.00  0.00    +0.000 C 
ATOM     18  C   UNL     1      25.727  24.544  25.183  0.00  0.00    +0.000 C 
ENDBRANCH  16  18
ENDBRANCH  14  16
ENDBRANCH   1  14
TORSDOF 4
ENDMDL
MODEL 10
REMARK VINA RESULT:      -5.3     17.131     18.959
REMARK  Name = 
REMARK  4 active torsions:
REMARK  status: ('A' for Active; 'I' for Inactive)
REMARK    1  A    between atoms: C_2  and  O_3
REMARK    2  A    between atoms: O_3  and  C_4
REMARK    3  A    between atoms: C_4  and  C_6
REMARK    4  A    between atoms: C_8  and  C_9
REMARK                            x       y       z     vdW  Elec       q    Type
REMARK                         _______ _______ _______ _____ _____    ______ ____
ROOT
ATOM      1  C   UNL     1      33.842   3.251  35.023  0.00  0.00    +0.000 A 
ATOM      2  C   UNL     1      33.505   2.102  34.342  0.00  0.00    +0.000 A 
ATOM      3  C   UNL     1      33.589   1.051  35.226  0.00  0.00    +0.000 A 
ATOM      4  O   UNL     1      33.957   1.529  36.392  0.00  0.00    +0.000 OA
ATOM      5  C   UNL     1      34.117   2.838  36.308  0.00  0.00    +0.000 A 
ATOM      6  C   UNL     1      34.536   3.664  37.477  0.00  0.00    +0.000 C 
ENDROOT
BRANCH   3   7
ATOM      7  C   UNL     1      33.307  -0.333  34.885  0.00  0.00    +0.000 A 
ATOM      8  C   UNL     1      33.942  -0.942  33.826  0.00  0.00    +0.000 A 
ATOM      9  C   UNL     1      33.700  -2.265  33.468  0.00  0.00    +0.000 A 
ATOM     10  C   UNL     1      32.791  -2.987  34.204  0.00  0.00    +0.000 A 
ATOM     11  N   UNL     1      32.543  -4.342  33.839  0.00  0.00    +0.000 NA
ATOM     12  C   UNL     1      32.153  -2.385  35.264  0.00  0.00    +0.000 A 
ATOM     13  C   UNL     1      32.388  -1.073  35.624  0.00  0.00    +0.000 A 
ENDBRANCH   3   7
BRANCH   1  14
ATOM     14  C   UNL     1      33.904   4.624  34.525  0.00  0.00    +0.000 C 
ATOM     15  O   UNL     1      32.877   5.152  34.028  0.00  0.00    +0.000 OA
BRANCH  14  16
ATOM     16  O   UNL     1      35.049   5.382  34.576  0.00  0.00    +0.000 OA
BRANCH  16  18
ATOM     17  C   UNL     1      36.596   6.543  35.926  0.00  0.00    +0.000 C 
ATOM     18  C   UNL     1      35.192   6.558  35.352  0.00  0.00    +0.000 C 
ENDBRANCH  16  18
ENDBRANCH  14  16
ENDBRANCH   1  14
TORSDOF 4
ENDMDL
