MODEL 1
REMARK VINA RESULT:      -8.4      0.000      0.000
REMARK  Name = 
REMARK  7 active torsions:
REMARK  status: ('A' for Active; 'I' for Inactive)
REMARK    1  A    between atoms: C_2  and  C_3
REMARK    2  A    between atoms: C_8  and  S_9
REMARK    3  A    between atoms: S_9  and  C_10
REMARK    4  A    between atoms: C_10  and  C_11
REMARK    5  A    between atoms: N_13  and  C_14
REMARK    6  A    between atoms: C_17  and  O_18
REMARK    7  A    between atoms: C_23  and  C_24
REMARK                            x       y       z     vdW  Elec       q    Type
REMARK                         _______ _______ _______ _____ _____    ______ ____
ROOT
ATOM      1  C   UNL     1      35.928  -3.067  15.986  0.00  0.00    +0.000 A 
ATOM      2  C   UNL     1      34.658  -3.074  16.509  0.00  0.00    +0.000 A 
ATOM      3  C   UNL     1      34.113  -1.885  16.915  0.00  0.00    +0.000 A 
ATOM      4  C   UNL     1      34.851  -0.728  16.786  0.00  0.00    +0.000 A 
ATOM      5  C   UNL     1      36.124  -0.714  16.264  0.00  0.00    +0.000 A 
ATOM      6  C   UNL     1      36.828   0.473  16.154  0.00  0.00    +0.000 A 
ATOM      7  N   UNL     1      38.060   0.440  15.642  0.00  0.00    +0.000 NA
ATOM      8  C   UNL     1      38.611  -0.725  15.239  0.00  0.00    +0.000 A 
ATOM      9  N   UNL     1      37.913  -1.867  15.353  0.00  0.00    +0.000 NA
ATOM     10  C   UNL     1      36.672  -1.920  15.854  0.00  0.00    +0.000 A 
ENDROOT
BRANCH   8  11
ATOM     11  C   UNL     1      39.957  -0.800  14.698  0.00  0.00    +0.000 A 
ATOM     12  C   UNL     1      40.661   0.317  14.277  0.00  0.00    +0.000 A 
ATOM     13  C   UNL     1      41.932   0.190  13.770  0.00  0.00    +0.000 A 
ATOM     14  C   UNL     1      42.566  -1.032  13.654  0.00  0.00    +0.000 A 
ATOM     15  C   UNL     1      41.871  -2.143  14.070  0.00  0.00    +0.000 A 
ATOM     16  C   UNL     1      40.597  -2.029  14.578  0.00  0.00    +0.000 A 
ENDBRANCH   8  11
BRANCH   1  18
ATOM     17  C   UNL     1      37.239  -4.924  16.762  0.00  0.00    +0.000 C 
ATOM     18  C   UNL     1      36.528  -4.347  15.543  0.00  0.00    +0.000 C 
ENDBRANCH   1  18
BRANCH   6  19
ATOM     19  S   UNL     1      36.004   1.944  16.741  0.00  0.00    +0.000 S 
BRANCH  19  20
ATOM     20  C   UNL     1      36.543   3.389  15.784  0.00  0.00    +0.000 C 
BRANCH  20  21
ATOM     21  C   UNL     1      37.850   3.910  16.292  0.00  0.00    +0.000 C 
ATOM     22  O   UNL     1      38.888   3.309  15.919  0.00  0.00    +0.000 OA
ATOM     23  N   UNL     1      37.982   5.007  17.144  0.00  0.00    +0.000 NA
BRANCH  23  24
ATOM     24  C   UNL     1      39.197   5.540  17.651  0.00  0.00    +0.000 A 
ATOM     25  C   UNL     1      40.259   5.958  16.907  0.00  0.00    +0.000 A 
ATOM     26  C   UNL     1      41.430   6.478  17.465  0.00  0.00    +0.000 A 
ATOM     27  C   UNL     1      41.535   6.579  18.838  0.00  0.00    +0.000 A 
ATOM     28  C   UNL     1      40.475   6.162  19.595  0.00  0.00    +0.000 A 
ATOM     29  C   UNL     1      39.319   5.650  19.036  0.00  0.00    +0.000 A 
BRANCH  27  30
ATOM     30  O   UNL     1      42.674   7.087  19.453  0.00  0.00    +0.000 OA
ATOM     31  C   UNL     1      42.638   8.283  20.210  0.00  0.00    +0.000 C 
ENDBRANCH  27  30
ENDBRANCH  23  24
ENDBRANCH  20  21
ENDBRANCH  19  20
ENDBRANCH   6  19
TORSDOF 7
ENDMDL
MODEL 2
REMARK VINA RESULT:      -8.4      2.325      2.937
REMARK  Name = 
REMARK  7 active torsions:
REMARK  status: ('A' for Active; 'I' for Inactive)
REMARK    1  A    between atoms: C_2  and  C_3
REMARK    2  A    between atoms: C_8  and  S_9
REMARK    3  A    between atoms: S_9  and  C_10
REMARK    4  A    between atoms: C_10  and  C_11
REMARK    5  A    between atoms: N_13  and  C_14
REMARK    6  A    between atoms: C_17  and  O_18
REMARK    7  A    between atoms: C_23  and  C_24
REMARK                            x       y       z     vdW  Elec       q    Type
REMARK                         _______ _______ _______ _____ _____    ______ ____
ROOT
ATOM      1  C   UNL     1      35.948   0.499  16.735  0.00  0.00    +0.000 A 
ATOM      2  C   UNL     1      34.796   1.224  16.914  0.00  0.00    +0.000 A 
ATOM      3  C   UNL     1      34.573   2.306  16.106  0.00  0.00    +0.000 A 
ATOM      4  C   UNL     1      35.506   2.630  15.143  0.00  0.00    +0.000 A 
ATOM      5  C   UNL     1      36.663   1.907  14.958  0.00  0.00    +0.000 A 
ATOM      6  C   UNL     1      37.571   2.270  13.978  0.00  0.00    +0.000 A 
ATOM      7  N   UNL     1      38.680   1.540  13.834  0.00  0.00    +0.000 NA
ATOM      8  C   UNL     1      38.913   0.472  14.626  0.00  0.00    +0.000 A 
ATOM      9  N   UNL     1      38.020   0.135  15.571  0.00  0.00    +0.000 NA
ATOM     10  C   UNL     1      36.883   0.813  15.780  0.00  0.00    +0.000 A 
ENDROOT
BRANCH   8  11
ATOM     11  C   UNL     1      40.119  -0.330  14.511  0.00  0.00    +0.000 A 
ATOM     12  C   UNL     1      41.333   0.195  14.096  0.00  0.00    +0.000 A 
ATOM     13  C   UNL     1      42.444  -0.609  14.002  0.00  0.00    +0.000 A 
ATOM     14  C   UNL     1      42.414  -1.956  14.310  0.00  0.00    +0.000 A 
ATOM     15  C   UNL     1      41.212  -2.479  14.721  0.00  0.00    +0.000 A 
ATOM     16  C   UNL     1      40.091  -1.686  14.818  0.00  0.00    +0.000 A 
ENDBRANCH   8  11
BRANCH   1  18
ATOM     17  C   UNL     1      35.974  -0.196  19.034  0.00  0.00    +0.000 C 
ATOM     18  C   UNL     1      36.199  -0.674  17.604  0.00  0.00    +0.000 C 
ENDBRANCH   1  18
BRANCH   6  19
ATOM     19  S   UNL     1      37.163   3.713  13.011  0.00  0.00    +0.000 S 
BRANCH  19  20
ATOM     20  C   UNL     1      38.607   4.807  12.879  0.00  0.00    +0.000 C 
BRANCH  20  21
ATOM     21  C   UNL     1      38.925   5.435  14.199  0.00  0.00    +0.000 C 
ATOM     22  O   UNL     1      39.973   6.123  14.266  0.00  0.00    +0.000 OA
ATOM     23  N   UNL     1      38.137   5.303  15.343  0.00  0.00    +0.000 NA
BRANCH  23  24
ATOM     24  C   UNL     1      38.393   5.880  16.616  0.00  0.00    +0.000 A 
ATOM     25  C   UNL     1      38.132   7.168  16.977  0.00  0.00    +0.000 A 
ATOM     26  C   UNL     1      38.405   7.678  18.248  0.00  0.00    +0.000 A 
ATOM     27  C   UNL     1      38.969   6.851  19.200  0.00  0.00    +0.000 A 
ATOM     28  C   UNL     1      39.236   5.556  18.848  0.00  0.00    +0.000 A 
ATOM     29  C   UNL     1      38.962   5.058  17.588  0.00  0.00    +0.000 A 
BRANCH  27  30
ATOM     30  O   UNL     1      39.265   7.301  20.482  0.00  0.00    +0.000 OA
ATOM     31  C   UNL     1      38.744   8.521  20.979  0.00  0.00    +0.000 C 
ENDBRANCH  27  30
ENDBRANCH  23  24
ENDBRANCH  20  21
ENDBRANCH  19  20
ENDBRANCH   6  19
TORSDOF 7
ENDMDL
MODEL 3
REMARK VINA RESULT:      -8.3      1.400      4.608
REMARK  Name = 
REMARK  7 active torsions:
REMARK  status: ('A' for Active; 'I' for Inactive)
REMARK    1  A    between atoms: C_2  and  C_3
REMARK    2  A    between atoms: C_8  and  S_9
REMARK    3  A    between atoms: S_9  and  C_10
REMARK    4  A    between atoms: C_10  and  C_11
REMARK    5  A    between atoms: N_13  and  C_14
REMARK    6  A    between atoms: C_17  and  O_18
REMARK    7  A    between atoms: C_23  and  C_24
REMARK                            x       y       z     vdW  Elec       q    Type
REMARK                         _______ _______ _______ _____ _____    ______ ____
ROOT
ATOM      1  C   UNL     1      40.694  -0.900  14.398  0.00  0.00    +0.000 A 
ATOM      2  C   UNL     1      41.786  -0.278  13.845  0.00  0.00    +0.000 A 
ATOM      3  C   UNL     1      41.681   1.043  13.501  0.00  0.00    +0.000 A 
ATOM      4  C   UNL     1      40.490   1.702  13.721  0.00  0.00    +0.000 A 
ATOM      5  C   UNL     1      39.391   1.084  14.275  0.00  0.00    +0.000 A 
ATOM      6  C   UNL     1      38.216   1.787  14.477  0.00  0.00    +0.000 A 
ATOM      7  N   UNL     1      37.175   1.148  15.016  0.00  0.00    +0.000 NA
ATOM      8  C   UNL     1      37.264  -0.155  15.358  0.00  0.00    +0.000 A 
ATOM      9  N   UNL     1      38.413  -0.820  15.155  0.00  0.00    +0.000 NA
ATOM     10  C   UNL     1      39.503  -0.254  14.620  0.00  0.00    +0.000 A 
ENDROOT
BRANCH   8  11
ATOM     11  C   UNL     1      36.144  -0.886  15.926  0.00  0.00    +0.000 A 
ATOM     12  C   UNL     1      35.870  -2.207  15.607  0.00  0.00    +0.000 A 
ATOM     13  C   UNL     1      34.795  -2.851  16.171  0.00  0.00    +0.000 A 
ATOM     14  C   UNL     1      33.946  -2.232  17.069  0.00  0.00    +0.000 A 
ATOM     15  C   UNL     1      34.216  -0.922  17.387  0.00  0.00    +0.000 A 
ATOM     16  C   UNL     1      35.288  -0.265  16.828  0.00  0.00    +0.000 A 
ENDBRANCH   8  11
BRANCH   1  18
ATOM     17  C   UNL     1      41.233  -3.068  13.514  0.00  0.00    +0.000 C 
ATOM     18  C   UNL     1      40.796  -2.330  14.774  0.00  0.00    +0.000 C 
ENDBRANCH   1  18
BRANCH   6  19
ATOM     19  S   UNL     1      38.212   3.496  13.963  0.00  0.00    +0.000 S 
BRANCH  19  20
ATOM     20  C   UNL     1      37.438   4.532  15.237  0.00  0.00    +0.000 C 
BRANCH  20  21
ATOM     21  C   UNL     1      38.367   4.747  16.390  0.00  0.00    +0.000 C 
ATOM     22  O   UNL     1      38.445   3.826  17.239  0.00  0.00    +0.000 OA
ATOM     23  N   UNL     1      39.141   5.894  16.573  0.00  0.00    +0.000 NA
BRANCH  23  24
ATOM     24  C   UNL     1      40.037   6.144  17.646  0.00  0.00    +0.000 A 
ATOM     25  C   UNL     1      41.383   6.327  17.537  0.00  0.00    +0.000 A 
ATOM     26  C   UNL     1      42.214   6.573  18.632  0.00  0.00    +0.000 A 
ATOM     27  C   UNL     1      41.663   6.637  19.897  0.00  0.00    +0.000 A 
ATOM     28  C   UNL     1      40.313   6.455  20.018  0.00  0.00    +0.000 A 
ATOM     29  C   UNL     1      39.496   6.212  18.930  0.00  0.00    +0.000 A 
BRANCH  27  30
ATOM     30  O   UNL     1      42.439   6.878  21.026  0.00  0.00    +0.000 OA
ATOM     31  C   UNL     1      43.825   7.151  20.929  0.00  0.00    +0.000 C 
ENDBRANCH  27  30
ENDBRANCH  23  24
ENDBRANCH  20  21
ENDBRANCH  19  20
ENDBRANCH   6  19
TORSDOF 7
ENDMDL
MODEL 4
REMARK VINA RESULT:      -8.2      2.878      7.492
REMARK  Name = 
REMARK  7 active torsions:
REMARK  status: ('A' for Active; 'I' for Inactive)
REMARK    1  A    between atoms: C_2  and  C_3
REMARK    2  A    between atoms: C_8  and  S_9
REMARK    3  A    between atoms: S_9  and  C_10
REMARK    4  A    between atoms: C_10  and  C_11
REMARK    5  A    between atoms: N_13  and  C_14
REMARK    6  A    between atoms: C_17  and  O_18
REMARK    7  A    between atoms: C_23  and  C_24
REMARK                            x       y       z     vdW  Elec       q    Type
REMARK                         _______ _______ _______ _____ _____    ______ ____
ROOT
ATOM      1  C   UNL     1      38.162   2.741  12.861  0.00  0.00    +0.000 A 
ATOM      2  C   UNL     1      37.472   1.844  12.083  0.00  0.00    +0.000 A 
ATOM      3  C   UNL     1      36.483   1.099  12.666  0.00  0.00    +0.000 A 
ATOM      4  C   UNL     1      36.212   1.273  14.007  0.00  0.00    +0.000 A 
ATOM      5  C   UNL     1      36.900   2.171  14.793  0.00  0.00    +0.000 A 
ATOM      6  C   UNL     1      36.593   2.312  16.135  0.00  0.00    +0.000 A 
ATOM      7  N   UNL     1      37.286   3.193  16.859  0.00  0.00    +0.000 NA
ATOM      8  C   UNL     1      38.265   3.933  16.297  0.00  0.00    +0.000 A 
ATOM      9  N   UNL     1      38.548   3.783  14.993  0.00  0.00    +0.000 NA
ATOM     10  C   UNL     1      37.901   2.922  14.197  0.00  0.00    +0.000 A 
ENDROOT
BRANCH   8  11
ATOM     11  C   UNL     1      39.053   4.885  17.061  0.00  0.00    +0.000 A 
ATOM     12  C   UNL     1      40.042   5.672  16.490  0.00  0.00    +0.000 A 
ATOM     13  C   UNL     1      40.760   6.556  17.260  0.00  0.00    +0.000 A 
ATOM     14  C   UNL     1      40.542   6.706  18.616  0.00  0.00    +0.000 A 
ATOM     15  C   UNL     1      39.564   5.927  19.185  0.00  0.00    +0.000 A 
ATOM     16  C   UNL     1      38.838   5.037  18.426  0.00  0.00    +0.000 A 
ENDBRANCH   8  11
BRANCH   1  18
ATOM     17  C   UNL     1      38.945   3.560  10.743  0.00  0.00    +0.000 C 
ATOM     18  C   UNL     1      39.235   3.553  12.240  0.00  0.00    +0.000 C 
ENDBRANCH   1  18
BRANCH   6  19
ATOM     19  S   UNL     1      35.295   1.263  16.768  0.00  0.00    +0.000 S 
BRANCH  19  20
ATOM     20  C   UNL     1      36.000  -0.264  17.451  0.00  0.00    +0.000 C 
BRANCH  20  21
ATOM     21  C   UNL     1      36.918  -0.917  16.466  0.00  0.00    +0.000 C 
ATOM     22  O   UNL     1      36.408  -1.746  15.673  0.00  0.00    +0.000 OA
ATOM     23  N   UNL     1      38.288  -0.662  16.379  0.00  0.00    +0.000 NA
BRANCH  23  24
ATOM     24  C   UNL     1      39.199  -1.252  15.463  0.00  0.00    +0.000 A 
ATOM     25  C   UNL     1      39.860  -2.430  15.640  0.00  0.00    +0.000 A 
ATOM     26  C   UNL     1      40.744  -2.962  14.699  0.00  0.00    +0.000 A 
ATOM     27  C   UNL     1      40.974  -2.272  13.524  0.00  0.00    +0.000 A 
ATOM     28  C   UNL     1      40.316  -1.088  13.336  0.00  0.00    +0.000 A 
ATOM     29  C   UNL     1      39.442  -0.569  14.272  0.00  0.00    +0.000 A 
BRANCH  27  30
ATOM     30  O   UNL     1      41.844  -2.750  12.550  0.00  0.00    +0.000 OA
ATOM     31  C   UNL     1      43.194  -3.059  12.847  0.00  0.00    +0.000 C 
ENDBRANCH  27  30
ENDBRANCH  23  24
ENDBRANCH  20  21
ENDBRANCH  19  20
ENDBRANCH   6  19
TORSDOF 7
ENDMDL
MODEL 5
REMARK VINA RESULT:      -7.9      1.949      4.276
REMARK  Name = 
REMARK  7 active torsions:
REMARK  status: ('A' for Active; 'I' for Inactive)
REMARK    1  A    between atoms: C_2  and  C_3
REMARK    2  A    between atoms: C_8  and  S_9
REMARK    3  A    between atoms: S_9  and  C_10
REMARK    4  A    between atoms: C_10  and  C_11
REMARK    5  A    between atoms: N_13  and  C_14
REMARK    6  A    between atoms: C_17  and  O_18
REMARK    7  A    between atoms: C_23  and  C_24
REMARK                            x       y       z     vdW  Elec       q    Type
REMARK                         _______ _______ _______ _____ _____    ______ ____
ROOT
ATOM      1  C   UNL     1      40.632  -0.766  13.799  0.00  0.00    +0.000 A 
ATOM      2  C   UNL     1      40.754  -0.054  12.631  0.00  0.00    +0.000 A 
ATOM      3  C   UNL     1      39.758   0.823  12.294  0.00  0.00    +0.000 A 
ATOM      4  C   UNL     1      38.672   0.962  13.133  0.00  0.00    +0.000 A 
ATOM      5  C   UNL     1      38.544   0.250  14.304  0.00  0.00    +0.000 A 
ATOM      6  C   UNL     1      37.435   0.423  15.115  0.00  0.00    +0.000 A 
ATOM      7  N   UNL     1      37.351  -0.288  16.242  0.00  0.00    +0.000 NA
ATOM      8  C   UNL     1      38.326  -1.158  16.585  0.00  0.00    +0.000 A 
ATOM      9  N   UNL     1      39.394  -1.311  15.786  0.00  0.00    +0.000 NA
ATOM     10  C   UNL     1      39.555  -0.636  14.640  0.00  0.00    +0.000 A 
ENDROOT
BRANCH   8  11
ATOM     11  C   UNL     1      38.255  -1.963  17.793  0.00  0.00    +0.000 A 
ATOM     12  C   UNL     1      37.627  -1.529  18.950  0.00  0.00    +0.000 A 
ATOM     13  C   UNL     1      37.592  -2.331  20.066  0.00  0.00    +0.000 A 
ATOM     14  C   UNL     1      38.168  -3.587  20.096  0.00  0.00    +0.000 A 
ATOM     15  C   UNL     1      38.792  -4.019  18.951  0.00  0.00    +0.000 A 
ATOM     16  C   UNL     1      38.836  -3.226  17.827  0.00  0.00    +0.000 A 
ENDBRANCH   8  11
BRANCH   1  18
ATOM     17  C   UNL     1      41.531  -2.929  13.265  0.00  0.00    +0.000 C 
ATOM     18  C   UNL     1      41.704  -1.718  14.174  0.00  0.00    +0.000 C 
ENDBRANCH   1  18
BRANCH   6  19
ATOM     19  S   UNL     1      36.204   1.582  14.543  0.00  0.00    +0.000 S 
BRANCH  19  20
ATOM     20  C   UNL     1      35.611   2.599  15.925  0.00  0.00    +0.000 C 
BRANCH  20  21
ATOM     21  C   UNL     1      36.757   3.200  16.677  0.00  0.00    +0.000 C 
ATOM     22  O   UNL     1      37.118   2.616  17.728  0.00  0.00    +0.000 OA
ATOM     23  N   UNL     1      37.437   4.354  16.284  0.00  0.00    +0.000 NA
BRANCH  23  24
ATOM     24  C   UNL     1      38.529   4.961  16.960  0.00  0.00    +0.000 A 
ATOM     25  C   UNL     1      38.643   5.124  18.308  0.00  0.00    +0.000 A 
ATOM     26  C   UNL     1      39.746   5.728  18.916  0.00  0.00    +0.000 A 
ATOM     27  C   UNL     1      40.782   6.191  18.128  0.00  0.00    +0.000 A 
ATOM     28  C   UNL     1      40.676   6.033  16.773  0.00  0.00    +0.000 A 
ATOM     29  C   UNL     1      39.583   5.433  16.179  0.00  0.00    +0.000 A 
BRANCH  27  30
ATOM     30  O   UNL     1      41.905   6.802  18.675  0.00  0.00    +0.000 OA
ATOM     31  C   UNL     1      42.043   6.987  20.072  0.00  0.00    +0.000 C 
ENDBRANCH  27  30
ENDBRANCH  23  24
ENDBRANCH  20  21
ENDBRANCH  19  20
ENDBRANCH   6  19
TORSDOF 7
ENDMDL
MODEL 6
REMARK VINA RESULT:      -7.9      3.047      7.516
REMARK  Name = 
REMARK  7 active torsions:
REMARK  status: ('A' for Active; 'I' for Inactive)
REMARK    1  A    between atoms: C_2  and  C_3
REMARK    2  A    between atoms: C_8  and  S_9
REMARK    3  A    between atoms: S_9  and  C_10
REMARK    4  A    between atoms: C_10  and  C_11
REMARK    5  A    between atoms: N_13  and  C_14
REMARK    6  A    between atoms: C_17  and  O_18
REMARK    7  A    between atoms: C_23  and  C_24
REMARK                            x       y       z     vdW  Elec       q    Type
REMARK                         _______ _______ _______ _____ _____    ______ ____
ROOT
ATOM      1  C   UNL     1      38.673   5.488  17.372  0.00  0.00    +0.000 A 
ATOM      2  C   UNL     1      39.145   6.686  16.896  0.00  0.00    +0.000 A 
ATOM      3  C   UNL     1      38.737   7.102  15.657  0.00  0.00    +0.000 A 
ATOM      4  C   UNL     1      37.871   6.311  14.933  0.00  0.00    +0.000 A 
ATOM      5  C   UNL     1      37.394   5.109  15.405  0.00  0.00    +0.000 A 
ATOM      6  C   UNL     1      36.524   4.348  14.642  0.00  0.00    +0.000 A 
ATOM      7  N   UNL     1      36.087   3.189  15.139  0.00  0.00    +0.000 NA
ATOM      8  C   UNL     1      36.482   2.765  16.358  0.00  0.00    +0.000 A 
ATOM      9  N   UNL     1      37.325   3.518  17.084  0.00  0.00    +0.000 NA
ATOM     10  C   UNL     1      37.810   4.692  16.660  0.00  0.00    +0.000 A 
ENDROOT
BRANCH   8  11
ATOM     11  C   UNL     1      36.043   1.499  16.919  0.00  0.00    +0.000 A 
ATOM     12  C   UNL     1      36.146   1.199  18.268  0.00  0.00    +0.000 A 
ATOM     13  C   UNL     1      35.717  -0.017  18.747  0.00  0.00    +0.000 A 
ATOM     14  C   UNL     1      35.172  -0.986  17.927  0.00  0.00    +0.000 A 
ATOM     15  C   UNL     1      35.070  -0.692  16.588  0.00  0.00    +0.000 A 
ATOM     16  C   UNL     1      35.496   0.520  16.096  0.00  0.00    +0.000 A 
ENDBRANCH   8  11
BRANCH   1  18
ATOM     17  C   UNL     1      39.956   6.153  19.290  0.00  0.00    +0.000 C 
ATOM     18  C   UNL     1      39.107   5.027  18.712  0.00  0.00    +0.000 C 
ENDBRANCH   1  18
BRANCH   6  19
ATOM     19  S   UNL     1      36.093   5.001  13.038  0.00  0.00    +0.000 S 
BRANCH  19  20
ATOM     20  C   UNL     1      37.213   4.341  11.771  0.00  0.00    +0.000 C 
BRANCH  20  21
ATOM     21  C   UNL     1      37.804   3.037  12.206  0.00  0.00    +0.000 C 
ATOM     22  O   UNL     1      37.254   1.991  11.780  0.00  0.00    +0.000 OA
ATOM     23  N   UNL     1      38.913   2.917  13.044  0.00  0.00    +0.000 NA
BRANCH  23  24
ATOM     24  C   UNL     1      39.511   1.705  13.483  0.00  0.00    +0.000 A 
ATOM     25  C   UNL     1      39.031   0.885  14.459  0.00  0.00    +0.000 A 
ATOM     26  C   UNL     1      39.665  -0.298  14.846  0.00  0.00    +0.000 A 
ATOM     27  C   UNL     1      40.838  -0.671  14.220  0.00  0.00    +0.000 A 
ATOM     28  C   UNL     1      41.329   0.146  13.239  0.00  0.00    +0.000 A 
ATOM     29  C   UNL     1      40.696   1.314  12.860  0.00  0.00    +0.000 A 
BRANCH  27  30
ATOM     30  O   UNL     1      41.515  -1.837  14.562  0.00  0.00    +0.000 OA
ATOM     31  C   UNL     1      40.824  -3.002  14.976  0.00  0.00    +0.000 C 
ENDBRANCH  27  30
ENDBRANCH  23  24
ENDBRANCH  20  21
ENDBRANCH  19  20
ENDBRANCH   6  19
TORSDOF 7
ENDMDL
MODEL 7
REMARK VINA RESULT:      -7.7      4.008      7.242
REMARK  Name = 
REMARK  7 active torsions:
REMARK  status: ('A' for Active; 'I' for Inactive)
REMARK    1  A    between atoms: C_2  and  C_3
REMARK    2  A    between atoms: C_8  and  S_9
REMARK    3  A    between atoms: S_9  and  C_10
REMARK    4  A    between atoms: C_10  and  C_11
REMARK    5  A    between atoms: N_13  and  C_14
REMARK    6  A    between atoms: C_17  and  O_18
REMARK    7  A    between atoms: C_23  and  C_24
REMARK                            x       y       z     vdW  Elec       q    Type
REMARK                         _______ _______ _______ _____ _____    ______ ____
ROOT
ATOM      1  C   UNL     1      39.005   5.269  17.064  0.00  0.00    +0.000 A 
ATOM      2  C   UNL     1      39.671   6.416  16.710  0.00  0.00    +0.000 A 
ATOM      3  C   UNL     1      39.702   6.773  15.389  0.00  0.00    +0.000 A 
ATOM      4  C   UNL     1      39.066   5.974  14.462  0.00  0.00    +0.000 A 
ATOM      5  C   UNL     1      38.396   4.823  14.809  0.00  0.00    +0.000 A 
ATOM      6  C   UNL     1      37.772   4.053  13.844  0.00  0.00    +0.000 A 
ATOM      7  N   UNL     1      37.134   2.944  14.226  0.00  0.00    +0.000 NA
ATOM      8  C   UNL     1      37.098   2.579  15.526  0.00  0.00    +0.000 A 
ATOM      9  N   UNL     1      37.709   3.340  16.448  0.00  0.00    +0.000 NA
ATOM     10  C   UNL     1      38.369   4.467  16.149  0.00  0.00    +0.000 A 
ENDROOT
BRANCH   8  11
ATOM     11  C   UNL     1      36.432   1.367  15.972  0.00  0.00    +0.000 A 
ATOM     12  C   UNL     1      36.509   0.169  15.280  0.00  0.00    +0.000 A 
ATOM     13  C   UNL     1      35.858  -0.948  15.746  0.00  0.00    +0.000 A 
ATOM     14  C   UNL     1      35.106  -0.939  16.905  0.00  0.00    +0.000 A 
ATOM     15  C   UNL     1      35.027   0.248  17.594  0.00  0.00    +0.000 A 
ATOM     16  C   UNL     1      35.673   1.374  17.138  0.00  0.00    +0.000 A 
ENDBRANCH   8  11
BRANCH   1  18
ATOM     17  C   UNL     1      39.453   6.084  19.278  0.00  0.00    +0.000 C 
ATOM     18  C   UNL     1      38.965   4.873  18.491  0.00  0.00    +0.000 C 
ENDBRANCH   1  18
BRANCH   6  19
ATOM     19  S   UNL     1      37.909   4.625  12.158  0.00  0.00    +0.000 S 
BRANCH  19  20
ATOM     20  C   UNL     1      36.370   5.439  11.646  0.00  0.00    +0.000 C 
BRANCH  20  21
ATOM     21  C   UNL     1      35.724   6.138  12.800  0.00  0.00    +0.000 C 
ATOM     22  O   UNL     1      34.863   5.493  13.448  0.00  0.00    +0.000 OA
ATOM     23  N   UNL     1      36.017   7.445  13.192  0.00  0.00    +0.000 NA
BRANCH  23  24
ATOM     24  C   UNL     1      35.435   8.150  14.279  0.00  0.00    +0.000 A 
ATOM     25  C   UNL     1      34.106   8.395  14.453  0.00  0.00    +0.000 A 
ATOM     26  C   UNL     1      33.592   9.094  15.547  0.00  0.00    +0.000 A 
ATOM     27  C   UNL     1      34.459   9.570  16.511  0.00  0.00    +0.000 A 
ATOM     28  C   UNL     1      35.795   9.331  16.346  0.00  0.00    +0.000 A 
ATOM     29  C   UNL     1      36.297   8.637  15.262  0.00  0.00    +0.000 A 
BRANCH  27  30
ATOM     30  O   UNL     1      34.007  10.274  17.622  0.00  0.00    +0.000 OA
ATOM     31  C   UNL     1      32.650  10.232  18.026  0.00  0.00    +0.000 C 
ENDBRANCH  27  30
ENDBRANCH  23  24
ENDBRANCH  20  21
ENDBRANCH  19  20
ENDBRANCH   6  19
TORSDOF 7
ENDMDL
MODEL 8
REMARK VINA RESULT:      -7.7      2.910      8.358
REMARK  Name = 
REMARK  7 active torsions:
REMARK  status: ('A' for Active; 'I' for Inactive)
REMARK    1  A    between atoms: C_2  and  C_3
REMARK    2  A    between atoms: C_8  and  S_9
REMARK    3  A    between atoms: S_9  and  C_10
REMARK    4  A    between atoms: C_10  and  C_11
REMARK    5  A    between atoms: N_13  and  C_14
REMARK    6  A    between atoms: C_17  and  O_18
REMARK    7  A    between atoms: C_23  and  C_24
REMARK                            x       y       z     vdW  Elec       q    Type
REMARK                         _______ _______ _______ _____ _____    ______ ____
ROOT
ATOM      1  C   UNL     1      40.592   4.599  13.652  0.00  0.00    +0.000 A 
ATOM      2  C   UNL     1      40.428   3.916  12.472  0.00  0.00    +0.000 A 
ATOM      3  C   UNL     1      39.238   3.278  12.247  0.00  0.00    +0.000 A 
ATOM      4  C   UNL     1      38.248   3.343  13.205  0.00  0.00    +0.000 A 
ATOM      5  C   UNL     1      38.407   4.025  14.390  0.00  0.00    +0.000 A 
ATOM      6  C   UNL     1      37.385   4.063  15.323  0.00  0.00    +0.000 A 
ATOM      7  N   UNL     1      37.582   4.737  16.459  0.00  0.00    +0.000 NA
ATOM      8  C   UNL     1      38.751   5.369  16.695  0.00  0.00    +0.000 A 
ATOM      9  N   UNL     1      39.731   5.322  15.777  0.00  0.00    +0.000 NA
ATOM     10  C   UNL     1      39.614   4.669  14.613  0.00  0.00    +0.000 A 
ENDROOT
BRANCH   8  11
ATOM     11  C   UNL     1      39.007   6.092  17.929  0.00  0.00    +0.000 A 
ATOM     12  C   UNL     1      40.049   5.772  18.785  0.00  0.00    +0.000 A 
ATOM     13  C   UNL     1      40.245   6.488  19.942  0.00  0.00    +0.000 A 
ATOM     14  C   UNL     1      39.431   7.542  20.309  0.00  0.00    +0.000 A 
ATOM     15  C   UNL     1      38.396   7.861  19.463  0.00  0.00    +0.000 A 
ATOM     16  C   UNL     1      38.188   7.152  18.302  0.00  0.00    +0.000 A 
ENDBRANCH   8  11
BRANCH   1  18
ATOM     17  C   UNL     1      42.684   5.172  12.619  0.00  0.00    +0.000 C 
ATOM     18  C   UNL     1      41.876   5.293  13.906  0.00  0.00    +0.000 C 
ENDBRANCH   1  18
BRANCH   6  19
ATOM     19  S   UNL     1      35.896   3.170  14.908  0.00  0.00    +0.000 S 
BRANCH  19  20
ATOM     20  C   UNL     1      35.179   2.421  16.398  0.00  0.00    +0.000 C 
BRANCH  20  21
ATOM     21  C   UNL     1      36.080   1.362  16.951  0.00  0.00    +0.000 C 
ATOM     22  O   UNL     1      36.799   1.678  17.930  0.00  0.00    +0.000 OA
ATOM     23  N   UNL     1      36.167   0.062  16.449  0.00  0.00    +0.000 NA
BRANCH  23  24
ATOM     24  C   UNL     1      37.002  -0.977  16.938  0.00  0.00    +0.000 A 
ATOM     25  C   UNL     1      38.040  -1.551  16.267  0.00  0.00    +0.000 A 
ATOM     26  C   UNL     1      38.829  -2.571  16.803  0.00  0.00    +0.000 A 
ATOM     27  C   UNL     1      38.559  -3.034  18.076  0.00  0.00    +0.000 A 
ATOM     28  C   UNL     1      37.520  -2.465  18.759  0.00  0.00    +0.000 A 
ATOM     29  C   UNL     1      36.743  -1.456  18.222  0.00  0.00    +0.000 A 
BRANCH  27  30
ATOM     30  O   UNL     1      39.309  -4.047  18.664  0.00  0.00    +0.000 OA
ATOM     31  C   UNL     1      38.906  -4.663  19.874  0.00  0.00    +0.000 C 
ENDBRANCH  27  30
ENDBRANCH  23  24
ENDBRANCH  20  21
ENDBRANCH  19  20
ENDBRANCH   6  19
TORSDOF 7
ENDMDL
MODEL 9
REMARK VINA RESULT:      -7.7      3.720      6.255
REMARK  Name = 
REMARK  7 active torsions:
REMARK  status: ('A' for Active; 'I' for Inactive)
REMARK    1  A    between atoms: C_2  and  C_3
REMARK    2  A    between atoms: C_8  and  S_9
REMARK    3  A    between atoms: S_9  and  C_10
REMARK    4  A    between atoms: C_10  and  C_11
REMARK    5  A    between atoms: N_13  and  C_14
REMARK    6  A    between atoms: C_17  and  O_18
REMARK    7  A    between atoms: C_23  and  C_24
REMARK                            x       y       z     vdW  Elec       q    Type
REMARK                         _______ _______ _______ _____ _____    ______ ____
ROOT
ATOM      1  C   UNL     1      35.598   2.155  15.330  0.00  0.00    +0.000 A 
ATOM      2  C   UNL     1      34.988   1.972  16.546  0.00  0.00    +0.000 A 
ATOM      3  C   UNL     1      34.922   0.704  17.060  0.00  0.00    +0.000 A 
ATOM      4  C   UNL     1      35.467  -0.341  16.343  0.00  0.00    +0.000 A 
ATOM      5  C   UNL     1      36.079  -0.164  15.124  0.00  0.00    +0.000 A 
ATOM      6  C   UNL     1      36.613  -1.243  14.441  0.00  0.00    +0.000 A 
ATOM      7  N   UNL     1      37.198  -1.026  13.260  0.00  0.00    +0.000 NA
ATOM      8  C   UNL     1      37.269   0.219  12.742  0.00  0.00    +0.000 A 
ATOM      9  N   UNL     1      36.746   1.253  13.420  0.00  0.00    +0.000 NA
ATOM     10  C   UNL     1      36.144   1.122  14.609  0.00  0.00    +0.000 A 
ENDROOT
BRANCH   8  11
ATOM     11  C   UNL     1      37.878   0.487  11.450  0.00  0.00    +0.000 A 
ATOM     12  C   UNL     1      37.303   1.325  10.508  0.00  0.00    +0.000 A 
ATOM     13  C   UNL     1      37.921   1.542   9.300  0.00  0.00    +0.000 A 
ATOM     14  C   UNL     1      39.124   0.950   8.964  0.00  0.00    +0.000 A 
ATOM     15  C   UNL     1      39.696   0.118   9.896  0.00  0.00    +0.000 A 
ATOM     16  C   UNL     1      39.087  -0.110  11.109  0.00  0.00    +0.000 A 
ENDBRANCH   8  11
BRANCH   1  18
ATOM     17  C   UNL     1      36.902   4.171  15.398  0.00  0.00    +0.000 C 
ATOM     18  C   UNL     1      35.676   3.522  14.765  0.00  0.00    +0.000 C 
ENDBRANCH   1  18
BRANCH   6  19
ATOM     19  S   UNL     1      36.437  -2.841  15.216  0.00  0.00    +0.000 S 
BRANCH  19  20
ATOM     20  C   UNL     1      37.965  -3.286  16.090  0.00  0.00    +0.000 C 
BRANCH  20  21
ATOM     21  C   UNL     1      39.048  -2.292  15.812  0.00  0.00    +0.000 C 
ATOM     22  O   UNL     1      39.123  -1.300  16.578  0.00  0.00    +0.000 OA
ATOM     23  N   UNL     1      39.967  -2.401  14.767  0.00  0.00    +0.000 NA
BRANCH  23  24
ATOM     24  C   UNL     1      41.012  -1.488  14.464  0.00  0.00    +0.000 A 
ATOM     25  C   UNL     1      40.853  -0.196  14.063  0.00  0.00    +0.000 A 
ATOM     26  C   UNL     1      41.923   0.657  13.781  0.00  0.00    +0.000 A 
ATOM     27  C   UNL     1      43.214   0.183  13.908  0.00  0.00    +0.000 A 
ATOM     28  C   UNL     1      43.386  -1.113  14.310  0.00  0.00    +0.000 A 
ATOM     29  C   UNL     1      42.322  -1.950  14.588  0.00  0.00    +0.000 A 
BRANCH  27  30
ATOM     30  O   UNL     1      44.320   0.983  13.641  0.00  0.00    +0.000 OA
ATOM     31  C   UNL     1      45.616   0.432  13.492  0.00  0.00    +0.000 C 
ENDBRANCH  27  30
ENDBRANCH  23  24
ENDBRANCH  20  21
ENDBRANCH  19  20
ENDBRANCH   6  19
TORSDOF 7
ENDMDL
MODEL 10
REMARK VINA RESULT:      -7.7      3.700      5.331
REMARK  Name = 
REMARK  7 active torsions:
REMARK  status: ('A' for Active; 'I' for Inactive)
REMARK    1  A    between atoms: C_2  and  C_3
REMARK    2  A    between atoms: C_8  and  S_9
REMARK    3  A    between atoms: S_9  and  C_10
REMARK    4  A    between atoms: C_10  and  C_11
REMARK    5  A    between atoms: N_13  and  C_14
REMARK    6  A    between atoms: C_17  and  O_18
REMARK    7  A    between atoms: C_23  and  C_24
REMARK                            x       y       z     vdW  Elec       q    Type
REMARK                         _______ _______ _______ _____ _____    ______ ____
ROOT
ATOM      1  C   UNL     1      35.550  -3.235  15.779  0.00  0.00    +0.000 A 
ATOM      2  C   UNL     1      34.273  -3.276  16.283  0.00  0.00    +0.000 A 
ATOM      3  C   UNL     1      33.770  -2.151  16.879  0.00  0.00    +0.000 A 
ATOM      4  C   UNL     1      34.556  -1.020  16.952  0.00  0.00    +0.000 A 
ATOM      5  C   UNL     1      35.836  -0.972  16.448  0.00  0.00    +0.000 A 
ATOM      6  C   UNL     1      36.588   0.186  16.543  0.00  0.00    +0.000 A 
ATOM      7  N   UNL     1      37.826   0.187  16.042  0.00  0.00    +0.000 NA
ATOM      8  C   UNL     1      38.335  -0.917  15.453  0.00  0.00    +0.000 A 
ATOM      9  N   UNL     1      37.590  -2.031  15.369  0.00  0.00    +0.000 NA
ATOM     10  C   UNL     1      36.341  -2.115  15.846  0.00  0.00    +0.000 A 
ENDROOT
BRANCH   8  11
ATOM     11  C   UNL     1      39.685  -0.957  14.917  0.00  0.00    +0.000 A 
ATOM     12  C   UNL     1      40.326   0.164  14.412  0.00  0.00    +0.000 A 
ATOM     13  C   UNL     1      41.603   0.070  13.914  0.00  0.00    +0.000 A 
ATOM     14  C   UNL     1      42.305  -1.120  13.889  0.00  0.00    +0.000 A 
ATOM     15  C   UNL     1      41.672  -2.233  14.389  0.00  0.00    +0.000 A 
ATOM     16  C   UNL     1      40.392  -2.153  14.889  0.00  0.00    +0.000 A 
ENDBRANCH   8  11
BRANCH   1  18
ATOM     17  C   UNL     1      36.457  -5.406  16.263  0.00  0.00    +0.000 C 
ATOM     18  C   UNL     1      36.104  -4.447  15.132  0.00  0.00    +0.000 C 
ENDBRANCH   1  18
BRANCH   6  19
ATOM     19  S   UNL     1      35.816   1.571  17.363  0.00  0.00    +0.000 S 
BRANCH  19  20
ATOM     20  C   UNL     1      36.096   3.095  16.417  0.00  0.00    +0.000 C 
BRANCH  20  21
ATOM     21  C   UNL     1      36.105   2.818  14.947  0.00  0.00    +0.000 C 
ATOM     22  O   UNL     1      35.003   2.549  14.410  0.00  0.00    +0.000 OA
ATOM     23  N   UNL     1      37.250   2.841  14.149  0.00  0.00    +0.000 NA
BRANCH  23  24
ATOM     24  C   UNL     1      37.311   2.588  12.753  0.00  0.00    +0.000 A 
ATOM     25  C   UNL     1      37.327   3.531  11.770  0.00  0.00    +0.000 A 
ATOM     26  C   UNL     1      37.391   3.220  10.410  0.00  0.00    +0.000 A 
ATOM     27  C   UNL     1      37.440   1.895  10.023  0.00  0.00    +0.000 A 
ATOM     28  C   UNL     1      37.424   0.939  11.001  0.00  0.00    +0.000 A 
ATOM     29  C   UNL     1      37.362   1.255  12.345  0.00  0.00    +0.000 A 
BRANCH  27  30
ATOM     30  O   UNL     1      37.503   1.522   8.684  0.00  0.00    +0.000 OA
ATOM     31  C   UNL     1      38.690   0.999   8.115  0.00  0.00    +0.000 C 
ENDBRANCH  27  30
ENDBRANCH  23  24
ENDBRANCH  20  21
ENDBRANCH  19  20
ENDBRANCH   6  19
TORSDOF 7
ENDMDL
