MODEL 1
REMARK VINA RESULT:      -8.0      0.000      0.000
REMARK  Name = 
REMARK  2 active torsions:
REMARK  status: ('A' for Active; 'I' for Inactive)
REMARK    1  A    between atoms: C_2  and  N_3
REMARK    2  A    between atoms: C_6  and  C_7
REMARK                            x       y       z     vdW  Elec       q    Type
REMARK                         _______ _______ _______ _____ _____    ______ ____
ROOT
ATOM      1  C   UNL     1      16.032  11.110  33.134  0.00  0.00    +0.000 A 
ATOM      2  C   UNL     1      16.271  10.593  31.887  0.00  0.00    +0.000 A 
ATOM      3  N   UNL     1      15.552  11.304  30.965  0.00  0.00    +0.000 NA
ATOM      4  C   UNL     1      14.859  12.265  31.602  0.00  0.00    +0.000 A 
ATOM      5  C   UNL     1      13.983  13.260  31.196  0.00  0.00    +0.000 A 
ATOM      6  C   UNL     1      13.422  14.113  32.119  0.00  0.00    +0.000 A 
ATOM      7  C   UNL     1      13.702  14.009  33.442  0.00  0.00    +0.000 A 
ATOM      8  C   UNL     1      13.132  14.892  34.484  0.00  0.00    +0.000 C 
ATOM      9  C   UNL     1      14.580  13.011  33.842  0.00  0.00    +0.000 A 
ATOM     10  C   UNL     1      15.158  12.142  32.942  0.00  0.00    +0.000 A 
ENDROOT
BRANCH   1  14
ATOM     11  N   UNL     1      16.343  10.621  38.071  0.00  0.00    +0.000 NA
ATOM     12  C   UNL     1      16.728  10.420  36.678  0.00  0.00    +0.000 A 
ATOM     13  N   UNL     1      16.149  10.894  35.605  0.00  0.00    +0.000 NA
ATOM     14  C   UNL     1      16.628  10.614  34.414  0.00  0.00    +0.000 A 
ATOM     15  C   UNL     1      17.752   9.807  34.398  0.00  0.00    +0.000 A 
ATOM     16  S   UNL     1      18.029   9.520  36.050  0.00  0.00    +0.000 S 
BRANCH  11  18
ATOM     17  C   UNL     1      16.294   9.660  40.252  0.00  0.00    +0.000 C 
ATOM     18  C   UNL     1      17.173   9.972  39.055  0.00  0.00    +0.000 C 
ENDBRANCH  11  18
ENDBRANCH   1  14
TORSDOF 2
ENDMDL
MODEL 2
REMARK VINA RESULT:      -6.8     27.532     29.564
REMARK  Name = 
REMARK  2 active torsions:
REMARK  status: ('A' for Active; 'I' for Inactive)
REMARK    1  A    between atoms: C_2  and  N_3
REMARK    2  A    between atoms: C_6  and  C_7
REMARK                            x       y       z     vdW  Elec       q    Type
REMARK                         _______ _______ _______ _____ _____    ______ ____
ROOT
ATOM      1  C   UNL     1      29.651  22.058  11.498  0.00  0.00    +0.000 A 
ATOM      2  C   UNL     1      28.733  21.430  10.697  0.00  0.00    +0.000 A 
ATOM      3  N   UNL     1      27.481  21.881  11.016  0.00  0.00    +0.000 NA
ATOM      4  C   UNL     1      27.583  22.785  12.007  0.00  0.00    +0.000 A 
ATOM      5  C   UNL     1      26.674  23.554  12.717  0.00  0.00    +0.000 A 
ATOM      6  C   UNL     1      27.107  24.412  13.701  0.00  0.00    +0.000 A 
ATOM      7  C   UNL     1      28.423  24.532  14.008  0.00  0.00    +0.000 A 
ATOM      8  C   UNL     1      28.952  25.435  15.054  0.00  0.00    +0.000 C 
ATOM      9  C   UNL     1      29.328  23.760  13.294  0.00  0.00    +0.000 A 
ATOM     10  C   UNL     1      28.925  22.892  12.302  0.00  0.00    +0.000 A 
ENDROOT
BRANCH   1  14
ATOM     11  N   UNL     1      34.344  23.186  10.314  0.00  0.00    +0.000 NA
ATOM     12  C   UNL     1      33.262  22.403  10.899  0.00  0.00    +0.000 A 
ATOM     13  N   UNL     1      31.979  22.662  10.884  0.00  0.00    +0.000 NA
ATOM     14  C   UNL     1      31.131  21.844  11.465  0.00  0.00    +0.000 A 
ATOM     15  C   UNL     1      31.691  20.732  12.068  0.00  0.00    +0.000 A 
ATOM     16  S   UNL     1      33.351  20.939  11.763  0.00  0.00    +0.000 S 
BRANCH  11  18
ATOM     17  C   UNL     1      36.571  23.809  10.892  0.00  0.00    +0.000 C 
ATOM     18  C   UNL     1      35.673  22.655  10.487  0.00  0.00    +0.000 C 
ENDBRANCH  11  18
ENDBRANCH   1  14
TORSDOF 2
ENDMDL
MODEL 3
REMARK VINA RESULT:      -6.5     22.522     24.372
REMARK  Name = 
REMARK  2 active torsions:
REMARK  status: ('A' for Active; 'I' for Inactive)
REMARK    1  A    between atoms: C_2  and  N_3
REMARK    2  A    between atoms: C_6  and  C_7
REMARK                            x       y       z     vdW  Elec       q    Type
REMARK                         _______ _______ _______ _____ _____    ______ ____
ROOT
ATOM      1  C   UNL     1      28.827  24.753  22.034  0.00  0.00    +0.000 A 
ATOM      2  C   UNL     1      27.673  24.013  21.994  0.00  0.00    +0.000 A 
ATOM      3  N   UNL     1      27.733  23.043  22.958  0.00  0.00    +0.000 NA
ATOM      4  C   UNL     1      28.904  23.152  23.612  0.00  0.00    +0.000 A 
ATOM      5  C   UNL     1      29.500  22.461  24.656  0.00  0.00    +0.000 A 
ATOM      6  C   UNL     1      30.746  22.828  25.112  0.00  0.00    +0.000 A 
ATOM      7  C   UNL     1      31.425  23.864  24.561  0.00  0.00    +0.000 A 
ATOM      8  C   UNL     1      32.766  24.308  25.004  0.00  0.00    +0.000 C 
ATOM      9  C   UNL     1      30.823  24.552  23.517  0.00  0.00    +0.000 A 
ATOM     10  C   UNL     1      29.577  24.208  23.038  0.00  0.00    +0.000 A 
ENDROOT
BRANCH   1  14
ATOM     11  N   UNL     1      30.740  26.932  17.997  0.00  0.00    +0.000 NA
ATOM     12  C   UNL     1      30.045  26.859  19.277  0.00  0.00    +0.000 A 
ATOM     13  N   UNL     1      29.798  25.798  20.002  0.00  0.00    +0.000 NA
ATOM     14  C   UNL     1      29.154  25.909  21.142  0.00  0.00    +0.000 A 
ATOM     15  C   UNL     1      28.777  27.193  21.492  0.00  0.00    +0.000 A 
ATOM     16  S   UNL     1      29.361  28.121  20.193  0.00  0.00    +0.000 S 
BRANCH  11  18
ATOM     17  C   UNL     1      32.274  28.735  17.719  0.00  0.00    +0.000 C 
ATOM     18  C   UNL     1      30.869  28.247  17.423  0.00  0.00    +0.000 C 
ENDBRANCH  11  18
ENDBRANCH   1  14
TORSDOF 2
ENDMDL
MODEL 4
REMARK VINA RESULT:      -6.3     21.655     24.102
REMARK  Name = 
REMARK  2 active torsions:
REMARK  status: ('A' for Active; 'I' for Inactive)
REMARK    1  A    between atoms: C_2  and  N_3
REMARK    2  A    between atoms: C_6  and  C_7
REMARK                            x       y       z     vdW  Elec       q    Type
REMARK                         _______ _______ _______ _____ _____    ______ ____
ROOT
ATOM      1  C   UNL     1      33.238  -3.996  33.879  0.00  0.00    +0.000 A 
ATOM      2  C   UNL     1      32.613  -4.506  34.988  0.00  0.00    +0.000 A 
ATOM      3  N   UNL     1      32.222  -3.471  35.794  0.00  0.00    +0.000 NA
ATOM      4  C   UNL     1      32.588  -2.311  35.220  0.00  0.00    +0.000 A 
ATOM      5  C   UNL     1      32.462  -0.974  35.567  0.00  0.00    +0.000 A 
ATOM      6  C   UNL     1      32.956   0.009  34.741  0.00  0.00    +0.000 A 
ATOM      7  C   UNL     1      33.577  -0.292  33.574  0.00  0.00    +0.000 A 
ATOM      8  C   UNL     1      34.130   0.717  32.643  0.00  0.00    +0.000 C 
ATOM      9  C   UNL     1      33.700  -1.631  33.232  0.00  0.00    +0.000 A 
ATOM     10  C   UNL     1      33.216  -2.639  34.038  0.00  0.00    +0.000 A 
ENDROOT
BRANCH   1  14
ATOM     11  N   UNL     1      33.504  -5.656  29.202  0.00  0.00    +0.000 NA
ATOM     12  C   UNL     1      33.893  -5.528  30.602  0.00  0.00    +0.000 A 
ATOM     13  N   UNL     1      33.332  -4.799  31.532  0.00  0.00    +0.000 NA
ATOM     14  C   UNL     1      33.813  -4.798  32.755  0.00  0.00    +0.000 A 
ATOM     15  C   UNL     1      34.918  -5.604  32.962  0.00  0.00    +0.000 A 
ATOM     16  S   UNL     1      35.176  -6.285  31.425  0.00  0.00    +0.000 S 
BRANCH  11  18
ATOM     17  C   UNL     1      33.597  -7.877  28.342  0.00  0.00    +0.000 C 
ATOM     18  C   UNL     1      34.312  -6.540  28.401  0.00  0.00    +0.000 C 
ENDBRANCH  11  18
ENDBRANCH   1  14
TORSDOF 2
ENDMDL
MODEL 5
REMARK VINA RESULT:      -6.3      2.479      7.202
REMARK  Name = 
REMARK  2 active torsions:
REMARK  status: ('A' for Active; 'I' for Inactive)
REMARK    1  A    between atoms: C_2  and  N_3
REMARK    2  A    between atoms: C_6  and  C_7
REMARK                            x       y       z     vdW  Elec       q    Type
REMARK                         _______ _______ _______ _____ _____    ______ ____
ROOT
ATOM      1  C   UNL     1      18.428  10.150  37.051  0.00  0.00    +0.000 A 
ATOM      2  C   UNL     1      19.781   9.983  36.904  0.00  0.00    +0.000 A 
ATOM      3  N   UNL     1      20.310   9.567  38.096  0.00  0.00    +0.000 NA
ATOM      4  C   UNL     1      19.320   9.466  39.000  0.00  0.00    +0.000 A 
ATOM      5  C   UNL     1      19.259   9.101  40.336  0.00  0.00    +0.000 A 
ATOM      6  C   UNL     1      18.056   9.099  41.004  0.00  0.00    +0.000 A 
ATOM      7  C   UNL     1      16.902   9.451  40.385  0.00  0.00    +0.000 A 
ATOM      8  C   UNL     1      15.577   9.470  41.045  0.00  0.00    +0.000 C 
ATOM      9  C   UNL     1      16.969   9.815  39.047  0.00  0.00    +0.000 A 
ATOM     10  C   UNL     1      18.159   9.827  38.352  0.00  0.00    +0.000 A 
ENDROOT
BRANCH   1  14
ATOM     11  N   UNL     1      16.680  10.426  32.407  0.00  0.00    +0.000 NA
ATOM     12  C   UNL     1      16.720  10.692  33.841  0.00  0.00    +0.000 A 
ATOM     13  N   UNL     1      17.591  10.260  34.716  0.00  0.00    +0.000 NA
ATOM     14  C   UNL     1      17.482  10.596  35.982  0.00  0.00    +0.000 A 
ATOM     15  C   UNL     1      16.409  11.413  36.291  0.00  0.00    +0.000 A 
ATOM     16  S   UNL     1      15.658  11.631  34.782  0.00  0.00    +0.000 S 
BRANCH  11  18
ATOM     17  C   UNL     1      16.137  12.304  31.041  0.00  0.00    +0.000 C 
ATOM     18  C   UNL     1      15.595  11.039  31.682  0.00  0.00    +0.000 C 
ENDBRANCH  11  18
ENDBRANCH   1  14
TORSDOF 2
ENDMDL
MODEL 6
REMARK VINA RESULT:      -6.3      2.807      7.388
REMARK  Name = 
REMARK  2 active torsions:
REMARK  status: ('A' for Active; 'I' for Inactive)
REMARK    1  A    between atoms: C_2  and  N_3
REMARK    2  A    between atoms: C_6  and  C_7
REMARK                            x       y       z     vdW  Elec       q    Type
REMARK                         _______ _______ _______ _____ _____    ______ ____
ROOT
ATOM      1  C   UNL     1      18.030  10.127  37.160  0.00  0.00    +0.000 A 
ATOM      2  C   UNL     1      17.339  10.007  38.339  0.00  0.00    +0.000 A 
ATOM      3  N   UNL     1      18.226   9.759  39.351  0.00  0.00    +0.000 NA
ATOM      4  C   UNL     1      19.470   9.717  38.840  0.00  0.00    +0.000 A 
ATOM      5  C   UNL     1      20.732   9.508  39.374  0.00  0.00    +0.000 A 
ATOM      6  C   UNL     1      21.843   9.528  38.562  0.00  0.00    +0.000 A 
ATOM      7  C   UNL     1      21.743   9.750  37.228  0.00  0.00    +0.000 A 
ATOM      8  C   UNL     1      22.897   9.784  36.303  0.00  0.00    +0.000 C 
ATOM      9  C   UNL     1      20.477   9.959  36.700  0.00  0.00    +0.000 A 
ATOM     10  C   UNL     1      19.345   9.945  37.486  0.00  0.00    +0.000 A 
ENDROOT
BRANCH   1  14
ATOM     11  N   UNL     1      15.032  12.458  33.955  0.00  0.00    +0.000 NA
ATOM     12  C   UNL     1      16.038  11.496  34.391  0.00  0.00    +0.000 A 
ATOM     13  N   UNL     1      16.516  11.319  35.596  0.00  0.00    +0.000 NA
ATOM     14  C   UNL     1      17.427  10.399  35.818  0.00  0.00    +0.000 A 
ATOM     15  C   UNL     1      17.819   9.667  34.712  0.00  0.00    +0.000 A 
ATOM     16  S   UNL     1      16.874  10.336  33.468  0.00  0.00    +0.000 S 
BRANCH  11  18
ATOM     17  C   UNL     1      13.892  13.681  32.255  0.00  0.00    +0.000 C 
ATOM     18  C   UNL     1      14.695  12.429  32.554  0.00  0.00    +0.000 C 
ENDBRANCH  11  18
ENDBRANCH   1  14
TORSDOF 2
ENDMDL
MODEL 7
REMARK VINA RESULT:      -6.1      3.577      5.057
REMARK  Name = 
REMARK  2 active torsions:
REMARK  status: ('A' for Active; 'I' for Inactive)
REMARK    1  A    between atoms: C_2  and  N_3
REMARK    2  A    between atoms: C_6  and  C_7
REMARK                            x       y       z     vdW  Elec       q    Type
REMARK                         _______ _______ _______ _____ _____    ______ ____
ROOT
ATOM      1  C   UNL     1      16.886  10.758  38.207  0.00  0.00    +0.000 A 
ATOM      2  C   UNL     1      17.859  11.434  37.516  0.00  0.00    +0.000 A 
ATOM      3  N   UNL     1      17.264  12.273  36.614  0.00  0.00    +0.000 NA
ATOM      4  C   UNL     1      15.929  12.144  36.715  0.00  0.00    +0.000 A 
ATOM      5  C   UNL     1      14.846  12.724  36.073  0.00  0.00    +0.000 A 
ATOM      6  C   UNL     1      13.561  12.370  36.416  0.00  0.00    +0.000 A 
ATOM      7  C   UNL     1      13.313  11.451  37.381  0.00  0.00    +0.000 A 
ATOM      8  C   UNL     1      11.957  11.027  37.795  0.00  0.00    +0.000 C 
ATOM      9  C   UNL     1      14.401  10.874  38.021  0.00  0.00    +0.000 A 
ATOM     10  C   UNL     1      15.699  11.207  37.700  0.00  0.00    +0.000 A 
ENDROOT
BRANCH   1  14
ATOM     11  N   UNL     1      16.064   8.565  42.590  0.00  0.00    +0.000 NA
ATOM     12  C   UNL     1      16.708   8.777  41.299  0.00  0.00    +0.000 A 
ATOM     13  N   UNL     1      16.441   9.695  40.405  0.00  0.00    +0.000 NA
ATOM     14  C   UNL     1      17.122   9.746  39.283  0.00  0.00    +0.000 A 
ATOM     15  C   UNL     1      18.105   8.784  39.137  0.00  0.00    +0.000 A 
ATOM     16  S   UNL     1      17.981   7.901  40.585  0.00  0.00    +0.000 S 
BRANCH  11  18
ATOM     17  C   UNL     1      15.414   6.929  44.198  0.00  0.00    +0.000 C 
ATOM     18  C   UNL     1      16.570   7.466  43.374  0.00  0.00    +0.000 C 
ENDBRANCH  11  18
ENDBRANCH   1  14
TORSDOF 2
ENDMDL
MODEL 8
REMARK VINA RESULT:      -6.0      3.951      5.639
REMARK  Name = 
REMARK  2 active torsions:
REMARK  status: ('A' for Active; 'I' for Inactive)
REMARK    1  A    between atoms: C_2  and  N_3
REMARK    2  A    between atoms: C_6  and  C_7
REMARK                            x       y       z     vdW  Elec       q    Type
REMARK                         _______ _______ _______ _____ _____    ______ ____
ROOT
ATOM      1  C   UNL     1      17.396  10.420  38.491  0.00  0.00    +0.000 A 
ATOM      2  C   UNL     1      18.394  11.102  37.845  0.00  0.00    +0.000 A 
ATOM      3  N   UNL     1      17.832  12.021  37.001  0.00  0.00    +0.000 NA
ATOM      4  C   UNL     1      16.493  11.936  37.097  0.00  0.00    +0.000 A 
ATOM      5  C   UNL     1      15.433  12.599  36.496  0.00  0.00    +0.000 A 
ATOM      6  C   UNL     1      14.135  12.272  36.817  0.00  0.00    +0.000 A 
ATOM      7  C   UNL     1      13.852  11.301  37.720  0.00  0.00    +0.000 A 
ATOM      8  C   UNL     1      12.481  10.902  38.108  0.00  0.00    +0.000 C 
ATOM      9  C   UNL     1      14.917  10.641  38.318  0.00  0.00    +0.000 A 
ATOM     10  C   UNL     1      16.227  10.946  38.018  0.00  0.00    +0.000 A 
ENDROOT
BRANCH   1  14
ATOM     11  N   UNL     1      19.024   6.008  40.099  0.00  0.00    +0.000 NA
ATOM     12  C   UNL     1      18.359   7.303  40.187  0.00  0.00    +0.000 A 
ATOM     13  N   UNL     1      18.228   8.207  39.251  0.00  0.00    +0.000 NA
ATOM     14  C   UNL     1      17.593   9.330  39.498  0.00  0.00    +0.000 A 
ATOM     15  C   UNL     1      17.095   9.465  40.782  0.00  0.00    +0.000 A 
ATOM     16  S   UNL     1      17.565   8.006  41.518  0.00  0.00    +0.000 S 
BRANCH  11  18
ATOM     17  C   UNL     1      19.495   3.821  40.924  0.00  0.00    +0.000 C 
ATOM     18  C   UNL     1      19.014   5.210  41.300  0.00  0.00    +0.000 C 
ENDBRANCH  11  18
ENDBRANCH   1  14
TORSDOF 2
ENDMDL
MODEL 9
REMARK VINA RESULT:      -6.0     20.220     21.957
REMARK  Name = 
REMARK  2 active torsions:
REMARK  status: ('A' for Active; 'I' for Inactive)
REMARK    1  A    between atoms: C_2  and  N_3
REMARK    2  A    between atoms: C_6  and  C_7
REMARK                            x       y       z     vdW  Elec       q    Type
REMARK                         _______ _______ _______ _____ _____    ______ ____
ROOT
ATOM      1  C   UNL     1      18.005  -7.819  27.285  0.00  0.00    +0.000 A 
ATOM      2  C   UNL     1      17.369  -6.606  27.210  0.00  0.00    +0.000 A 
ATOM      3  N   UNL     1      18.162  -5.730  26.520  0.00  0.00    +0.000 NA
ATOM      4  C   UNL     1      19.292  -6.361  26.154  0.00  0.00    +0.000 A 
ATOM      5  C   UNL     1      20.430  -5.987  25.455  0.00  0.00    +0.000 A 
ATOM      6  C   UNL     1      21.443  -6.892  25.238  0.00  0.00    +0.000 A 
ATOM      7  C   UNL     1      21.365  -8.166  25.697  0.00  0.00    +0.000 A 
ATOM      8  C   UNL     1      22.418  -9.186  25.498  0.00  0.00    +0.000 C 
ATOM      9  C   UNL     1      20.224  -8.534  26.395  0.00  0.00    +0.000 A 
ATOM     10  C   UNL     1      19.192  -7.651  26.629  0.00  0.00    +0.000 A 
ENDROOT
BRANCH   1  14
ATOM     11  N   UNL     1      17.415 -10.989  31.067  0.00  0.00    +0.000 NA
ATOM     12  C   UNL     1      17.233 -10.464  29.718  0.00  0.00    +0.000 A 
ATOM     13  N   UNL     1      17.739  -9.374  29.202  0.00  0.00    +0.000 NA
ATOM     14  C   UNL     1      17.473  -9.044  27.958  0.00  0.00    +0.000 A 
ATOM     15  C   UNL     1      16.645  -9.916  27.274  0.00  0.00    +0.000 A 
ATOM     16  S   UNL     1      16.320 -11.112  28.437  0.00  0.00    +0.000 S 
BRANCH  11  18
ATOM     17  C   UNL     1      16.262 -12.145  32.804  0.00  0.00    +0.000 C 
ATOM     18  C   UNL     1      16.730 -12.222  31.363  0.00  0.00    +0.000 C 
ENDBRANCH  11  18
ENDBRANCH   1  14
TORSDOF 2
ENDMDL
MODEL 10
REMARK VINA RESULT:      -5.8     20.476     22.365
REMARK  Name = 
REMARK  2 active torsions:
REMARK  status: ('A' for Active; 'I' for Inactive)
REMARK    1  A    between atoms: C_2  and  N_3
REMARK    2  A    between atoms: C_6  and  C_7
REMARK                            x       y       z     vdW  Elec       q    Type
REMARK                         _______ _______ _______ _____ _____    ______ ____
ROOT
ATOM      1  C   UNL     1      17.958  -7.843  27.250  0.00  0.00    +0.000 A 
ATOM      2  C   UNL     1      17.338  -6.622  27.184  0.00  0.00    +0.000 A 
ATOM      3  N   UNL     1      18.150  -5.745  26.517  0.00  0.00    +0.000 NA
ATOM      4  C   UNL     1      19.278  -6.385  26.158  0.00  0.00    +0.000 A 
ATOM      5  C   UNL     1      20.429  -6.015  25.480  0.00  0.00    +0.000 A 
ATOM      6  C   UNL     1      21.434  -6.929  25.264  0.00  0.00    +0.000 A 
ATOM      7  C   UNL     1      21.335  -8.208  25.703  0.00  0.00    +0.000 A 
ATOM      8  C   UNL     1      22.378  -9.238  25.504  0.00  0.00    +0.000 C 
ATOM      9  C   UNL     1      20.180  -8.573  26.381  0.00  0.00    +0.000 A 
ATOM     10  C   UNL     1      19.156  -7.680  26.613  0.00  0.00    +0.000 A 
ENDROOT
BRANCH   1  14
ATOM     11  N   UNL     1      15.086 -11.890  27.520  0.00  0.00    +0.000 NA
ATOM     12  C   UNL     1      16.069 -10.913  27.974  0.00  0.00    +0.000 A 
ATOM     13  N   UNL     1      16.506  -9.854  27.341  0.00  0.00    +0.000 NA
ATOM     14  C   UNL     1      17.402  -9.071  27.898  0.00  0.00    +0.000 A 
ATOM     15  C   UNL     1      17.823  -9.450  29.161  0.00  0.00    +0.000 A 
ATOM     16  S   UNL     1      16.924 -10.864  29.445  0.00  0.00    +0.000 S 
BRANCH  11  18
ATOM     17  C   UNL     1      13.505 -12.611  29.152  0.00  0.00    +0.000 C 
ATOM     18  C   UNL     1      14.795 -12.965  28.436  0.00  0.00    +0.000 C 
ENDBRANCH  11  18
ENDBRANCH   1  14
TORSDOF 2
ENDMDL
