MODEL 1
REMARK VINA RESULT:      -7.5      0.000      0.000
REMARK  Name = 
REMARK  4 active torsions:
REMARK  status: ('A' for Active; 'I' for Inactive)
REMARK    1  A    between atoms: C_2  and  N_3
REMARK    2  A    between atoms: C_2  and  C_14
REMARK    3  A    between atoms: N_3  and  N_4
REMARK    4  A    between atoms: C_5  and  C_7
REMARK                            x       y       z     vdW  Elec       q    Type
REMARK                         _______ _______ _______ _____ _____    ______ ____
ROOT
ATOM      1  N   UNL     1      17.318  11.116  35.965  0.00  0.00    +0.000 NA
ENDROOT
BRANCH   1   2
ATOM      2  N   UNL     1      16.929  11.641  34.713  0.00  0.00    +0.000 NA
ATOM      3  C   UNL     1      15.580  11.834  34.385  0.00  0.00    +0.000 C 
ATOM      4  O   UNL     1      14.737  11.506  35.290  0.00  0.00    +0.000 OA
BRANCH   3   5
ATOM      5  C   UNL     1      15.023  12.358  33.149  0.00  0.00    +0.000 A 
ATOM      6  C   UNL     1      14.187  13.437  33.101  0.00  0.00    +0.000 A 
ATOM      7  C   UNL     1      13.663  13.956  31.933  0.00  0.00    +0.000 A 
ATOM      8  C   UNL     1      13.983  13.367  30.732  0.00  0.00    +0.000 A 
ATOM      9  C   UNL     1      14.825  12.276  30.751  0.00  0.00    +0.000 A 
ATOM     10  C   UNL     1      15.341  11.769  31.918  0.00  0.00    +0.000 A 
ATOM     11 CL   UNL     1      16.425  10.370  31.927  0.00  0.00    +0.000 Cl
ENDBRANCH   3   5
ENDBRANCH   1   2
BRANCH   1  13
ATOM     12  C   UNL     1      17.648   8.852  35.274  0.00  0.00    +0.000 C 
ATOM     13  C   UNL     1      17.985   9.887  36.006  0.00  0.00    +0.000 C 
BRANCH  13  14
ATOM     14  C   UNL     1      19.134   9.767  36.892  0.00  0.00    +0.000 A 
ATOM     15  C   UNL     1      20.460   9.822  36.523  0.00  0.00    +0.000 A 
ATOM     16  C   UNL     1      21.186   9.664  37.689  0.00  0.00    +0.000 A 
ATOM     17  C   UNL     1      22.667   9.661  37.738  0.00  0.00    +0.000 C 
ATOM     18  O   UNL     1      20.335   9.524  38.680  0.00  0.00    +0.000 OA
ATOM     19  C   UNL     1      19.105   9.577  38.274  0.00  0.00    +0.000 A 
ATOM     20  C   UNL     1      17.836   9.464  39.049  0.00  0.00    +0.000 C 
ENDBRANCH  13  14
ENDBRANCH   1  13
TORSDOF 4
ENDMDL
MODEL 2
REMARK VINA RESULT:      -6.7     27.899     29.713
REMARK  Name = 
REMARK  4 active torsions:
REMARK  status: ('A' for Active; 'I' for Inactive)
REMARK    1  A    between atoms: C_2  and  N_3
REMARK    2  A    between atoms: C_2  and  C_14
REMARK    3  A    between atoms: N_3  and  N_4
REMARK    4  A    between atoms: C_5  and  C_7
REMARK                            x       y       z     vdW  Elec       q    Type
REMARK                         _______ _______ _______ _____ _____    ______ ____
ROOT
ATOM      1  N   UNL     1      31.011  21.360   9.797  0.00  0.00    +0.000 NA
ENDROOT
BRANCH   1   2
ATOM      2  N   UNL     1      30.187  22.287  10.471  0.00  0.00    +0.000 NA
ATOM      3  C   UNL     1      29.794  22.088  11.802  0.00  0.00    +0.000 C 
ATOM      4  O   UNL     1      30.232  21.020  12.355  0.00  0.00    +0.000 OA
BRANCH   3   5
ATOM      5  C   UNL     1      28.954  22.940  12.627  0.00  0.00    +0.000 A 
ATOM      6  C   UNL     1      29.442  23.726  13.632  0.00  0.00    +0.000 A 
ATOM      7  C   UNL     1      28.658  24.553  14.413  0.00  0.00    +0.000 A 
ATOM      8  C   UNL     1      27.303  24.605  14.189  0.00  0.00    +0.000 A 
ATOM      9  C   UNL     1      26.783  23.821  13.181  0.00  0.00    +0.000 A 
ATOM     10  C   UNL     1      27.572  23.003  12.409  0.00  0.00    +0.000 A 
ATOM     11 CL   UNL     1      26.893  22.006  11.114  0.00  0.00    +0.000 Cl
ENDBRANCH   3   5
ENDBRANCH   1   2
BRANCH   1  13
ATOM     12  C   UNL     1      32.737  22.707   8.837  0.00  0.00    +0.000 C 
ATOM     13  C   UNL     1      32.352  21.686   9.566  0.00  0.00    +0.000 C 
BRANCH  13  14
ATOM     14  C   UNL     1      33.371  20.861  10.199  0.00  0.00    +0.000 A 
ATOM     15  C   UNL     1      33.818  20.966  11.497  0.00  0.00    +0.000 A 
ATOM     16  C   UNL     1      34.778  19.982  11.650  0.00  0.00    +0.000 A 
ATOM     17  C   UNL     1      35.519  19.750  12.912  0.00  0.00    +0.000 C 
ATOM     18  O   UNL     1      34.886  19.341  10.508  0.00  0.00    +0.000 OA
ATOM     19  C   UNL     1      34.079  19.813   9.610  0.00  0.00    +0.000 A 
ATOM     20  C   UNL     1      33.874  19.393   8.194  0.00  0.00    +0.000 C 
ENDBRANCH  13  14
ENDBRANCH   1  13
TORSDOF 4
ENDMDL
MODEL 3
REMARK VINA RESULT:      -6.6     28.294     30.427
REMARK  Name = 
REMARK  4 active torsions:
REMARK  status: ('A' for Active; 'I' for Inactive)
REMARK    1  A    between atoms: C_2  and  N_3
REMARK    2  A    between atoms: C_2  and  C_14
REMARK    3  A    between atoms: N_3  and  N_4
REMARK    4  A    between atoms: C_5  and  C_7
REMARK                            x       y       z     vdW  Elec       q    Type
REMARK                         _______ _______ _______ _____ _____    ______ ____
ROOT
ATOM      1  N   UNL     1      32.929  21.812  11.628  0.00  0.00    +0.000 NA
ENDROOT
BRANCH   1   2
ATOM      2  N   UNL     1      31.701  22.508  11.672  0.00  0.00    +0.000 NA
ATOM      3  C   UNL     1      30.712  22.191  12.613  0.00  0.00    +0.000 C 
ATOM      4  O   UNL     1      30.998  21.239  13.420  0.00  0.00    +0.000 OA
BRANCH   3   5
ATOM      5  C   UNL     1      29.406  22.806  12.785  0.00  0.00    +0.000 A 
ATOM      6  C   UNL     1      29.102  23.645  13.819  0.00  0.00    +0.000 A 
ATOM      7  C   UNL     1      27.871  24.250  13.985  0.00  0.00    +0.000 A 
ATOM      8  C   UNL     1      26.873  24.007  13.071  0.00  0.00    +0.000 A 
ATOM      9  C   UNL     1      27.152  23.163  12.018  0.00  0.00    +0.000 A 
ATOM     10  C   UNL     1      28.379  22.568  11.861  0.00  0.00    +0.000 A 
ATOM     11 CL   UNL     1      28.726  21.491  10.500  0.00  0.00    +0.000 Cl
ENDBRANCH   3   5
ENDBRANCH   1   2
BRANCH   1  13
ATOM     12  C   UNL     1      34.856  21.531  10.242  0.00  0.00    +0.000 C 
ATOM     13  C   UNL     1      33.555  21.619  10.392  0.00  0.00    +0.000 C 
BRANCH  13  14
ATOM     14  C   UNL     1      32.708  21.479   9.216  0.00  0.00    +0.000 A 
ATOM     15  C   UNL     1      31.861  20.431   8.939  0.00  0.00    +0.000 A 
ATOM     16  C   UNL     1      31.269  20.730   7.725  0.00  0.00    +0.000 A 
ATOM     17  C   UNL     1      30.280  19.852   7.058  0.00  0.00    +0.000 C 
ATOM     18  O   UNL     1      31.743  21.886   7.318  0.00  0.00    +0.000 OA
ATOM     19  C   UNL     1      32.599  22.380   8.156  0.00  0.00    +0.000 A 
ATOM     20  C   UNL     1      33.373  23.654   8.093  0.00  0.00    +0.000 C 
ENDBRANCH  13  14
ENDBRANCH   1  13
TORSDOF 4
ENDMDL
MODEL 4
REMARK VINA RESULT:      -6.5      2.854      7.368
REMARK  Name = 
REMARK  4 active torsions:
REMARK  status: ('A' for Active; 'I' for Inactive)
REMARK    1  A    between atoms: C_2  and  N_3
REMARK    2  A    between atoms: C_2  and  C_14
REMARK    3  A    between atoms: N_3  and  N_4
REMARK    4  A    between atoms: C_5  and  C_7
REMARK                            x       y       z     vdW  Elec       q    Type
REMARK                         _______ _______ _______ _____ _____    ______ ____
ROOT
ATOM      1  N   UNL     1      15.965  10.877  34.931  0.00  0.00    +0.000 NA
ENDROOT
BRANCH   1   2
ATOM      2  N   UNL     1      16.425  10.226  36.097  0.00  0.00    +0.000 NA
ATOM      3  C   UNL     1      16.486  10.889  37.331  0.00  0.00    +0.000 C 
ATOM      4  O   UNL     1      16.099  12.109  37.325  0.00  0.00    +0.000 OA
BRANCH   3   5
ATOM      5  C   UNL     1      16.935  10.365  38.611  0.00  0.00    +0.000 A 
ATOM      6  C   UNL     1      16.080   9.943  39.589  0.00  0.00    +0.000 A 
ATOM      7  C   UNL     1      16.492   9.427  40.803  0.00  0.00    +0.000 A 
ATOM      8  C   UNL     1      17.837   9.324  41.069  0.00  0.00    +0.000 A 
ATOM      9  C   UNL     1      18.722   9.743  40.099  0.00  0.00    +0.000 A 
ATOM     10  C   UNL     1      18.302  10.253  38.895  0.00  0.00    +0.000 A 
ATOM     11 CL   UNL     1      19.450  10.783  37.656  0.00  0.00    +0.000 Cl
ENDBRANCH   3   5
ENDBRANCH   1   2
BRANCH   1  13
ATOM     12  C   UNL     1      17.743   9.956  33.626  0.00  0.00    +0.000 C 
ATOM     13  C   UNL     1      16.663  10.695  33.733  0.00  0.00    +0.000 C 
BRANCH  13  14
ATOM     14  C   UNL     1      16.140  11.339  32.537  0.00  0.00    +0.000 A 
ATOM     15  C   UNL     1      16.644  12.466  31.928  0.00  0.00    +0.000 A 
ATOM     16  C   UNL     1      15.831  12.704  30.835  0.00  0.00    +0.000 A 
ATOM     17  C   UNL     1      16.027  13.836  29.900  0.00  0.00    +0.000 C 
ATOM     18  O   UNL     1      14.905  11.772  30.809  0.00  0.00    +0.000 OA
ATOM     19  C   UNL     1      15.034  10.934  31.789  0.00  0.00    +0.000 A 
ATOM     20  C   UNL     1      14.213   9.740  32.140  0.00  0.00    +0.000 C 
ENDBRANCH  13  14
ENDBRANCH   1  13
TORSDOF 4
ENDMDL
MODEL 5
REMARK VINA RESULT:      -6.5      3.510      8.122
REMARK  Name = 
REMARK  4 active torsions:
REMARK  status: ('A' for Active; 'I' for Inactive)
REMARK    1  A    between atoms: C_2  and  N_3
REMARK    2  A    between atoms: C_2  and  C_14
REMARK    3  A    between atoms: N_3  and  N_4
REMARK    4  A    between atoms: C_5  and  C_7
REMARK                            x       y       z     vdW  Elec       q    Type
REMARK                         _______ _______ _______ _____ _____    ______ ____
ROOT
ATOM      1  N   UNL     1      18.453  10.245  37.097  0.00  0.00    +0.000 NA
ENDROOT
BRANCH   1   2
ATOM      2  N   UNL     1      17.945   9.196  37.894  0.00  0.00    +0.000 NA
ATOM      3  C   UNL     1      18.552   8.834  39.105  0.00  0.00    +0.000 C 
ATOM      4  O   UNL     1      19.584   9.516  39.433  0.00  0.00    +0.000 OA
BRANCH   3   5
ATOM      5  C   UNL     1      18.155   7.785  40.030  0.00  0.00    +0.000 A 
ATOM      6  C   UNL     1      18.778   6.572  40.099  0.00  0.00    +0.000 A 
ATOM      7  C   UNL     1      18.423   5.572  40.984  0.00  0.00    +0.000 A 
ATOM      8  C   UNL     1      17.381   5.783  41.855  0.00  0.00    +0.000 A 
ATOM      9  C   UNL     1      16.733   6.999  41.807  0.00  0.00    +0.000 A 
ATOM     10  C   UNL     1      17.096   7.987  40.924  0.00  0.00    +0.000 A 
ATOM     11 CL   UNL     1      16.259   9.546  40.876  0.00  0.00    +0.000 Cl
ENDBRANCH   3   5
ENDBRANCH   1   2
BRANCH   1  13
ATOM     12  C   UNL     1      18.417  12.579  37.609  0.00  0.00    +0.000 C 
ATOM     13  C   UNL     1      17.833  11.498  37.151  0.00  0.00    +0.000 C 
BRANCH  13  14
ATOM     14  C   UNL     1      16.474  11.606  36.639  0.00  0.00    +0.000 A 
ATOM     15  C   UNL     1      15.328  11.751  37.386  0.00  0.00    +0.000 A 
ATOM     16  C   UNL     1      14.286  11.811  36.478  0.00  0.00    +0.000 A 
ATOM     17  C   UNL     1      12.866  11.966  36.870  0.00  0.00    +0.000 C 
ATOM     18  O   UNL     1      14.795  11.706  35.271  0.00  0.00    +0.000 OA
ATOM     19  C   UNL     1      16.085  11.582  35.299  0.00  0.00    +0.000 A 
ATOM     20  C   UNL     1      17.055  11.434  34.176  0.00  0.00    +0.000 C 
ENDBRANCH  13  14
ENDBRANCH   1  13
TORSDOF 4
ENDMDL
MODEL 6
REMARK VINA RESULT:      -6.4     21.184     22.620
REMARK  Name = 
REMARK  4 active torsions:
REMARK  status: ('A' for Active; 'I' for Inactive)
REMARK    1  A    between atoms: C_2  and  N_3
REMARK    2  A    between atoms: C_2  and  C_14
REMARK    3  A    between atoms: N_3  and  N_4
REMARK    4  A    between atoms: C_5  and  C_7
REMARK                            x       y       z     vdW  Elec       q    Type
REMARK                         _______ _______ _______ _____ _____    ______ ____
ROOT
ATOM      1  N   UNL     1      22.293  -9.135  23.284  0.00  0.00    +0.000 NA
ENDROOT
BRANCH   1   2
ATOM      2  N   UNL     1      21.179  -8.464  23.834  0.00  0.00    +0.000 NA
ATOM      3  C   UNL     1      21.165  -8.037  25.169  0.00  0.00    +0.000 C 
ATOM      4  O   UNL     1      22.222  -8.295  25.844  0.00  0.00    +0.000 OA
BRANCH   3   5
ATOM      5  C   UNL     1      20.104  -7.342  25.879  0.00  0.00    +0.000 A 
ATOM      6  C   UNL     1      19.920  -5.990  25.815  0.00  0.00    +0.000 A 
ATOM      7  C   UNL     1      18.906  -5.319  26.470  0.00  0.00    +0.000 A 
ATOM      8  C   UNL     1      18.017  -6.029  27.243  0.00  0.00    +0.000 A 
ATOM      9  C   UNL     1      18.180  -7.396  27.325  0.00  0.00    +0.000 A 
ATOM     10  C   UNL     1      19.191  -8.053  26.668  0.00  0.00    +0.000 A 
ATOM     11 CL   UNL     1      19.386  -9.809  26.779  0.00  0.00    +0.000 Cl
ENDBRANCH   3   5
ENDBRANCH   1   2
BRANCH   1  13
ATOM     12  C   UNL     1      22.565  -8.080  21.156  0.00  0.00    +0.000 C 
ATOM     13  C   UNL     1      23.055  -8.492  22.301  0.00  0.00    +0.000 C 
BRANCH  13  14
ATOM     14  C   UNL     1      24.461  -8.244  22.586  0.00  0.00    +0.000 A 
ATOM     15  C   UNL     1      25.530  -8.983  22.132  0.00  0.00    +0.000 A 
ATOM     16  C   UNL     1      26.659  -8.378  22.653  0.00  0.00    +0.000 A 
ATOM     17  C   UNL     1      28.037  -8.864  22.406  0.00  0.00    +0.000 C 
ATOM     18  O   UNL     1      26.272  -7.347  23.371  0.00  0.00    +0.000 OA
ATOM     19  C   UNL     1      24.983  -7.215  23.370  0.00  0.00    +0.000 A 
ATOM     20  C   UNL     1      24.126  -6.197  24.045  0.00  0.00    +0.000 C 
ENDBRANCH  13  14
ENDBRANCH   1  13
TORSDOF 4
ENDMDL
MODEL 7
REMARK VINA RESULT:      -6.3      3.205      7.750
REMARK  Name = 
REMARK  4 active torsions:
REMARK  status: ('A' for Active; 'I' for Inactive)
REMARK    1  A    between atoms: C_2  and  N_3
REMARK    2  A    between atoms: C_2  and  C_14
REMARK    3  A    between atoms: N_3  and  N_4
REMARK    4  A    between atoms: C_5  and  C_7
REMARK                            x       y       z     vdW  Elec       q    Type
REMARK                         _______ _______ _______ _____ _____    ______ ____
ROOT
ATOM      1  N   UNL     1      17.926  10.540  37.036  0.00  0.00    +0.000 NA
ENDROOT
BRANCH   1   2
ATOM      2  N   UNL     1      17.260   9.859  38.078  0.00  0.00    +0.000 NA
ATOM      3  C   UNL     1      17.834   9.724  39.350  0.00  0.00    +0.000 C 
ATOM      4  O   UNL     1      18.989  10.255  39.497  0.00  0.00    +0.000 OA
BRANCH   3   5
ATOM      5  C   UNL     1      17.282   9.056  40.517  0.00  0.00    +0.000 A 
ATOM      6  C   UNL     1      16.454   9.671  41.412  0.00  0.00    +0.000 A 
ATOM      7  C   UNL     1      15.910   9.045  42.516  0.00  0.00    +0.000 A 
ATOM      8  C   UNL     1      16.205   7.723  42.754  0.00  0.00    +0.000 A 
ATOM      9  C   UNL     1      17.040   7.077  41.867  0.00  0.00    +0.000 A 
ATOM     10  C   UNL     1      17.575   7.709  40.772  0.00  0.00    +0.000 A 
ATOM     11 CL   UNL     1      18.641   6.866  39.638  0.00  0.00    +0.000 Cl
ENDBRANCH   3   5
ENDBRANCH   1   2
BRANCH   1  13
ATOM     12  C   UNL     1      17.511  12.894  37.060  0.00  0.00    +0.000 C 
ATOM     13  C   UNL     1      17.358  11.709  36.517  0.00  0.00    +0.000 C 
BRANCH  13  14
ATOM     14  C   UNL     1      16.580  11.600  35.292  0.00  0.00    +0.000 A 
ATOM     15  C   UNL     1      17.074  11.381  34.026  0.00  0.00    +0.000 A 
ATOM     16  C   UNL     1      15.975  11.352  33.187  0.00  0.00    +0.000 A 
ATOM     17  C   UNL     1      16.067  11.138  31.724  0.00  0.00    +0.000 C 
ATOM     18  O   UNL     1      14.902  11.545  33.920  0.00  0.00    +0.000 OA
ATOM     19  C   UNL     1      15.193  11.698  35.174  0.00  0.00    +0.000 A 
ATOM     20  C   UNL     1      14.296  11.940  36.341  0.00  0.00    +0.000 C 
ENDBRANCH  13  14
ENDBRANCH   1  13
TORSDOF 4
ENDMDL
MODEL 8
REMARK VINA RESULT:      -6.1     29.269     31.327
REMARK  Name = 
REMARK  4 active torsions:
REMARK  status: ('A' for Active; 'I' for Inactive)
REMARK    1  A    between atoms: C_2  and  N_3
REMARK    2  A    between atoms: C_2  and  C_14
REMARK    3  A    between atoms: N_3  and  N_4
REMARK    4  A    between atoms: C_5  and  C_7
REMARK                            x       y       z     vdW  Elec       q    Type
REMARK                         _______ _______ _______ _____ _____    ______ ____
ROOT
ATOM      1  N   UNL     1      30.811  21.897   9.121  0.00  0.00    +0.000 NA
ENDROOT
BRANCH   1   2
ATOM      2  N   UNL     1      31.011  20.599   8.600  0.00  0.00    +0.000 NA
ATOM      3  C   UNL     1      31.701  20.389   7.398  0.00  0.00    +0.000 C 
ATOM      4  O   UNL     1      32.131  21.444   6.814  0.00  0.00    +0.000 OA
BRANCH   3   5
ATOM      5  C   UNL     1      31.984  19.127   6.734  0.00  0.00    +0.000 A 
ATOM      6  C   UNL     1      33.164  18.454   6.877  0.00  0.00    +0.000 A 
ATOM      7  C   UNL     1      33.441  17.246   6.266  0.00  0.00    +0.000 A 
ATOM      8  C   UNL     1      32.491  16.667   5.458  0.00  0.00    +0.000 A 
ATOM      9  C   UNL     1      31.292  17.326   5.295  0.00  0.00    +0.000 A 
ATOM     10  C   UNL     1      31.026  18.526   5.908  0.00  0.00    +0.000 A 
ATOM     11 CL   UNL     1      29.479  19.359   5.695  0.00  0.00    +0.000 Cl
ENDBRANCH   3   5
ENDBRANCH   1   2
BRANCH   1  13
ATOM     12  C   UNL     1      32.806  22.549  10.265  0.00  0.00    +0.000 C 
ATOM     13  C   UNL     1      31.520  22.286  10.262  0.00  0.00    +0.000 C 
BRANCH  13  14
ATOM     14  C   UNL     1      30.778  22.435  11.505  0.00  0.00    +0.000 A 
ATOM     15  C   UNL     1      30.011  23.517  11.876  0.00  0.00    +0.000 A 
ATOM     16  C   UNL     1      29.502  23.212  13.125  0.00  0.00    +0.000 A 
ATOM     17  C   UNL     1      28.616  24.120  13.891  0.00  0.00    +0.000 C 
ATOM     18  O   UNL     1      29.945  22.023  13.464  0.00  0.00    +0.000 OA
ATOM     19  C   UNL     1      30.705  21.510  12.548  0.00  0.00    +0.000 A 
ATOM     20  C   UNL     1      31.413  20.198  12.517  0.00  0.00    +0.000 C 
ENDBRANCH  13  14
ENDBRANCH   1  13
TORSDOF 4
ENDMDL
MODEL 9
REMARK VINA RESULT:      -6.1      2.641      3.195
REMARK  Name = 
REMARK  4 active torsions:
REMARK  status: ('A' for Active; 'I' for Inactive)
REMARK    1  A    between atoms: C_2  and  N_3
REMARK    2  A    between atoms: C_2  and  C_14
REMARK    3  A    between atoms: N_3  and  N_4
REMARK    4  A    between atoms: C_5  and  C_7
REMARK                            x       y       z     vdW  Elec       q    Type
REMARK                         _______ _______ _______ _____ _____    ______ ____
ROOT
ATOM      1  N   UNL     1      18.021  10.579  37.322  0.00  0.00    +0.000 NA
ENDROOT
BRANCH   1   2
ATOM      2  N   UNL     1      17.450  11.204  36.191  0.00  0.00    +0.000 NA
ATOM      3  C   UNL     1      16.934  10.456  35.123  0.00  0.00    +0.000 C 
ATOM      4  O   UNL     1      17.014   9.185  35.246  0.00  0.00    +0.000 OA
BRANCH   3   5
ATOM      5  C   UNL     1      16.322  10.945  33.899  0.00  0.00    +0.000 A 
ATOM      6  C   UNL     1      16.687  10.516  32.654  0.00  0.00    +0.000 A 
ATOM      7  C   UNL     1      16.104  10.959  31.484  0.00  0.00    +0.000 A 
ATOM      8  C   UNL     1      15.095  11.891  31.545  0.00  0.00    +0.000 A 
ATOM      9  C   UNL     1      14.707  12.343  32.788  0.00  0.00    +0.000 A 
ATOM     10  C   UNL     1      15.293  11.895  33.946  0.00  0.00    +0.000 A 
ATOM     11 CL   UNL     1      14.781  12.479  35.537  0.00  0.00    +0.000 Cl
ENDBRANCH   3   5
ENDBRANCH   1   2
BRANCH   1  13
ATOM     12  C   UNL     1      20.256   9.837  36.918  0.00  0.00    +0.000 C 
ATOM     13  C   UNL     1      19.406  10.645  37.506  0.00  0.00    +0.000 C 
BRANCH  13  14
ATOM     14  C   UNL     1      19.927  11.690  38.375  0.00  0.00    +0.000 A 
ATOM     15  C   UNL     1      20.030  13.029  38.073  0.00  0.00    +0.000 A 
ATOM     16  C   UNL     1      20.576  13.631  39.192  0.00  0.00    +0.000 A 
ATOM     17  C   UNL     1      20.856  15.083  39.286  0.00  0.00    +0.000 C 
ATOM     18  O   UNL     1      20.780  12.698  40.094  0.00  0.00    +0.000 OA
ATOM     19  C   UNL     1      20.416  11.529  39.672  0.00  0.00    +0.000 A 
ATOM     20  C   UNL     1      20.472  10.205  40.357  0.00  0.00    +0.000 C 
ENDBRANCH  13  14
ENDBRANCH   1  13
TORSDOF 4
ENDMDL
MODEL 10
REMARK VINA RESULT:      -6.1     18.787     20.262
REMARK  Name = 
REMARK  4 active torsions:
REMARK  status: ('A' for Active; 'I' for Inactive)
REMARK    1  A    between atoms: C_2  and  N_3
REMARK    2  A    between atoms: C_2  and  C_14
REMARK    3  A    between atoms: N_3  and  N_4
REMARK    4  A    between atoms: C_5  and  C_7
REMARK                            x       y       z     vdW  Elec       q    Type
REMARK                         _______ _______ _______ _____ _____    ______ ____
ROOT
ATOM      1  N   UNL     1      26.101  24.961  24.389  0.00  0.00    +0.000 NA
ENDROOT
BRANCH   1   2
ATOM      2  N   UNL     1      25.901  24.360  25.651  0.00  0.00    +0.000 NA
ATOM      3  C   UNL     1      26.821  24.524  26.696  0.00  0.00    +0.000 C 
ATOM      4  O   UNL     1      27.841  25.249  26.428  0.00  0.00    +0.000 OA
BRANCH   3   5
ATOM      5  C   UNL     1      26.761  23.973  28.040  0.00  0.00    +0.000 A 
ATOM      6  C   UNL     1      26.062  24.556  29.059  0.00  0.00    +0.000 A 
ATOM      7  C   UNL     1      25.982  24.037  30.336  0.00  0.00    +0.000 A 
ATOM      8  C   UNL     1      26.639  22.865  30.628  0.00  0.00    +0.000 A 
ATOM      9  C   UNL     1      27.353  22.255  29.619  0.00  0.00    +0.000 A 
ATOM     10  C   UNL     1      27.425  22.780  28.352  0.00  0.00    +0.000 A 
ATOM     11 CL   UNL     1      28.342  21.984  27.064  0.00  0.00    +0.000 Cl
ENDBRANCH   3   5
ENDBRANCH   1   2
BRANCH   1  13
ATOM     12  C   UNL     1      25.726  23.131  22.898  0.00  0.00    +0.000 C 
ATOM     13  C   UNL     1      26.445  24.152  23.300  0.00  0.00    +0.000 C 
BRANCH  13  14
ATOM     14  C   UNL     1      27.653  24.487  22.560  0.00  0.00    +0.000 A 
ATOM     15  C   UNL     1      27.758  25.404  21.539  0.00  0.00    +0.000 A 
ATOM     16  C   UNL     1      29.084  25.384  21.146  0.00  0.00    +0.000 A 
ATOM     17  C   UNL     1      29.629  26.233  20.060  0.00  0.00    +0.000 C 
ATOM     18  O   UNL     1      29.715  24.506  21.892  0.00  0.00    +0.000 OA
ATOM     19  C   UNL     1      28.923  23.942  22.749  0.00  0.00    +0.000 A 
ATOM     20  C   UNL     1      29.213  22.900  23.776  0.00  0.00    +0.000 C 
ENDBRANCH  13  14
ENDBRANCH   1  13
TORSDOF 4
ENDMDL
