MODEL 1
REMARK VINA RESULT:      -7.6      0.000      0.000
REMARK  Name = 
REMARK  1 active torsions:
REMARK  status: ('A' for Active; 'I' for Inactive)
REMARK    1  A    between atoms: C_4  and  C_5
REMARK                            x       y       z     vdW  Elec       q    Type
REMARK                         _______ _______ _______ _____ _____    ______ ____
ROOT
ATOM      1  O   UNL     1      14.772  12.024  37.029  0.00  0.00    +0.000 OA
ATOM      2  C   UNL     1      15.450  11.692  36.035  0.00  0.00    +0.000 C 
ATOM      3  N   UNL     1      15.104  12.233  34.773  0.00  0.00    +0.000 NA
ATOM      4  C   UNL     1      15.213  11.151  33.597  0.00  0.00    +0.000 C 
ATOM      5  N   UNL     1      16.813  11.084  33.746  0.00  0.00    +0.000 NA
ATOM      6  C   UNL     1      17.229  10.494  34.999  0.00  0.00    +0.000 A 
ATOM      7  S   UNL     1      18.482   9.412  35.481  0.00  0.00    +0.000 S 
ATOM      8  C   UNL     1      18.145   9.337  37.151  0.00  0.00    +0.000 A 
ATOM      9  C   UNL     1      17.059  10.163  37.288  0.00  0.00    +0.000 A 
ATOM     10  C   UNL     1      16.594  10.755  36.173  0.00  0.00    +0.000 A 
ATOM     11  C   UNL     1      16.596  10.231  38.738  0.00  0.00    +0.000 C 
ATOM     12  C   UNL     1      17.836  10.582  39.532  0.00  0.00    +0.000 C 
ATOM     13  C   UNL     1      18.701   9.348  39.579  0.00  0.00    +0.000 C 
ATOM     14  C   UNL     1      18.773   8.611  38.296  0.00  0.00    +0.000 C 
ENDROOT
BRANCH   4  15
ATOM     15  C   UNL     1      15.231  12.227  32.414  0.00  0.00    +0.000 A 
ATOM     16  C   UNL     1      16.214  12.186  31.498  0.00  0.00    +0.000 A 
ATOM     17  C   UNL     1      16.187  13.164  30.495  0.00  0.00    +0.000 A 
ATOM     18  C   UNL     1      15.178  14.086  30.510  0.00  0.00    +0.000 A 
ATOM     19  C   UNL     1      14.182  14.107  31.460  0.00  0.00    +0.000 A 
ATOM     20  N   UNL     1      14.256  13.125  32.422  0.00  0.00    +0.000 NA
ENDBRANCH   4  15
TORSDOF 1
ENDMDL
MODEL 2
REMARK VINA RESULT:      -6.8     27.985     31.368
REMARK  Name = 
REMARK  1 active torsions:
REMARK  status: ('A' for Active; 'I' for Inactive)
REMARK    1  A    between atoms: C_4  and  C_5
REMARK                            x       y       z     vdW  Elec       q    Type
REMARK                         _______ _______ _______ _____ _____    ______ ____
ROOT
ATOM      1  O   UNL     1      33.578  22.690  10.892  0.00  0.00    +0.000 OA
ATOM      2  C   UNL     1      32.413  22.325  10.634  0.00  0.00    +0.000 C 
ATOM      3  N   UNL     1      31.381  22.679  11.536  0.00  0.00    +0.000 NA
ATOM      4  C   UNL     1      30.330  21.490  11.756  0.00  0.00    +0.000 C 
ATOM      5  N   UNL     1      29.803  21.615  10.242  0.00  0.00    +0.000 NA
ATOM      6  C   UNL     1      30.801  21.220   9.273  0.00  0.00    +0.000 A 
ATOM      7  S   UNL     1      30.778  20.342   7.789  0.00  0.00    +0.000 S 
ATOM      8  C   UNL     1      32.439  20.419   7.406  0.00  0.00    +0.000 A 
ATOM      9  C   UNL     1      32.967  21.132   8.452  0.00  0.00    +0.000 A 
ATOM     10  C   UNL     1      32.115  21.539   9.409  0.00  0.00    +0.000 A 
ATOM     11  C   UNL     1      34.472  21.311   8.292  0.00  0.00    +0.000 C 
ATOM     12  C   UNL     1      34.657  21.882   6.902  0.00  0.00    +0.000 C 
ATOM     13  C   UNL     1      34.409  20.763   5.922  0.00  0.00    +0.000 C 
ATOM     14  C   UNL     1      33.258  19.899   6.270  0.00  0.00    +0.000 C 
ENDROOT
BRANCH   4  15
ATOM     15  C   UNL     1      29.188  22.422  12.376  0.00  0.00    +0.000 A 
ATOM     16  C   UNL     1      28.073  22.664  11.663  0.00  0.00    +0.000 A 
ATOM     17  C   UNL     1      27.115  23.501  12.250  0.00  0.00    +0.000 A 
ATOM     18  C   UNL     1      27.368  24.012  13.492  0.00  0.00    +0.000 A 
ATOM     19  C   UNL     1      28.518  23.749  14.202  0.00  0.00    +0.000 A 
ATOM     20  N   UNL     1      29.426  22.922  13.580  0.00  0.00    +0.000 NA
ENDBRANCH   4  15
TORSDOF 1
ENDMDL
MODEL 3
REMARK VINA RESULT:      -6.5     28.179     30.938
REMARK  Name = 
REMARK  1 active torsions:
REMARK  status: ('A' for Active; 'I' for Inactive)
REMARK    1  A    between atoms: C_4  and  C_5
REMARK                            x       y       z     vdW  Elec       q    Type
REMARK                         _______ _______ _______ _____ _____    ______ ____
ROOT
ATOM      1  O   UNL     1      32.790  20.464  12.426  0.00  0.00    +0.000 OA
ATOM      2  C   UNL     1      32.074  21.175  11.691  0.00  0.00    +0.000 C 
ATOM      3  N   UNL     1      30.788  21.543  12.157  0.00  0.00    +0.000 NA
ATOM      4  C   UNL     1      29.682  21.485  11.000  0.00  0.00    +0.000 C 
ATOM      5  N   UNL     1      30.361  22.722  10.228  0.00  0.00    +0.000 NA
ATOM      6  C   UNL     1      31.660  22.392   9.686  0.00  0.00    +0.000 A 
ATOM      7  S   UNL     1      32.500  22.756   8.225  0.00  0.00    +0.000 S 
ATOM      8  C   UNL     1      33.954  21.921   8.536  0.00  0.00    +0.000 A 
ATOM      9  C   UNL     1      33.743  21.378   9.777  0.00  0.00    +0.000 A 
ATOM     10  C   UNL     1      32.558  21.626  10.362  0.00  0.00    +0.000 A 
ATOM     11  C   UNL     1      34.953  20.576  10.242  0.00  0.00    +0.000 C 
ATOM     12  C   UNL     1      36.132  21.514  10.088  0.00  0.00    +0.000 C 
ATOM     13  C   UNL     1      36.426  21.624   8.613  0.00  0.00    +0.000 C 
ATOM     14  C   UNL     1      35.218  21.733   7.762  0.00  0.00    +0.000 C 
ENDROOT
BRANCH   4  15
ATOM     15  C   UNL     1      28.612  22.382  11.781  0.00  0.00    +0.000 A 
ATOM     16  C   UNL     1      29.010  23.116  12.836  0.00  0.00    +0.000 A 
ATOM     17  C   UNL     1      28.026  23.869  13.490  0.00  0.00    +0.000 A 
ATOM     18  C   UNL     1      26.743  23.812  13.023  0.00  0.00    +0.000 A 
ATOM     19  C   UNL     1      26.361  23.052  11.940  0.00  0.00    +0.000 A 
ATOM     20  N   UNL     1      27.365  22.333  11.334  0.00  0.00    +0.000 NA
ENDBRANCH   4  15
TORSDOF 1
ENDMDL
MODEL 4
REMARK VINA RESULT:      -6.5     21.960     24.577
REMARK  Name = 
REMARK  1 active torsions:
REMARK  status: ('A' for Active; 'I' for Inactive)
REMARK    1  A    between atoms: C_4  and  C_5
REMARK                            x       y       z     vdW  Elec       q    Type
REMARK                         _______ _______ _______ _____ _____    ______ ____
ROOT
ATOM      1  O   UNL     1      29.729  24.206  21.107  0.00  0.00    +0.000 OA
ATOM      2  C   UNL     1      29.308  25.337  20.787  0.00  0.00    +0.000 C 
ATOM      3  N   UNL     1      29.773  25.911  19.579  0.00  0.00    +0.000 NA
ATOM      4  C   UNL     1      30.068  27.479  19.725  0.00  0.00    +0.000 C 
ATOM      5  N   UNL     1      28.505  27.801  19.919  0.00  0.00    +0.000 NA
ATOM      6  C   UNL     1      27.982  27.279  21.162  0.00  0.00    +0.000 A 
ATOM      7  S   UNL     1      26.874  27.850  22.354  0.00  0.00    +0.000 S 
ATOM      8  C   UNL     1      26.915  26.518  23.419  0.00  0.00    +0.000 A 
ATOM      9  C   UNL     1      27.796  25.660  22.812  0.00  0.00    +0.000 A 
ATOM     10  C   UNL     1      28.341  26.062  21.650  0.00  0.00    +0.000 A 
ATOM     11  C   UNL     1      27.974  24.384  23.626  0.00  0.00    +0.000 C 
ATOM     12  C   UNL     1      26.570  23.874  23.871  0.00  0.00    +0.000 C 
ATOM     13  C   UNL     1      25.941  24.773  24.906  0.00  0.00    +0.000 C 
ATOM     14  C   UNL     1      26.231  26.213  24.711  0.00  0.00    +0.000 C 
ENDROOT
BRANCH   4  15
ATOM     15  C   UNL     1      30.073  27.770  18.152  0.00  0.00    +0.000 A 
ATOM     16  C   UNL     1      31.189  27.536  17.439  0.00  0.00    +0.000 A 
ATOM     17  C   UNL     1      31.139  27.825  16.069  0.00  0.00    +0.000 A 
ATOM     18  C   UNL     1      29.975  28.318  15.549  0.00  0.00    +0.000 A 
ATOM     19  C   UNL     1      28.844  28.549  16.300  0.00  0.00    +0.000 A 
ATOM     20  N   UNL     1      28.948  28.249  17.639  0.00  0.00    +0.000 NA
ENDBRANCH   4  15
TORSDOF 1
ENDMDL
MODEL 5
REMARK VINA RESULT:      -6.5     18.880     20.944
REMARK  Name = 
REMARK  1 active torsions:
REMARK  status: ('A' for Active; 'I' for Inactive)
REMARK    1  A    between atoms: C_4  and  C_5
REMARK                            x       y       z     vdW  Elec       q    Type
REMARK                         _______ _______ _______ _____ _____    ______ ____
ROOT
ATOM      1  O   UNL     1      34.100   1.053  37.658  0.00  0.00    +0.000 OA
ATOM      2  C   UNL     1      33.897   0.746  36.466  0.00  0.00    +0.000 C 
ATOM      3  N   UNL     1      33.697  -0.619  36.147  0.00  0.00    +0.000 NA
ATOM      4  C   UNL     1      34.431  -1.040  34.787  0.00  0.00    +0.000 C 
ATOM      5  N   UNL     1      33.440  -0.121  33.915  0.00  0.00    +0.000 NA
ATOM      6  C   UNL     1      33.631   1.290  34.162  0.00  0.00    +0.000 A 
ATOM      7  S   UNL     1      33.640   2.710  33.183  0.00  0.00    +0.000 S 
ATOM      8  C   UNL     1      33.937   3.871  34.396  0.00  0.00    +0.000 A 
ATOM      9  C   UNL     1      34.021   3.116  35.537  0.00  0.00    +0.000 A 
ATOM     10  C   UNL     1      33.863   1.787  35.407  0.00  0.00    +0.000 A 
ATOM     11  C   UNL     1      34.290   3.989  36.758  0.00  0.00    +0.000 C 
ATOM     12  C   UNL     1      33.225   5.064  36.717  0.00  0.00    +0.000 C 
ATOM     13  C   UNL     1      33.597   6.019  35.610  0.00  0.00    +0.000 C 
ATOM     14  C   UNL     1      34.092   5.357  34.381  0.00  0.00    +0.000 C 
ENDROOT
BRANCH   4  15
ATOM     15  C   UNL     1      33.589  -2.384  34.580  0.00  0.00    +0.000 A 
ATOM     16  C   UNL     1      33.638  -3.019  33.396  0.00  0.00    +0.000 A 
ATOM     17  C   UNL     1      32.866  -4.182  33.269  0.00  0.00    +0.000 A 
ATOM     18  C   UNL     1      32.123  -4.592  34.340  0.00  0.00    +0.000 A 
ATOM     19  C   UNL     1      32.090  -3.924  35.543  0.00  0.00    +0.000 A 
ATOM     20  N   UNL     1      32.865  -2.789  35.615  0.00  0.00    +0.000 NA
ENDBRANCH   4  15
TORSDOF 1
ENDMDL
MODEL 6
REMARK VINA RESULT:      -6.2     22.077     23.187
REMARK  Name = 
REMARK  1 active torsions:
REMARK  status: ('A' for Active; 'I' for Inactive)
REMARK    1  A    between atoms: C_4  and  C_5
REMARK                            x       y       z     vdW  Elec       q    Type
REMARK                         _______ _______ _______ _____ _____    ______ ____
ROOT
ATOM      1  O   UNL     1      22.944 -10.677  26.024  0.00  0.00    +0.000 OA
ATOM      2  C   UNL     1      22.737  -9.517  25.612  0.00  0.00    +0.000 C 
ATOM      3  N   UNL     1      21.526  -8.880  25.977  0.00  0.00    +0.000 NA
ATOM      4  C   UNL     1      20.891  -8.041  24.769  0.00  0.00    +0.000 C 
ATOM      5  N   UNL     1      22.102  -6.983  24.808  0.00  0.00    +0.000 NA
ATOM      6  C   UNL     1      23.360  -7.566  24.397  0.00  0.00    +0.000 A 
ATOM      7  S   UNL     1      24.699  -7.032  23.451  0.00  0.00    +0.000 S 
ATOM      8  C   UNL     1      25.677  -8.425  23.560  0.00  0.00    +0.000 A 
ATOM      9  C   UNL     1      24.929  -9.272  24.336  0.00  0.00    +0.000 A 
ATOM     10  C   UNL     1      23.736  -8.820  24.762  0.00  0.00    +0.000 A 
ATOM     11  C   UNL     1      25.645 -10.600  24.552  0.00  0.00    +0.000 C 
ATOM     12  C   UNL     1      27.020 -10.228  25.063  0.00  0.00    +0.000 C 
ATOM     13  C   UNL     1      27.800  -9.685  23.893  0.00  0.00    +0.000 C 
ATOM     14  C   UNL     1      27.020  -8.785  23.012  0.00  0.00    +0.000 C 
ENDROOT
BRANCH   4  15
ATOM     15  C   UNL     1      19.920  -7.171  25.695  0.00  0.00    +0.000 A 
ATOM     16  C   UNL     1      19.070  -7.794  26.530  0.00  0.00    +0.000 A 
ATOM     17  C   UNL     1      18.232  -6.980  27.304  0.00  0.00    +0.000 A 
ATOM     18  C   UNL     1      18.329  -5.624  27.165  0.00  0.00    +0.000 A 
ATOM     19  C   UNL     1      19.209  -5.010  26.301  0.00  0.00    +0.000 A 
ATOM     20  N   UNL     1      20.008  -5.854  25.565  0.00  0.00    +0.000 NA
ENDBRANCH   4  15
TORSDOF 1
ENDMDL
MODEL 7
REMARK VINA RESULT:      -6.1     19.556     21.753
REMARK  Name = 
REMARK  1 active torsions:
REMARK  status: ('A' for Active; 'I' for Inactive)
REMARK    1  A    between atoms: C_4  and  C_5
REMARK                            x       y       z     vdW  Elec       q    Type
REMARK                         _______ _______ _______ _____ _____    ______ ____
ROOT
ATOM      1  O   UNL     1      25.987  24.441  23.599  0.00  0.00    +0.000 OA
ATOM      2  C   UNL     1      27.204  24.607  23.376  0.00  0.00    +0.000 C 
ATOM      3  N   UNL     1      27.583  25.365  22.241  0.00  0.00    +0.000 NA
ATOM      4  C   UNL     1      28.846  24.735  21.483  0.00  0.00    +0.000 C 
ATOM      5  N   UNL     1      29.815  25.077  22.720  0.00  0.00    +0.000 NA
ATOM      6  C   UNL     1      29.507  24.296  23.897  0.00  0.00    +0.000 A 
ATOM      7  S   UNL     1      30.438  23.514  25.120  0.00  0.00    +0.000 S 
ATOM      8  C   UNL     1      29.166  22.879  26.062  0.00  0.00    +0.000 A 
ATOM      9  C   UNL     1      28.044  23.296  25.393  0.00  0.00    +0.000 A 
ATOM     10  C   UNL     1      28.230  24.026  24.279  0.00  0.00    +0.000 A 
ATOM     11  C   UNL     1      26.776  22.819  26.091  0.00  0.00    +0.000 C 
ATOM     12  C   UNL     1      26.927  23.260  27.531  0.00  0.00    +0.000 C 
ATOM     13  C   UNL     1      27.949  22.355  28.171  0.00  0.00    +0.000 C 
ATOM     14  C   UNL     1      29.120  22.062  27.312  0.00  0.00    +0.000 C 
ENDROOT
BRANCH   4  15
ATOM     15  C   UNL     1      29.197  26.064  20.664  0.00  0.00    +0.000 A 
ATOM     16  C   UNL     1      28.766  27.254  21.119  0.00  0.00    +0.000 A 
ATOM     17  C   UNL     1      29.090  28.381  20.352  0.00  0.00    +0.000 A 
ATOM     18  C   UNL     1      29.813  28.203  19.206  0.00  0.00    +0.000 A 
ATOM     19  C   UNL     1      30.243  26.973  18.761  0.00  0.00    +0.000 A 
ATOM     20  N   UNL     1      29.898  25.900  19.551  0.00  0.00    +0.000 NA
ENDBRANCH   4  15
TORSDOF 1
ENDMDL
MODEL 8
REMARK VINA RESULT:      -6.1     18.587     19.872
REMARK  Name = 
REMARK  1 active torsions:
REMARK  status: ('A' for Active; 'I' for Inactive)
REMARK    1  A    between atoms: C_4  and  C_5
REMARK                            x       y       z     vdW  Elec       q    Type
REMARK                         _______ _______ _______ _____ _____    ______ ____
ROOT
ATOM      1  O   UNL     1      34.346   2.634  37.905  0.00  0.00    +0.000 OA
ATOM      2  C   UNL     1      34.304   3.374  36.900  0.00  0.00    +0.000 C 
ATOM      3  N   UNL     1      34.538   4.759  37.074  0.00  0.00    +0.000 NA
ATOM      4  C   UNL     1      33.556   5.659  36.183  0.00  0.00    +0.000 C 
ATOM      5  N   UNL     1      34.250   5.151  34.824  0.00  0.00    +0.000 NA
ATOM      6  C   UNL     1      34.004   3.749  34.567  0.00  0.00    +0.000 A 
ATOM      7  S   UNL     1      33.661   2.809  33.163  0.00  0.00    +0.000 S 
ATOM      8  C   UNL     1      33.548   1.271  33.890  0.00  0.00    +0.000 A 
ATOM      9  C   UNL     1      33.782   1.534  35.216  0.00  0.00    +0.000 A 
ATOM     10  C   UNL     1      34.016   2.814  35.554  0.00  0.00    +0.000 A 
ATOM     11  C   UNL     1      33.722   0.260  36.050  0.00  0.00    +0.000 C 
ATOM     12  C   UNL     1      34.659  -0.708  35.362  0.00  0.00    +0.000 C 
ATOM     13  C   UNL     1      33.974  -1.174  34.102  0.00  0.00    +0.000 C 
ATOM     14  C   UNL     1      33.273  -0.099  33.362  0.00  0.00    +0.000 C 
ENDROOT
BRANCH   4  15
ATOM     15  C   UNL     1      34.438   6.988  36.298  0.00  0.00    +0.000 A 
ATOM     16  C   UNL     1      35.574   7.092  35.584  0.00  0.00    +0.000 A 
ATOM     17  C   UNL     1      36.313   8.272  35.738  0.00  0.00    +0.000 A 
ATOM     18  C   UNL     1      35.841   9.231  36.589  0.00  0.00    +0.000 A 
ATOM     19  C   UNL     1      34.674   9.101  37.309  0.00  0.00    +0.000 A 
ATOM     20  N   UNL     1      33.988   7.923  37.122  0.00  0.00    +0.000 NA
ENDBRANCH   4  15
TORSDOF 1
ENDMDL
MODEL 9
REMARK VINA RESULT:      -6.0      6.172      7.408
REMARK  Name = 
REMARK  1 active torsions:
REMARK  status: ('A' for Active; 'I' for Inactive)
REMARK    1  A    between atoms: C_4  and  C_5
REMARK                            x       y       z     vdW  Elec       q    Type
REMARK                         _______ _______ _______ _____ _____    ______ ____
ROOT
ATOM      1  O   UNL     1      20.854   8.385  41.468  0.00  0.00    +0.000 OA
ATOM      2  C   UNL     1      20.623   8.977  40.393  0.00  0.00    +0.000 C 
ATOM      3  N   UNL     1      21.719   9.311  39.561  0.00  0.00    +0.000 NA
ATOM      4  C   UNL     1      21.563  10.763  38.904  0.00  0.00    +0.000 C 
ATOM      5  N   UNL     1      20.321  10.274  38.007  0.00  0.00    +0.000 NA
ATOM      6  C   UNL     1      19.153   9.963  38.800  0.00  0.00    +0.000 A 
ATOM      7  S   UNL     1      17.456  10.210  38.620  0.00  0.00    +0.000 S 
ATOM      8  C   UNL     1      16.924   9.486  40.070  0.00  0.00    +0.000 A 
ATOM      9  C   UNL     1      18.091   9.070  40.658  0.00  0.00    +0.000 A 
ATOM     10  C   UNL     1      19.234   9.321  39.996  0.00  0.00    +0.000 A 
ATOM     11  C   UNL     1      17.823   8.386  41.993  0.00  0.00    +0.000 C 
ATOM     12  C   UNL     1      16.783   7.327  41.692  0.00  0.00    +0.000 C 
ATOM     13  C   UNL     1      15.470   8.037  41.480  0.00  0.00    +0.000 C 
ATOM     14  C   UNL     1      15.577   9.281  40.683  0.00  0.00    +0.000 C 
ENDROOT
BRANCH   4  15
ATOM     15  C   UNL     1      22.659  10.522  37.763  0.00  0.00    +0.000 A 
ATOM     16  C   UNL     1      22.661   9.360  37.085  0.00  0.00    +0.000 A 
ATOM     17  C   UNL     1      23.654   9.199  36.109  0.00  0.00    +0.000 A 
ATOM     18  C   UNL     1      24.545  10.216  35.911  0.00  0.00    +0.000 A 
ATOM     19  C   UNL     1      24.521  11.397  36.619  0.00  0.00    +0.000 A 
ATOM     20  N   UNL     1      23.527  11.503  37.565  0.00  0.00    +0.000 NA
ENDBRANCH   4  15
TORSDOF 1
ENDMDL
MODEL 10
REMARK VINA RESULT:      -6.0     20.301     21.535
REMARK  Name = 
REMARK  1 active torsions:
REMARK  status: ('A' for Active; 'I' for Inactive)
REMARK    1  A    between atoms: C_4  and  C_5
REMARK                            x       y       z     vdW  Elec       q    Type
REMARK                         _______ _______ _______ _____ _____    ______ ____
ROOT
ATOM      1  O   UNL     1      24.929   3.821  19.589  0.00  0.00    +0.000 OA
ATOM      2  C   UNL     1      24.483   3.683  18.431  0.00  0.00    +0.000 C 
ATOM      3  N   UNL     1      23.282   2.955  18.255  0.00  0.00    +0.000 NA
ATOM      4  C   UNL     1      23.329   2.004  16.967  0.00  0.00    +0.000 C 
ATOM      5  N   UNL     1      23.353   3.272  15.977  0.00  0.00    +0.000 NA
ATOM      6  C   UNL     1      24.581   4.029  16.076  0.00  0.00    +0.000 A 
ATOM      7  S   UNL     1      25.617   4.826  14.951  0.00  0.00    +0.000 S 
ATOM      8  C   UNL     1      26.783   5.428  16.040  0.00  0.00    +0.000 A 
ATOM      9  C   UNL     1      26.330   4.990  17.258  0.00  0.00    +0.000 A 
ATOM     10  C   UNL     1      25.195   4.269  17.266  0.00  0.00    +0.000 A 
ATOM     11  C   UNL     1      27.256   5.434  18.384  0.00  0.00    +0.000 C 
ATOM     12  C   UNL     1      27.411   6.929  18.201  0.00  0.00    +0.000 C 
ATOM     13  C   UNL     1      28.308   7.143  17.009  0.00  0.00    +0.000 C 
ATOM     14  C   UNL     1      28.028   6.237  15.871  0.00  0.00    +0.000 C 
ENDROOT
BRANCH   4  15
ATOM     15  C   UNL     1      21.745   1.798  16.884  0.00  0.00    +0.000 A 
ATOM     16  C   UNL     1      20.948   2.437  17.760  0.00  0.00    +0.000 A 
ATOM     17  C   UNL     1      19.571   2.204  17.650  0.00  0.00    +0.000 A 
ATOM     18  C   UNL     1      19.129   1.356  16.674  0.00  0.00    +0.000 A 
ATOM     19  C   UNL     1      19.965   0.713  15.789  0.00  0.00    +0.000 A 
ATOM     20  N   UNL     1      21.308   0.976  15.941  0.00  0.00    +0.000 NA
ENDBRANCH   4  15
TORSDOF 1
ENDMDL
