MODEL 1
REMARK VINA RESULT:      -6.8      0.000      0.000
REMARK  Name = 
REMARK  1 active torsions:
REMARK  status: ('A' for Active; 'I' for Inactive)
REMARK    1  A    between atoms: C_5  and  C_7
REMARK                            x       y       z     vdW  Elec       q    Type
REMARK                         _______ _______ _______ _____ _____    ______ ____
ROOT
ATOM      1  C   UNL     1      32.595  -5.063  34.670  0.00  0.00    +0.000 C 
ATOM      2  C   UNL     1      33.831  -4.619  33.916  0.00  0.00    +0.000 C 
ATOM      3  C   UNL     1      34.389  -5.715  33.052  0.00  0.00    +0.000 C 
ATOM      4  C   UNL     1      33.509  -3.365  33.140  0.00  0.00    +0.000 C 
ATOM      5  C   UNL     1      33.319  -2.398  34.323  0.00  0.00    +0.000 C 
ATOM      6  C   UNL     1      32.011  -2.746  34.961  0.00  0.00    +0.000 C 
ATOM      7  C   UNL     1      34.486  -2.811  35.168  0.00  0.00    +0.000 A 
ATOM      8  C   UNL     1      35.203  -2.058  36.072  0.00  0.00    +0.000 A 
ATOM      9  C   UNL     1      36.254  -2.644  36.738  0.00  0.00    +0.000 A 
ATOM     10  N   UNL     1      37.022  -1.888  37.692  0.00  0.00    +0.000 NA
ATOM     11  C   UNL     1      36.552  -3.946  36.482  0.00  0.00    +0.000 A 
ATOM     12  C   UNL     1      35.863  -4.734  35.586  0.00  0.00    +0.000 A 
ATOM     13  C   UNL     1      34.801  -4.128  34.920  0.00  0.00    +0.000 A 
ENDROOT
BRANCH   5  14
ATOM     14  C   UNL     1      33.425  -1.002  33.877  0.00  0.00    +0.000 A 
ATOM     15  C   UNL     1      32.704   0.048  34.445  0.00  0.00    +0.000 A 
ATOM     16  C   UNL     1      32.839   1.350  33.983  0.00  0.00    +0.000 A 
ATOM     17  C   UNL     1      33.695   1.650  32.941  0.00  0.00    +0.000 A 
ATOM     18  N   UNL     1      33.814   2.998  32.488  0.00  0.00    +0.000 NA
ATOM     19  C   UNL     1      34.410   0.618  32.375  0.00  0.00    +0.000 A 
ATOM     20  C   UNL     1      34.270  -0.692  32.843  0.00  0.00    +0.000 A 
ENDBRANCH   5  14
TORSDOF 1
ENDMDL
MODEL 2
REMARK VINA RESULT:      -6.5     18.890     20.910
REMARK  Name = 
REMARK  1 active torsions:
REMARK  status: ('A' for Active; 'I' for Inactive)
REMARK    1  A    between atoms: C_5  and  C_7
REMARK                            x       y       z     vdW  Elec       q    Type
REMARK                         _______ _______ _______ _____ _____    ______ ____
ROOT
ATOM      1  C   UNL     1      18.048   9.392  40.672  0.00  0.00    +0.000 C 
ATOM      2  C   UNL     1      19.155   9.286  39.645  0.00  0.00    +0.000 C 
ATOM      3  C   UNL     1      20.228   8.322  40.071  0.00  0.00    +0.000 C 
ATOM      4  C   UNL     1      18.552   8.939  38.305  0.00  0.00    +0.000 C 
ATOM      5  C   UNL     1      17.802  10.257  38.038  0.00  0.00    +0.000 C 
ATOM      6  C   UNL     1      16.614  10.272  38.950  0.00  0.00    +0.000 C 
ATOM      7  C   UNL     1      18.856  11.232  38.468  0.00  0.00    +0.000 A 
ATOM      8  C   UNL     1      19.063  12.523  38.033  0.00  0.00    +0.000 A 
ATOM      9  C   UNL     1      20.109  13.242  38.563  0.00  0.00    +0.000 A 
ATOM     10  N   UNL     1      20.352  14.594  38.134  0.00  0.00    +0.000 NA
ATOM     11  C   UNL     1      20.904  12.656  39.498  0.00  0.00    +0.000 A 
ATOM     12  C   UNL     1      20.732  11.370  39.960  0.00  0.00    +0.000 A 
ATOM     13  C   UNL     1      19.670  10.654  39.415  0.00  0.00    +0.000 A 
ENDROOT
BRANCH   5  14
ATOM     14  C   UNL     1      17.473  10.389  36.612  0.00  0.00    +0.000 A 
ATOM     15  C   UNL     1      18.205   9.786  35.590  0.00  0.00    +0.000 A 
ATOM     16  C   UNL     1      17.853   9.945  34.258  0.00  0.00    +0.000 A 
ATOM     17  C   UNL     1      16.761  10.710  33.897  0.00  0.00    +0.000 A 
ATOM     18  N   UNL     1      16.420  10.856  32.519  0.00  0.00    +0.000 NA
ATOM     19  C   UNL     1      16.032  11.310  34.901  0.00  0.00    +0.000 A 
ATOM     20  C   UNL     1      16.391  11.147  36.242  0.00  0.00    +0.000 A 
ENDBRANCH   5  14
TORSDOF 1
ENDMDL
MODEL 3
REMARK VINA RESULT:      -6.4     17.931     21.033
REMARK  Name = 
REMARK  1 active torsions:
REMARK  status: ('A' for Active; 'I' for Inactive)
REMARK    1  A    between atoms: C_5  and  C_7
REMARK                            x       y       z     vdW  Elec       q    Type
REMARK                         _______ _______ _______ _____ _____    ______ ____
ROOT
ATOM      1  C   UNL     1      21.229   9.206  38.807  0.00  0.00    +0.000 C 
ATOM      2  C   UNL     1      21.169  10.066  37.562  0.00  0.00    +0.000 C 
ATOM      3  C   UNL     1      22.213   9.672  36.554  0.00  0.00    +0.000 C 
ATOM      4  C   UNL     1      19.767  10.024  37.003  0.00  0.00    +0.000 C 
ATOM      5  C   UNL     1      19.044  10.789  38.126  0.00  0.00    +0.000 C 
ATOM      6  C   UNL     1      18.967   9.865  39.300  0.00  0.00    +0.000 C 
ATOM      7  C   UNL     1      20.029  11.897  38.343  0.00  0.00    +0.000 A 
ATOM      8  C   UNL     1      19.799  13.175  38.804  0.00  0.00    +0.000 A 
ATOM      9  C   UNL     1      20.862  14.041  38.918  0.00  0.00    +0.000 A 
ATOM     10  N   UNL     1      20.659  15.382  39.399  0.00  0.00    +0.000 NA
ATOM     11  C   UNL     1      22.104  13.607  38.573  0.00  0.00    +0.000 A 
ATOM     12  C   UNL     1      22.378  12.340  38.108  0.00  0.00    +0.000 A 
ATOM     13  C   UNL     1      21.293  11.474  37.997  0.00  0.00    +0.000 A 
ENDROOT
BRANCH   5  14
ATOM     14  C   UNL     1      17.742  11.289  37.661  0.00  0.00    +0.000 A 
ATOM     15  C   UNL     1      17.594  12.349  36.768  0.00  0.00    +0.000 A 
ATOM     16  C   UNL     1      16.341  12.783  36.362  0.00  0.00    +0.000 A 
ATOM     17  C   UNL     1      15.192  12.177  36.833  0.00  0.00    +0.000 A 
ATOM     18  N   UNL     1      13.914  12.644  36.398  0.00  0.00    +0.000 NA
ATOM     19  C   UNL     1      15.329  11.129  37.716  0.00  0.00    +0.000 A 
ATOM     20  C   UNL     1      16.595  10.695  38.122  0.00  0.00    +0.000 A 
ENDBRANCH   5  14
TORSDOF 1
ENDMDL
MODEL 4
REMARK VINA RESULT:      -6.3     19.665     21.437
REMARK  Name = 
REMARK  1 active torsions:
REMARK  status: ('A' for Active; 'I' for Inactive)
REMARK    1  A    between atoms: C_5  and  C_7
REMARK                            x       y       z     vdW  Elec       q    Type
REMARK                         _______ _______ _______ _____ _____    ______ ____
ROOT
ATOM      1  C   UNL     1      17.632  11.041  35.645  0.00  0.00    +0.000 C 
ATOM      2  C   UNL     1      17.172  11.734  36.911  0.00  0.00    +0.000 C 
ATOM      3  C   UNL     1      16.247  12.883  36.620  0.00  0.00    +0.000 C 
ATOM      4  C   UNL     1      16.564  10.710  37.838  0.00  0.00    +0.000 C 
ATOM      5  C   UNL     1      17.839   9.919  38.184  0.00  0.00    +0.000 C 
ATOM      6  C   UNL     1      18.190   9.112  36.973  0.00  0.00    +0.000 C 
ATOM      7  C   UNL     1      18.787  11.061  38.394  0.00  0.00    +0.000 A 
ATOM      8  C   UNL     1      19.906  11.113  39.198  0.00  0.00    +0.000 A 
ATOM      9  C   UNL     1      20.632  12.280  39.248  0.00  0.00    +0.000 A 
ATOM     10  N   UNL     1      21.807  12.369  40.073  0.00  0.00    +0.000 NA
ATOM     11  C   UNL     1      20.223  13.343  38.504  0.00  0.00    +0.000 A 
ATOM     12  C   UNL     1      19.113  13.333  37.689  0.00  0.00    +0.000 A 
ATOM     13  C   UNL     1      18.386  12.146  37.648  0.00  0.00    +0.000 A 
ENDROOT
BRANCH   5  14
ATOM     14  C   UNL     1      17.646   9.126  39.406  0.00  0.00    +0.000 A 
ATOM     15  C   UNL     1      18.369   7.972  39.702  0.00  0.00    +0.000 A 
ATOM     16  C   UNL     1      18.144   7.258  40.870  0.00  0.00    +0.000 A 
ATOM     17  C   UNL     1      17.193   7.669  41.783  0.00  0.00    +0.000 A 
ATOM     18  N   UNL     1      16.984   6.916  42.978  0.00  0.00    +0.000 NA
ATOM     19  C   UNL     1      16.474   8.809  41.498  0.00  0.00    +0.000 A 
ATOM     20  C   UNL     1      16.703   9.525  40.319  0.00  0.00    +0.000 A 
ENDBRANCH   5  14
TORSDOF 1
ENDMDL
MODEL 5
REMARK VINA RESULT:      -6.3     18.741     21.258
REMARK  Name = 
REMARK  1 active torsions:
REMARK  status: ('A' for Active; 'I' for Inactive)
REMARK    1  A    between atoms: C_5  and  C_7
REMARK                            x       y       z     vdW  Elec       q    Type
REMARK                         _______ _______ _______ _____ _____    ______ ____
ROOT
ATOM      1  C   UNL     1      21.387   9.839  38.460  0.00  0.00    +0.000 C 
ATOM      2  C   UNL     1      20.614  10.971  39.103  0.00  0.00    +0.000 C 
ATOM      3  C   UNL     1      21.495  11.842  39.955  0.00  0.00    +0.000 C 
ATOM      4  C   UNL     1      19.887  11.743  38.027  0.00  0.00    +0.000 C 
ATOM      5  C   UNL     1      18.867  10.666  37.614  0.00  0.00    +0.000 C 
ATOM      6  C   UNL     1      19.620   9.632  36.837  0.00  0.00    +0.000 C 
ATOM      7  C   UNL     1      18.467  10.172  38.971  0.00  0.00    +0.000 A 
ATOM      8  C   UNL     1      17.272   9.609  39.364  0.00  0.00    +0.000 A 
ATOM      9  C   UNL     1      17.117   9.232  40.678  0.00  0.00    +0.000 A 
ATOM     10  N   UNL     1      15.883   8.639  41.122  0.00  0.00    +0.000 NA
ATOM     11  C   UNL     1      18.146   9.427  41.545  0.00  0.00    +0.000 A 
ATOM     12  C   UNL     1      19.355   9.986  41.195  0.00  0.00    +0.000 A 
ATOM     13  C   UNL     1      19.499  10.363  39.862  0.00  0.00    +0.000 A 
ENDROOT
BRANCH   5  14
ATOM     14  C   UNL     1      17.740  11.268  36.888  0.00  0.00    +0.000 A 
ATOM     15  C   UNL     1      17.166  12.492  37.229  0.00  0.00    +0.000 A 
ATOM     16  C   UNL     1      16.100  13.015  36.512  0.00  0.00    +0.000 A 
ATOM     17  C   UNL     1      15.569  12.338  35.431  0.00  0.00    +0.000 A 
ATOM     18  N   UNL     1      14.473  12.900  34.710  0.00  0.00    +0.000 NA
ATOM     19  C   UNL     1      16.131  11.127  35.088  0.00  0.00    +0.000 A 
ATOM     20  C   UNL     1      17.205  10.604  35.815  0.00  0.00    +0.000 A 
ENDBRANCH   5  14
TORSDOF 1
ENDMDL
MODEL 6
REMARK VINA RESULT:      -6.3     25.849     28.431
REMARK  Name = 
REMARK  1 active torsions:
REMARK  status: ('A' for Active; 'I' for Inactive)
REMARK    1  A    between atoms: C_5  and  C_7
REMARK                            x       y       z     vdW  Elec       q    Type
REMARK                         _______ _______ _______ _____ _____    ______ ____
ROOT
ATOM      1  C   UNL     1      30.636  26.179  25.045  0.00  0.00    +0.000 C 
ATOM      2  C   UNL     1      30.629  24.667  25.116  0.00  0.00    +0.000 C 
ATOM      3  C   UNL     1      31.936  24.075  24.666  0.00  0.00    +0.000 C 
ATOM      4  C   UNL     1      30.241  24.242  26.512  0.00  0.00    +0.000 C 
ATOM      5  C   UNL     1      28.774  24.709  26.500  0.00  0.00    +0.000 C 
ATOM      6  C   UNL     1      28.794  26.203  26.595  0.00  0.00    +0.000 C 
ATOM      7  C   UNL     1      28.376  24.236  25.136  0.00  0.00    +0.000 A 
ATOM      8  C   UNL     1      27.128  23.864  24.684  0.00  0.00    +0.000 A 
ATOM      9  C   UNL     1      26.991  23.448  23.380  0.00  0.00    +0.000 A 
ATOM     10  N   UNL     1      25.702  23.056  22.874  0.00  0.00    +0.000 NA
ATOM     11  C   UNL     1      28.091  23.417  22.580  0.00  0.00    +0.000 A 
ATOM     12  C   UNL     1      29.354  23.779  22.991  0.00  0.00    +0.000 A 
ATOM     13  C   UNL     1      29.479  24.198  24.312  0.00  0.00    +0.000 A 
ENDROOT
BRANCH   5  14
ATOM     14  C   UNL     1      28.008  24.044  27.564  0.00  0.00    +0.000 A 
ATOM     15  C   UNL     1      26.874  24.595  28.160  0.00  0.00    +0.000 A 
ATOM     16  C   UNL     1      26.188  23.926  29.163  0.00  0.00    +0.000 A 
ATOM     17  C   UNL     1      26.606  22.686  29.606  0.00  0.00    +0.000 A 
ATOM     18  N   UNL     1      25.880  22.019  30.639  0.00  0.00    +0.000 NA
ATOM     19  C   UNL     1      27.726  22.135  29.022  0.00  0.00    +0.000 A 
ATOM     20  C   UNL     1      28.415  22.814  28.012  0.00  0.00    +0.000 A 
ENDBRANCH   5  14
TORSDOF 1
ENDMDL
MODEL 7
REMARK VINA RESULT:      -6.2     17.558     19.542
REMARK  Name = 
REMARK  1 active torsions:
REMARK  status: ('A' for Active; 'I' for Inactive)
REMARK    1  A    between atoms: C_5  and  C_7
REMARK                            x       y       z     vdW  Elec       q    Type
REMARK                         _______ _______ _______ _____ _____    ______ ____
ROOT
ATOM      1  C   UNL     1      17.382   9.659  42.533  0.00  0.00    +0.000 C 
ATOM      2  C   UNL     1      16.950   9.152  41.173  0.00  0.00    +0.000 C 
ATOM      3  C   UNL     1      15.460   9.231  40.989  0.00  0.00    +0.000 C 
ATOM      4  C   UNL     1      17.714   9.898  40.105  0.00  0.00    +0.000 C 
ATOM      5  C   UNL     1      19.119   9.332  40.383  0.00  0.00    +0.000 C 
ATOM      6  C   UNL     1      19.600   9.968  41.649  0.00  0.00    +0.000 C 
ATOM      7  C   UNL     1      18.768   7.887  40.575  0.00  0.00    +0.000 A 
ATOM      8  C   UNL     1      19.548   6.775  40.346  0.00  0.00    +0.000 A 
ATOM      9  C   UNL     1      19.014   5.529  40.585  0.00  0.00    +0.000 A 
ATOM     10  N   UNL     1      19.802   4.346  40.359  0.00  0.00    +0.000 NA
ATOM     11  C   UNL     1      17.735   5.437  41.038  0.00  0.00    +0.000 A 
ATOM     12  C   UNL     1      16.922   6.522  41.279  0.00  0.00    +0.000 A 
ATOM     13  C   UNL     1      17.475   7.776  41.034  0.00  0.00    +0.000 A 
ENDROOT
BRANCH   5  14
ATOM     14  C   UNL     1      20.002   9.539  39.226  0.00  0.00    +0.000 A 
ATOM     15  C   UNL     1      19.549   9.604  37.910  0.00  0.00    +0.000 A 
ATOM     16  C   UNL     1      20.426   9.799  36.853  0.00  0.00    +0.000 A 
ATOM     17  C   UNL     1      21.783   9.935  37.071  0.00  0.00    +0.000 A 
ATOM     18  N   UNL     1      22.663  10.135  35.964  0.00  0.00    +0.000 NA
ATOM     19  C   UNL     1      22.239   9.871  38.369  0.00  0.00    +0.000 A 
ATOM     20  C   UNL     1      21.351   9.674  39.431  0.00  0.00    +0.000 A 
ENDBRANCH   5  14
TORSDOF 1
ENDMDL
MODEL 8
REMARK VINA RESULT:      -6.0     26.074     28.207
REMARK  Name = 
REMARK  1 active torsions:
REMARK  status: ('A' for Active; 'I' for Inactive)
REMARK    1  A    between atoms: C_5  and  C_7
REMARK                            x       y       z     vdW  Elec       q    Type
REMARK                         _______ _______ _______ _____ _____    ______ ____
ROOT
ATOM      1  C   UNL     1      27.916  21.789  27.854  0.00  0.00    +0.000 C 
ATOM      2  C   UNL     1      27.682  23.237  27.479  0.00  0.00    +0.000 C 
ATOM      3  C   UNL     1      26.582  23.860  28.292  0.00  0.00    +0.000 C 
ATOM      4  C   UNL     1      28.987  23.989  27.583  0.00  0.00    +0.000 C 
ATOM      5  C   UNL     1      29.735  23.325  26.412  0.00  0.00    +0.000 C 
ATOM      6  C   UNL     1      30.103  21.945  26.860  0.00  0.00    +0.000 C 
ATOM      7  C   UNL     1      28.635  23.312  25.393  0.00  0.00    +0.000 A 
ATOM      8  C   UNL     1      28.735  23.344  24.019  0.00  0.00    +0.000 A 
ATOM      9  C   UNL     1      27.582  23.335  23.270  0.00  0.00    +0.000 A 
ATOM     10  N   UNL     1      27.649  23.364  21.833  0.00  0.00    +0.000 NA
ATOM     11  C   UNL     1      26.381  23.295  23.909  0.00  0.00    +0.000 A 
ATOM     12  C   UNL     1      26.237  23.263  25.278  0.00  0.00    +0.000 A 
ATOM     13  C   UNL     1      27.413  23.273  26.024  0.00  0.00    +0.000 A 
ENDROOT
BRANCH   5  14
ATOM     14  C   UNL     1      30.875  24.149  25.987  0.00  0.00    +0.000 A 
ATOM     15  C   UNL     1      32.023  23.632  25.388  0.00  0.00    +0.000 A 
ATOM     16  C   UNL     1      33.073  24.455  25.008  0.00  0.00    +0.000 A 
ATOM     17  C   UNL     1      33.016  25.820  25.212  0.00  0.00    +0.000 A 
ATOM     18  N   UNL     1      34.111  26.644  24.810  0.00  0.00    +0.000 NA
ATOM     19  C   UNL     1      31.885  26.339  25.803  0.00  0.00    +0.000 A 
ATOM     20  C   UNL     1      30.830  25.505  26.185  0.00  0.00    +0.000 A 
ENDBRANCH   5  14
TORSDOF 1
ENDMDL
MODEL 9
REMARK VINA RESULT:      -6.0     15.586     17.565
REMARK  Name = 
REMARK  1 active torsions:
REMARK  status: ('A' for Active; 'I' for Inactive)
REMARK    1  A    between atoms: C_5  and  C_7
REMARK                            x       y       z     vdW  Elec       q    Type
REMARK                         _______ _______ _______ _____ _____    ______ ____
ROOT
ATOM      1  C   UNL     1      18.686 -10.623  26.055  0.00  0.00    +0.000 C 
ATOM      2  C   UNL     1      19.589  -9.906  27.037  0.00  0.00    +0.000 C 
ATOM      3  C   UNL     1      19.557 -10.541  28.400  0.00  0.00    +0.000 C 
ATOM      4  C   UNL     1      20.981  -9.827  26.458  0.00  0.00    +0.000 C 
ATOM      5  C   UNL     1      20.698  -8.855  25.298  0.00  0.00    +0.000 C 
ATOM      6  C   UNL     1      19.944  -9.626  24.260  0.00  0.00    +0.000 C 
ATOM      7  C   UNL     1      19.826  -7.868  26.012  0.00  0.00    +0.000 A 
ATOM      8  C   UNL     1      19.647  -6.527  25.746  0.00  0.00    +0.000 A 
ATOM      9  C   UNL     1      18.796  -5.800  26.544  0.00  0.00    +0.000 A 
ATOM     10  N   UNL     1      18.584  -4.399  26.293  0.00  0.00    +0.000 NA
ATOM     11  C   UNL     1      18.159  -6.426  27.570  0.00  0.00    +0.000 A 
ATOM     12  C   UNL     1      18.309  -7.762  27.871  0.00  0.00    +0.000 A 
ATOM     13  C   UNL     1      19.174  -8.486  27.054  0.00  0.00    +0.000 A 
ENDROOT
BRANCH   5  14
ATOM     14  C   UNL     1      21.945  -8.246  24.814  0.00  0.00    +0.000 A 
ATOM     15  C   UNL     1      22.212  -6.879  24.875  0.00  0.00    +0.000 A 
ATOM     16  C   UNL     1      23.405  -6.354  24.401  0.00  0.00    +0.000 A 
ATOM     17  C   UNL     1      24.373  -7.172  23.850  0.00  0.00    +0.000 A 
ATOM     18  N   UNL     1      25.593  -6.605  23.370  0.00  0.00    +0.000 NA
ATOM     19  C   UNL     1      24.117  -8.524  23.786  0.00  0.00    +0.000 A 
ATOM     20  C   UNL     1      22.912  -9.048  24.265  0.00  0.00    +0.000 A 
ENDBRANCH   5  14
TORSDOF 1
ENDMDL
MODEL 10
REMARK VINA RESULT:      -5.9     35.918     37.826
REMARK  Name = 
REMARK  1 active torsions:
REMARK  status: ('A' for Active; 'I' for Inactive)
REMARK    1  A    between atoms: C_5  and  C_7
REMARK                            x       y       z     vdW  Elec       q    Type
REMARK                         _______ _______ _______ _____ _____    ______ ____
ROOT
ATOM      1  C   UNL     1      -1.738   5.059  46.598  0.00  0.00    +0.000 C 
ATOM      2  C   UNL     1      -1.468   4.554  45.197  0.00  0.00    +0.000 C 
ATOM      3  C   UNL     1      -1.424   3.052  45.137  0.00  0.00    +0.000 C 
ATOM      4  C   UNL     1      -2.486   5.150  44.254  0.00  0.00    +0.000 C 
ATOM      5  C   UNL     1      -2.026   6.619  44.310  0.00  0.00    +0.000 C 
ATOM      6  C   UNL     1      -2.447   7.153  45.643  0.00  0.00    +0.000 C 
ATOM      7  C   UNL     1      -0.544   6.416  44.226  0.00  0.00    +0.000 A 
ATOM      8  C   UNL     1       0.414   7.268  43.719  0.00  0.00    +0.000 A 
ATOM      9  C   UNL     1       1.730   6.870  43.733  0.00  0.00    +0.000 A 
ATOM     10  N   UNL     1       2.756   7.736  43.215  0.00  0.00    +0.000 NA
ATOM     11  C   UNL     1       2.044   5.650  44.246  0.00  0.00    +0.000 A 
ATOM     12  C   UNL     1       1.120   4.769  44.762  0.00  0.00    +0.000 A 
ATOM     13  C   UNL     1      -0.209   5.184  44.741  0.00  0.00    +0.000 A 
ENDROOT
BRANCH   5  14
ATOM     14  C   UNL     1      -2.549   7.372  43.162  0.00  0.00    +0.000 A 
ATOM     15  C   UNL     1      -2.529   8.764  43.076  0.00  0.00    +0.000 A 
ATOM     16  C   UNL     1      -3.039   9.427  41.970  0.00  0.00    +0.000 A 
ATOM     17  C   UNL     1      -3.586   8.727  40.911  0.00  0.00    +0.000 A 
ATOM     18  N   UNL     1      -4.103   9.436  39.784  0.00  0.00    +0.000 NA
ATOM     19  C   UNL     1      -3.610   7.352  40.989  0.00  0.00    +0.000 A 
ATOM     20  C   UNL     1      -3.095   6.689  42.106  0.00  0.00    +0.000 A 
ENDBRANCH   5  14
TORSDOF 1
ENDMDL
