MODEL 1
REMARK VINA RESULT:      -7.1      0.000      0.000
REMARK  Name = 
REMARK  1 active torsions:
REMARK  status: ('A' for Active; 'I' for Inactive)
REMARK    1  A    between atoms: C_2  and  C_3
REMARK                            x       y       z     vdW  Elec       q    Type
REMARK                         _______ _______ _______ _____ _____    ______ ____
ROOT
ATOM      1  C   UNL     1      26.161  25.773  28.050  0.00  0.00    +0.000 C 
ATOM      2  O   UNL     1      25.353  25.067  28.960  0.00  0.00    +0.000 OA
ATOM      3  C   UNL     1      25.269  26.190  26.919  0.00  0.00    +0.000 C 
ATOM      4  C   UNL     1      26.239  26.353  25.829  0.00  0.00    +0.000 C 
ATOM      5  C   UNL     1      27.141  25.013  25.921  0.00  0.00    +0.000 C 
ATOM      6  C   UNL     1      25.850  23.943  25.888  0.00  0.00    +0.000 C 
ATOM      7  C   UNL     1      25.294  24.382  24.484  0.00  0.00    +0.000 C 
ATOM      8  C   UNL     1      25.553  23.305  23.451  0.00  0.00    +0.000 C 
ATOM      9  C   UNL     1      27.050  23.454  23.316  0.00  0.00    +0.000 A 
ATOM     10  C   UNL     1      27.652  23.927  22.167  0.00  0.00    +0.000 A 
ATOM     11  C   UNL     1      29.041  24.022  22.230  0.00  0.00    +0.000 A 
ATOM     12  O   UNL     1      29.662  24.498  21.079  0.00  0.00    +0.000 OA
ATOM     13  C   UNL     1      29.724  23.666  23.358  0.00  0.00    +0.000 A 
ATOM     14  C   UNL     1      29.056  23.189  24.498  0.00  0.00    +0.000 A 
ATOM     15  C   UNL     1      27.719  23.099  24.435  0.00  0.00    +0.000 A 
ATOM     16  C   UNL     1      26.767  22.584  25.530  0.00  0.00    +0.000 C 
ATOM     17  C   UNL     1      27.832  22.723  26.774  0.00  0.00    +0.000 C 
ATOM     18  C   UNL     1      26.903  23.423  27.917  0.00  0.00    +0.000 C 
ATOM     19  C   UNL     1      28.008  23.218  29.108  0.00  0.00    +0.000 C 
ATOM     20  C   UNL     1      27.277  24.967  27.531  0.00  0.00    +0.000 C 
ATOM     21  C   UNL     1      28.628  25.308  27.919  0.00  0.00    +0.000 C 
ENDROOT
BRANCH   1  23
ATOM     22  C   UNL     1      27.014  28.028  29.236  0.00  0.00    +0.000 C 
ATOM     23  C   UNL     1      26.638  27.009  28.696  0.00  0.00    +0.000 C 
ENDBRANCH   1  23
TORSDOF 1
ENDMDL
MODEL 2
REMARK VINA RESULT:      -7.0      1.862      5.572
REMARK  Name = 
REMARK  1 active torsions:
REMARK  status: ('A' for Active; 'I' for Inactive)
REMARK    1  A    between atoms: C_2  and  C_3
REMARK                            x       y       z     vdW  Elec       q    Type
REMARK                         _______ _______ _______ _____ _____    ______ ____
ROOT
ATOM      1  C   UNL     1      28.337  24.335  22.754  0.00  0.00    +0.000 C 
ATOM      2  O   UNL     1      27.931  23.256  21.948  0.00  0.00    +0.000 OA
ATOM      3  C   UNL     1      29.795  24.130  23.042  0.00  0.00    +0.000 C 
ATOM      4  C   UNL     1      29.956  24.892  24.287  0.00  0.00    +0.000 C 
ATOM      5  C   UNL     1      28.703  24.409  25.190  0.00  0.00    +0.000 C 
ATOM      6  C   UNL     1      29.013  22.768  25.036  0.00  0.00    +0.000 C 
ATOM      7  C   UNL     1      30.444  22.797  25.688  0.00  0.00    +0.000 C 
ATOM      8  C   UNL     1      30.419  22.146  27.054  0.00  0.00    +0.000 C 
ATOM      9  C   UNL     1      29.649  23.202  27.812  0.00  0.00    +0.000 A 
ATOM     10  C   UNL     1      30.222  23.976  28.801  0.00  0.00    +0.000 A 
ATOM     11  C   UNL     1      29.369  24.918  29.375  0.00  0.00    +0.000 A 
ATOM     12  O   UNL     1      29.932  25.707  30.374  0.00  0.00    +0.000 OA
ATOM     13  C   UNL     1      28.071  25.039  28.966  0.00  0.00    +0.000 A 
ATOM     14  C   UNL     1      27.544  24.221  27.954  0.00  0.00    +0.000 A 
ATOM     15  C   UNL     1      28.367  23.315  27.403  0.00  0.00    +0.000 A 
ATOM     16  C   UNL     1      28.024  22.291  26.306  0.00  0.00    +0.000 C 
ATOM     17  C   UNL     1      26.654  23.034  25.787  0.00  0.00    +0.000 C 
ATOM     18  C   UNL     1      26.845  22.970  24.169  0.00  0.00    +0.000 C 
ATOM     19  C   UNL     1      25.318  23.471  23.850  0.00  0.00    +0.000 C 
ATOM     20  C   UNL     1      27.590  24.417  24.019  0.00  0.00    +0.000 C 
ATOM     21  C   UNL     1      26.674  25.519  24.222  0.00  0.00    +0.000 C 
ENDROOT
BRANCH   1  23
ATOM     22  C   UNL     1      28.142  26.598  21.319  0.00  0.00    +0.000 C 
ATOM     23  C   UNL     1      28.226  25.580  21.975  0.00  0.00    +0.000 C 
ENDBRANCH   1  23
TORSDOF 1
ENDMDL
MODEL 3
REMARK VINA RESULT:      -6.8      2.007      5.628
REMARK  Name = 
REMARK  1 active torsions:
REMARK  status: ('A' for Active; 'I' for Inactive)
REMARK    1  A    between atoms: C_2  and  C_3
REMARK                            x       y       z     vdW  Elec       q    Type
REMARK                         _______ _______ _______ _____ _____    ______ ____
ROOT
ATOM      1  C   UNL     1      30.962  23.965  25.652  0.00  0.00    +0.000 C 
ATOM      2  O   UNL     1      31.440  22.829  24.973  0.00  0.00    +0.000 OA
ATOM      3  C   UNL     1      31.176  23.712  27.115  0.00  0.00    +0.000 C 
ATOM      4  C   UNL     1      30.167  24.595  27.713  0.00  0.00    +0.000 C 
ATOM      5  C   UNL     1      28.833  24.283  26.851  0.00  0.00    +0.000 C 
ATOM      6  C   UNL     1      28.885  22.620  27.064  0.00  0.00    +0.000 C 
ATOM      7  C   UNL     1      28.779  22.641  28.633  0.00  0.00    +0.000 C 
ATOM      8  C   UNL     1      27.421  22.145  29.080  0.00  0.00    +0.000 C 
ATOM      9  C   UNL     1      26.577  23.318  28.640  0.00  0.00    +0.000 A 
ATOM     10  C   UNL     1      25.950  24.162  29.535  0.00  0.00    +0.000 A 
ATOM     11  C   UNL     1      25.235  25.207  28.952  0.00  0.00    +0.000 A 
ATOM     12  O   UNL     1      24.597  26.067  29.841  0.00  0.00    +0.000 OA
ATOM     13  C   UNL     1      25.179  25.354  27.594  0.00  0.00    +0.000 A 
ATOM     14  C   UNL     1      25.838  24.461  26.734  0.00  0.00    +0.000 A 
ATOM     15  C   UNL     1      26.526  23.457  27.298  0.00  0.00    +0.000 A 
ATOM     16  C   UNL     1      27.303  22.340  26.577  0.00  0.00    +0.000 C 
ATOM     17  C   UNL     1      27.400  23.097  25.123  0.00  0.00    +0.000 C 
ATOM     18  C   UNL     1      28.963  22.847  24.732  0.00  0.00    +0.000 C 
ATOM     19  C   UNL     1      28.790  23.395  23.198  0.00  0.00    +0.000 C 
ATOM     20  C   UNL     1      29.537  24.226  25.397  0.00  0.00    +0.000 C 
ATOM     21  C   UNL     1      29.164  25.392  24.626  0.00  0.00    +0.000 C 
ENDROOT
BRANCH   1  23
ATOM     22  C   UNL     1      32.503  26.068  25.003  0.00  0.00    +0.000 C 
ATOM     23  C   UNL     1      31.799  25.122  25.291  0.00  0.00    +0.000 C 
ENDBRANCH   1  23
TORSDOF 1
ENDMDL
MODEL 4
REMARK VINA RESULT:      -6.8      1.993      2.988
REMARK  Name = 
REMARK  1 active torsions:
REMARK  status: ('A' for Active; 'I' for Inactive)
REMARK    1  A    between atoms: C_2  and  C_3
REMARK                            x       y       z     vdW  Elec       q    Type
REMARK                         _______ _______ _______ _____ _____    ______ ____
ROOT
ATOM      1  C   UNL     1      27.709  23.280  27.072  0.00  0.00    +0.000 C 
ATOM      2  O   UNL     1      27.908  21.903  27.282  0.00  0.00    +0.000 OA
ATOM      3  C   UNL     1      26.361  23.426  26.432  0.00  0.00    +0.000 C 
ATOM      4  C   UNL     1      26.503  24.715  25.744  0.00  0.00    +0.000 C 
ATOM      5  C   UNL     1      27.933  24.588  24.996  0.00  0.00    +0.000 C 
ATOM      6  C   UNL     1      27.589  23.137  24.229  0.00  0.00    +0.000 C 
ATOM      7  C   UNL     1      26.354  23.660  23.408  0.00  0.00    +0.000 C 
ATOM      8  C   UNL     1      26.701  23.769  21.939  0.00  0.00    +0.000 C 
ATOM      9  C   UNL     1      27.633  24.956  21.996  0.00  0.00    +0.000 A 
ATOM     10  C   UNL     1      27.315  26.181  21.444  0.00  0.00    +0.000 A 
ATOM     11  C   UNL     1      28.283  27.169  21.615  0.00  0.00    +0.000 A 
ATOM     12  O   UNL     1      27.976  28.411  21.065  0.00  0.00    +0.000 OA
ATOM     13  C   UNL     1      29.447  26.911  22.282  0.00  0.00    +0.000 A 
ATOM     14  C   UNL     1      29.715  25.643  22.822  0.00  0.00    +0.000 A 
ATOM     15  C   UNL     1      28.782  24.693  22.656  0.00  0.00    +0.000 A 
ATOM     16  C   UNL     1      28.850  23.228  23.124  0.00  0.00    +0.000 C 
ATOM     17  C   UNL     1      30.060  23.443  24.214  0.00  0.00    +0.000 C 
ATOM     18  C   UNL     1      29.490  22.615  25.498  0.00  0.00    +0.000 C 
ATOM     19  C   UNL     1      30.899  22.701  26.329  0.00  0.00    +0.000 C 
ATOM     20  C   UNL     1      28.736  23.881  26.207  0.00  0.00    +0.000 C 
ATOM     21  C   UNL     1      29.679  24.816  26.782  0.00  0.00    +0.000 C 
ENDROOT
BRANCH   1  23
ATOM     22  C   UNL     1      27.561  24.519  29.452  0.00  0.00    +0.000 C 
ATOM     23  C   UNL     1      27.637  23.956  28.379  0.00  0.00    +0.000 C 
ENDBRANCH   1  23
TORSDOF 1
ENDMDL
MODEL 5
REMARK VINA RESULT:      -6.7     21.934     24.068
REMARK  Name = 
REMARK  1 active torsions:
REMARK  status: ('A' for Active; 'I' for Inactive)
REMARK    1  A    between atoms: C_2  and  C_3
REMARK                            x       y       z     vdW  Elec       q    Type
REMARK                         _______ _______ _______ _____ _____    ______ ____
ROOT
ATOM      1  C   UNL     1      37.012   6.169  37.675  0.00  0.00    +0.000 C 
ATOM      2  O   UNL     1      36.556   7.040  38.681  0.00  0.00    +0.000 OA
ATOM      3  C   UNL     1      36.807   6.878  36.369  0.00  0.00    +0.000 C 
ATOM      4  C   UNL     1      36.733   5.749  35.434  0.00  0.00    +0.000 C 
ATOM      5  C   UNL     1      35.714   4.723  36.160  0.00  0.00    +0.000 C 
ATOM      6  C   UNL     1      34.489   5.845  36.391  0.00  0.00    +0.000 C 
ATOM      7  C   UNL     1      34.266   6.178  34.871  0.00  0.00    +0.000 C 
ATOM      8  C   UNL     1      32.952   5.601  34.388  0.00  0.00    +0.000 C 
ATOM      9  C   UNL     1      33.314   4.135  34.393  0.00  0.00    +0.000 A 
ATOM     10  C   UNL     1      33.431   3.392  33.235  0.00  0.00    +0.000 A 
ATOM     11  C   UNL     1      33.799   2.061  33.428  0.00  0.00    +0.000 A 
ATOM     12  O   UNL     1      33.922   1.299  32.269  0.00  0.00    +0.000 OA
ATOM     13  C   UNL     1      34.018   1.562  34.681  0.00  0.00    +0.000 A 
ATOM     14  C   UNL     1      33.882   2.368  35.823  0.00  0.00    +0.000 A 
ATOM     15  C   UNL     1      33.528   3.648  35.635  0.00  0.00    +0.000 A 
ATOM     16  C   UNL     1      33.288   4.717  36.717  0.00  0.00    +0.000 C 
ATOM     17  C   UNL     1      34.072   3.928  37.926  0.00  0.00    +0.000 C 
ATOM     18  C   UNL     1      34.960   5.133  38.575  0.00  0.00    +0.000 C 
ATOM     19  C   UNL     1      35.418   4.253  39.878  0.00  0.00    +0.000 C 
ATOM     20  C   UNL     1      36.292   4.886  37.660  0.00  0.00    +0.000 C 
ATOM     21  C   UNL     1      36.996   3.682  38.047  0.00  0.00    +0.000 C 
ENDROOT
BRANCH   1  23
ATOM     22  C   UNL     1      39.661   5.835  37.969  0.00  0.00    +0.000 C 
ATOM     23  C   UNL     1      38.464   5.976  37.834  0.00  0.00    +0.000 C 
ENDBRANCH   1  23
TORSDOF 1
ENDMDL
MODEL 6
REMARK VINA RESULT:      -6.7      2.560      5.115
REMARK  Name = 
REMARK  1 active torsions:
REMARK  status: ('A' for Active; 'I' for Inactive)
REMARK    1  A    between atoms: C_2  and  C_3
REMARK                            x       y       z     vdW  Elec       q    Type
REMARK                         _______ _______ _______ _____ _____    ______ ____
ROOT
ATOM      1  C   UNL     1      27.645  26.230  23.058  0.00  0.00    +0.000 C 
ATOM      2  O   UNL     1      27.500  25.904  21.697  0.00  0.00    +0.000 OA
ATOM      3  C   UNL     1      29.052  26.717  23.234  0.00  0.00    +0.000 C 
ATOM      4  C   UNL     1      29.274  26.458  24.662  0.00  0.00    +0.000 C 
ATOM      5  C   UNL     1      28.730  24.946  24.860  0.00  0.00    +0.000 C 
ATOM      6  C   UNL     1      29.644  24.279  23.623  0.00  0.00    +0.000 C 
ATOM      7  C   UNL     1      31.049  24.658  24.218  0.00  0.00    +0.000 C 
ATOM      8  C   UNL     1      31.762  23.422  24.724  0.00  0.00    +0.000 C 
ATOM      9  C   UNL     1      30.914  23.133  25.940  0.00  0.00    +0.000 A 
ATOM     10  C   UNL     1      31.391  23.262  27.230  0.00  0.00    +0.000 A 
ATOM     11  C   UNL     1      30.461  22.979  28.229  0.00  0.00    +0.000 A 
ATOM     12  O   UNL     1      30.927  23.104  29.535  0.00  0.00    +0.000 OA
ATOM     13  C   UNL     1      29.184  22.605  27.921  0.00  0.00    +0.000 A 
ATOM     14  C   UNL     1      28.756  22.491  26.588  0.00  0.00    +0.000 A 
ATOM     15  C   UNL     1      29.653  22.764  25.628  0.00  0.00    +0.000 A 
ATOM     16  C   UNL     1      29.441  22.684  24.106  0.00  0.00    +0.000 C 
ATOM     17  C   UNL     1      27.799  22.693  24.152  0.00  0.00    +0.000 C 
ATOM     18  C   UNL     1      27.448  23.771  22.978  0.00  0.00    +0.000 C 
ATOM     19  C   UNL     1      25.846  23.433  22.983  0.00  0.00    +0.000 C 
ATOM     20  C   UNL     1      27.402  25.085  23.950  0.00  0.00    +0.000 C 
ATOM     21  C   UNL     1      26.227  25.090  24.794  0.00  0.00    +0.000 C 
ENDROOT
BRANCH   1  23
ATOM     22  C   UNL     1      26.023  28.288  23.651  0.00  0.00    +0.000 C 
ATOM     23  C   UNL     1      26.757  27.362  23.374  0.00  0.00    +0.000 C 
ENDBRANCH   1  23
TORSDOF 1
ENDMDL
MODEL 7
REMARK VINA RESULT:      -6.5      3.109      4.661
REMARK  Name = 
REMARK  1 active torsions:
REMARK  status: ('A' for Active; 'I' for Inactive)
REMARK    1  A    between atoms: C_2  and  C_3
REMARK                            x       y       z     vdW  Elec       q    Type
REMARK                         _______ _______ _______ _____ _____    ______ ____
ROOT
ATOM      1  C   UNL     1      31.833  25.892  27.289  0.00  0.00    +0.000 C 
ATOM      2  O   UNL     1      32.995  25.312  27.830  0.00  0.00    +0.000 OA
ATOM      3  C   UNL     1      30.744  25.690  28.301  0.00  0.00    +0.000 C 
ATOM      4  C   UNL     1      29.545  25.761  27.456  0.00  0.00    +0.000 C 
ATOM      5  C   UNL     1      29.908  24.802  26.204  0.00  0.00    +0.000 C 
ATOM      6  C   UNL     1      30.334  23.473  27.134  0.00  0.00    +0.000 C 
ATOM      7  C   UNL     1      28.940  23.297  27.838  0.00  0.00    +0.000 C 
ATOM      8  C   UNL     1      28.233  22.064  27.315  0.00  0.00    +0.000 C 
ATOM      9  C   UNL     1      27.884  22.554  25.930  0.00  0.00    +0.000 A 
ATOM     10  C   UNL     1      26.585  22.793  25.528  0.00  0.00    +0.000 A 
ATOM     11  C   UNL     1      26.453  23.266  24.224  0.00  0.00    +0.000 A 
ATOM     12  O   UNL     1      25.149  23.512  23.804  0.00  0.00    +0.000 OA
ATOM     13  C   UNL     1      27.547  23.466  23.430  0.00  0.00    +0.000 A 
ATOM     14  C   UNL     1      28.846  23.203  23.895  0.00  0.00    +0.000 A 
ATOM     15  C   UNL     1      28.970  22.748  25.150  0.00  0.00    +0.000 A 
ATOM     16  C   UNL     1      30.272  22.362  25.876  0.00  0.00    +0.000 C 
ATOM     17  C   UNL     1      31.289  23.152  24.856  0.00  0.00    +0.000 C 
ATOM     18  C   UNL     1      32.287  23.898  25.908  0.00  0.00    +0.000 C 
ATOM     19  C   UNL     1      33.348  24.367  24.751  0.00  0.00    +0.000 C 
ATOM     20  C   UNL     1      31.436  25.290  26.007  0.00  0.00    +0.000 C 
ATOM     21  C   UNL     1      31.548  26.077  24.798  0.00  0.00    +0.000 C 
ENDROOT
BRANCH   1  23
ATOM     22  C   UNL     1      32.221  28.542  27.078  0.00  0.00    +0.000 C 
ATOM     23  C   UNL     1      32.039  27.345  27.167  0.00  0.00    +0.000 C 
ENDBRANCH   1  23
TORSDOF 1
ENDMDL
MODEL 8
REMARK VINA RESULT:      -6.1     33.342     35.126
REMARK  Name = 
REMARK  1 active torsions:
REMARK  status: ('A' for Active; 'I' for Inactive)
REMARK    1  A    between atoms: C_2  and  C_3
REMARK                            x       y       z     vdW  Elec       q    Type
REMARK                         _______ _______ _______ _____ _____    ______ ____
ROOT
ATOM      1  C   UNL     1      17.489 -10.944  28.997  0.00  0.00    +0.000 C 
ATOM      2  O   UNL     1      16.112 -11.216  28.920  0.00  0.00    +0.000 OA
ATOM      3  C   UNL     1      17.622  -9.578  29.604  0.00  0.00    +0.000 C 
ATOM      4  C   UNL     1      18.941  -9.166  29.107  0.00  0.00    +0.000 C 
ATOM      5  C   UNL     1      18.884  -9.536  27.533  0.00  0.00    +0.000 C 
ATOM      6  C   UNL     1      17.455  -8.715  27.223  0.00  0.00    +0.000 C 
ATOM      7  C   UNL     1      17.976  -7.292  27.644  0.00  0.00    +0.000 C 
ATOM      8  C   UNL     1      18.152  -6.409  26.426  0.00  0.00    +0.000 C 
ATOM      9  C   UNL     1      19.362  -7.077  25.816  0.00  0.00    +0.000 A 
ATOM     10  C   UNL     1      20.599  -6.465  25.754  0.00  0.00    +0.000 A 
ATOM     11  C   UNL     1      21.606  -7.240  25.180  0.00  0.00    +0.000 A 
ATOM     12  O   UNL     1      22.859  -6.637  25.111  0.00  0.00    +0.000 OA
ATOM     13  C   UNL     1      21.355  -8.503  24.725  0.00  0.00    +0.000 A 
ATOM     14  C   UNL     1      20.074  -9.072  24.815  0.00  0.00    +0.000 A 
ATOM     15  C   UNL     1      19.106  -8.325  25.367  0.00  0.00    +0.000 A 
ATOM     16  C   UNL     1      17.626  -8.706  25.553  0.00  0.00    +0.000 C 
ATOM     17  C   UNL     1      17.832 -10.325  25.361  0.00  0.00    +0.000 C 
ATOM     18  C   UNL     1      16.938 -10.912  26.592  0.00  0.00    +0.000 C 
ATOM     19  C   UNL     1      17.031 -12.464  26.075  0.00  0.00    +0.000 C 
ATOM     20  C   UNL     1      18.153 -10.969  27.684  0.00  0.00    +0.000 C 
ATOM     21  C   UNL     1      19.091 -12.032  27.393  0.00  0.00    +0.000 C 
ENDROOT
BRANCH   1  23
ATOM     22  C   UNL     1      18.606 -12.682  30.715  0.00  0.00    +0.000 C 
ATOM     23  C   UNL     1      18.110 -11.892  29.938  0.00  0.00    +0.000 C 
ENDBRANCH   1  23
TORSDOF 1
ENDMDL
MODEL 9
REMARK VINA RESULT:      -6.1      2.832      5.818
REMARK  Name = 
REMARK  1 active torsions:
REMARK  status: ('A' for Active; 'I' for Inactive)
REMARK    1  A    between atoms: C_2  and  C_3
REMARK                            x       y       z     vdW  Elec       q    Type
REMARK                         _______ _______ _______ _____ _____    ______ ____
ROOT
ATOM      1  C   UNL     1      31.440  22.859  28.529  0.00  0.00    +0.000 C 
ATOM      2  O   UNL     1      31.814  21.535  28.235  0.00  0.00    +0.000 OA
ATOM      3  C   UNL     1      30.937  22.858  29.943  0.00  0.00    +0.000 C 
ATOM      4  C   UNL     1      30.068  24.041  29.943  0.00  0.00    +0.000 C 
ATOM      5  C   UNL     1      29.192  23.867  28.593  0.00  0.00    +0.000 C 
ATOM      6  C   UNL     1      28.674  22.308  28.933  0.00  0.00    +0.000 C 
ATOM      7  C   UNL     1      27.929  22.660  30.273  0.00  0.00    +0.000 C 
ATOM      8  C   UNL     1      26.429  22.572  30.086  0.00  0.00    +0.000 C 
ATOM      9  C   UNL     1      26.222  23.792  29.220  0.00  0.00    +0.000 A 
ATOM     10  C   UNL     1      25.545  24.913  29.661  0.00  0.00    +0.000 A 
ATOM     11  C   UNL     1      25.472  25.953  28.736  0.00  0.00    +0.000 A 
ATOM     12  O   UNL     1      24.794  27.090  29.166  0.00  0.00    +0.000 OA
ATOM     13  C   UNL     1      26.036  25.840  27.497  0.00  0.00    +0.000 A 
ATOM     14  C   UNL     1      26.712  24.673  27.105  0.00  0.00    +0.000 A 
ATOM     15  C   UNL     1      26.781  23.673  27.997  0.00  0.00    +0.000 A 
ATOM     16  C   UNL     1      27.435  22.293  27.800  0.00  0.00    +0.000 C 
ATOM     17  C   UNL     1      28.346  22.709  26.497  0.00  0.00    +0.000 C 
ATOM     18  C   UNL     1      29.786  22.050  26.886  0.00  0.00    +0.000 C 
ATOM     19  C   UNL     1      30.438  22.310  25.406  0.00  0.00    +0.000 C 
ATOM     20  C   UNL     1      30.394  23.372  27.632  0.00  0.00    +0.000 C 
ATOM     21  C   UNL     1      30.728  24.417  26.688  0.00  0.00    +0.000 C 
ENDROOT
BRANCH   1  23
ATOM     22  C   UNL     1      33.627  24.419  28.499  0.00  0.00    +0.000 C 
ATOM     23  C   UNL     1      32.642  23.710  28.504  0.00  0.00    +0.000 C 
ENDBRANCH   1  23
TORSDOF 1
ENDMDL
MODEL 10
REMARK VINA RESULT:      -6.1      1.834      2.436
REMARK  Name = 
REMARK  1 active torsions:
REMARK  status: ('A' for Active; 'I' for Inactive)
REMARK    1  A    between atoms: C_2  and  C_3
REMARK                            x       y       z     vdW  Elec       q    Type
REMARK                         _______ _______ _______ _____ _____    ______ ____
ROOT
ATOM      1  C   UNL     1      29.112  24.795  29.132  0.00  0.00    +0.000 C 
ATOM      2  O   UNL     1      29.021  23.836  30.157  0.00  0.00    +0.000 OA
ATOM      3  C   UNL     1      27.709  25.219  28.815  0.00  0.00    +0.000 C 
ATOM      4  C   UNL     1      27.856  25.705  27.437  0.00  0.00    +0.000 C 
ATOM      5  C   UNL     1      28.712  24.537  26.715  0.00  0.00    +0.000 C 
ATOM      6  C   UNL     1      27.699  23.282  27.175  0.00  0.00    +0.000 C 
ATOM      7  C   UNL     1      26.410  23.824  26.457  0.00  0.00    +0.000 C 
ATOM      8  C   UNL     1      26.077  22.973  25.250  0.00  0.00    +0.000 C 
ATOM      9  C   UNL     1      27.207  23.391  24.339  0.00  0.00    +0.000 A 
ATOM     10  C   UNL     1      27.004  24.124  23.187  0.00  0.00    +0.000 A 
ATOM     11  C   UNL     1      28.164  24.442  22.483  0.00  0.00    +0.000 A 
ATOM     12  O   UNL     1      27.976  25.182  21.319  0.00  0.00    +0.000 OA
ATOM     13  C   UNL     1      29.393  24.042  22.927  0.00  0.00    +0.000 A 
ATOM     14  C   UNL     1      29.536  23.295  24.108  0.00  0.00    +0.000 A 
ATOM     15  C   UNL     1      28.418  22.991  24.783  0.00  0.00    +0.000 A 
ATOM     16  C   UNL     1      28.308  22.165  26.078  0.00  0.00    +0.000 C 
ATOM     17  C   UNL     1      29.887  22.295  26.510  0.00  0.00    +0.000 C 
ATOM     18  C   UNL     1      29.760  22.651  28.097  0.00  0.00    +0.000 C 
ATOM     19  C   UNL     1      31.360  22.459  28.389  0.00  0.00    +0.000 C 
ATOM     20  C   UNL     1      29.759  24.275  27.918  0.00  0.00    +0.000 C 
ATOM     21  C   UNL     1      31.065  24.778  27.549  0.00  0.00    +0.000 C 
ENDROOT
BRANCH   1  23
ATOM     22  C   UNL     1      30.384  26.955  30.100  0.00  0.00    +0.000 C 
ATOM     23  C   UNL     1      29.810  25.983  29.654  0.00  0.00    +0.000 C 
ENDBRANCH   1  23
TORSDOF 1
ENDMDL
