MODEL 1
REMARK VINA RESULT:      -7.2      0.000      0.000
REMARK  Name = 
REMARK  2 active torsions:
REMARK  status: ('A' for Active; 'I' for Inactive)
REMARK    1  A    between atoms: C_4  and  C_5
REMARK    2  A    between atoms: C_5  and  C_6
REMARK                            x       y       z     vdW  Elec       q    Type
REMARK                         _______ _______ _______ _____ _____    ______ ____
ROOT
ATOM      1  C   UNL     1      29.493  23.217  26.868  0.00  0.00    +0.000 C 
ATOM      2  C   UNL     1      30.705  24.144  26.920  0.00  0.00    +0.000 C 
ATOM      3  C   UNL     1      31.345  23.647  28.211  0.00  0.00    +0.000 C 
ATOM      4  C   UNL     1      31.196  22.132  28.106  0.00  0.00    +0.000 C 
ATOM      5  C   UNL     1      30.156  21.877  27.070  0.00  0.00    +0.000 C 
ENDROOT
BRANCH   1   9
ATOM      6  C   UNL     1      25.463  23.274  23.834  0.00  0.00    +0.000 C 
ATOM      7  C   UNL     1      26.919  23.305  24.106  0.00  0.00    +0.000 A 
ATOM      8  C   UNL     1      27.474  23.244  25.349  0.00  0.00    +0.000 A 
ATOM      9  C   UNL     1      28.815  23.275  25.566  0.00  0.00    +0.000 A 
ATOM     10  C   UNL     1      29.646  23.374  24.447  0.00  0.00    +0.000 A 
ATOM     11  C   UNL     1      29.160  23.439  23.163  0.00  0.00    +0.000 A 
ATOM     12  C   UNL     1      27.770  23.403  23.013  0.00  0.00    +0.000 A 
ATOM     13  O   UNL     1      27.258  23.468  21.722  0.00  0.00    +0.000 OA
ENDBRANCH   1   9
BRANCH   1  14
ATOM     14  C   UNL     1      28.561  23.474  28.002  0.00  0.00    +0.000 A 
ATOM     15  C   UNL     1      28.286  24.751  28.446  0.00  0.00    +0.000 A 
ATOM     16  C   UNL     1      27.412  24.955  29.500  0.00  0.00    +0.000 A 
ATOM     17  C   UNL     1      26.797  23.900  30.134  0.00  0.00    +0.000 A 
ATOM     18  O   UNL     1      25.943  24.184  31.172  0.00  0.00    +0.000 OA
ATOM     19  C   UNL     1      27.067  22.597  29.694  0.00  0.00    +0.000 A 
ATOM     20  C   UNL     1      26.373  21.516  30.420  0.00  0.00    +0.000 C 
ATOM     21  C   UNL     1      27.927  22.440  28.659  0.00  0.00    +0.000 A 
ENDBRANCH   1  14
TORSDOF 2
ENDMDL
MODEL 2
REMARK VINA RESULT:      -7.1     18.215     21.298
REMARK  Name = 
REMARK  2 active torsions:
REMARK  status: ('A' for Active; 'I' for Inactive)
REMARK    1  A    between atoms: C_4  and  C_5
REMARK    2  A    between atoms: C_5  and  C_6
REMARK                            x       y       z     vdW  Elec       q    Type
REMARK                         _______ _______ _______ _____ _____    ______ ____
ROOT
ATOM      1  C   UNL     1      19.086   9.932  38.436  0.00  0.00    +0.000 C 
ATOM      2  C   UNL     1      20.510   9.435  38.190  0.00  0.00    +0.000 C 
ATOM      3  C   UNL     1      21.061  10.625  37.415  0.00  0.00    +0.000 C 
ATOM      4  C   UNL     1      20.491  11.821  38.172  0.00  0.00    +0.000 C 
ATOM      5  C   UNL     1      19.362  11.305  38.997  0.00  0.00    +0.000 C 
ENDROOT
BRANCH   1   9
ATOM      6  C   UNL     1      18.181   5.667  40.973  0.00  0.00    +0.000 C 
ATOM      7  C   UNL     1      17.928   7.086  40.632  0.00  0.00    +0.000 A 
ATOM      8  C   UNL     1      18.633   7.795  39.705  0.00  0.00    +0.000 A 
ATOM      9  C   UNL     1      18.377   9.097  39.415  0.00  0.00    +0.000 A 
ATOM     10  C   UNL     1      17.337   9.720  40.110  0.00  0.00    +0.000 A 
ATOM     11  C   UNL     1      16.582   9.071  41.057  0.00  0.00    +0.000 A 
ATOM     12  C   UNL     1      16.901   7.732  41.307  0.00  0.00    +0.000 A 
ATOM     13  O   UNL     1      16.149   7.057  42.262  0.00  0.00    +0.000 OA
ENDBRANCH   1   9
BRANCH   1  14
ATOM     14  C   UNL     1      18.330  10.071  37.159  0.00  0.00    +0.000 A 
ATOM     15  C   UNL     1      18.487   9.182  36.116  0.00  0.00    +0.000 A 
ATOM     16  C   UNL     1      17.767   9.339  34.945  0.00  0.00    +0.000 A 
ATOM     17  C   UNL     1      16.880  10.379  34.784  0.00  0.00    +0.000 A 
ATOM     18  O   UNL     1      16.203  10.467  33.592  0.00  0.00    +0.000 OA
ATOM     19  C   UNL     1      16.710  11.290  35.835  0.00  0.00    +0.000 A 
ATOM     20  C   UNL     1      15.744  12.379  35.593  0.00  0.00    +0.000 C 
ATOM     21  C   UNL     1      17.434  11.101  36.965  0.00  0.00    +0.000 A 
ENDBRANCH   1  14
TORSDOF 2
ENDMDL
MODEL 3
REMARK VINA RESULT:      -6.9      2.160      6.097
REMARK  Name = 
REMARK  2 active torsions:
REMARK  status: ('A' for Active; 'I' for Inactive)
REMARK    1  A    between atoms: C_4  and  C_5
REMARK    2  A    between atoms: C_5  and  C_6
REMARK                            x       y       z     vdW  Elec       q    Type
REMARK                         _______ _______ _______ _____ _____    ______ ____
ROOT
ATOM      1  C   UNL     1      26.919  23.959  25.641  0.00  0.00    +0.000 C 
ATOM      2  C   UNL     1      26.294  25.174  24.959  0.00  0.00    +0.000 C 
ATOM      3  C   UNL     1      26.467  24.760  23.502  0.00  0.00    +0.000 C 
ATOM      4  C   UNL     1      26.108  23.277  23.523  0.00  0.00    +0.000 C 
ATOM      5  C   UNL     1      26.187  22.839  24.945  0.00  0.00    +0.000 C 
ENDROOT
BRANCH   1   9
ATOM      6  C   UNL     1      26.890  21.892  30.242  0.00  0.00    +0.000 C 
ATOM      7  C   UNL     1      26.626  22.984  29.278  0.00  0.00    +0.000 A 
ATOM      8  C   UNL     1      26.905  22.922  27.945  0.00  0.00    +0.000 A 
ATOM      9  C   UNL     1      26.651  23.944  27.085  0.00  0.00    +0.000 A 
ATOM     10  C   UNL     1      26.078  25.103  27.614  0.00  0.00    +0.000 A 
ATOM     11  C   UNL     1      25.769  25.240  28.946  0.00  0.00    +0.000 A 
ATOM     12  C   UNL     1      26.057  24.150  29.774  0.00  0.00    +0.000 A 
ATOM     13  O   UNL     1      25.753  24.268  31.125  0.00  0.00    +0.000 OA
ENDBRANCH   1   9
BRANCH   1  14
ATOM     14  C   UNL     1      28.375  23.851  25.336  0.00  0.00    +0.000 A 
ATOM     15  C   UNL     1      28.981  22.637  25.091  0.00  0.00    +0.000 A 
ATOM     16  C   UNL     1      30.334  22.572  24.807  0.00  0.00    +0.000 A 
ATOM     17  C   UNL     1      31.111  23.708  24.762  0.00  0.00    +0.000 A 
ATOM     18  O   UNL     1      32.446  23.562  24.474  0.00  0.00    +0.000 OA
ATOM     19  C   UNL     1      30.508  24.949  25.009  0.00  0.00    +0.000 A 
ATOM     20  C   UNL     1      31.401  26.122  24.944  0.00  0.00    +0.000 C 
ATOM     21  C   UNL     1      29.181  24.969  25.282  0.00  0.00    +0.000 A 
ENDBRANCH   1  14
TORSDOF 2
ENDMDL
MODEL 4
REMARK VINA RESULT:      -6.9     16.981     20.128
REMARK  Name = 
REMARK  2 active torsions:
REMARK  status: ('A' for Active; 'I' for Inactive)
REMARK    1  A    between atoms: C_4  and  C_5
REMARK    2  A    between atoms: C_5  and  C_6
REMARK                            x       y       z     vdW  Elec       q    Type
REMARK                         _______ _______ _______ _____ _____    ______ ____
ROOT
ATOM      1  C   UNL     1      18.761  10.530  37.468  0.00  0.00    +0.000 C 
ATOM      2  C   UNL     1      19.191   9.710  36.253  0.00  0.00    +0.000 C 
ATOM      3  C   UNL     1      17.857   9.061  35.903  0.00  0.00    +0.000 C 
ATOM      4  C   UNL     1      16.862  10.202  36.090  0.00  0.00    +0.000 C 
ATOM      5  C   UNL     1      17.549  11.237  36.913  0.00  0.00    +0.000 C 
ENDROOT
BRANCH   1   9
ATOM      6  C   UNL     1      23.480  11.977  38.502  0.00  0.00    +0.000 C 
ATOM      7  C   UNL     1      22.024  12.205  38.366  0.00  0.00    +0.000 A 
ATOM      8  C   UNL     1      21.125  11.253  37.986  0.00  0.00    +0.000 A 
ATOM      9  C   UNL     1      19.793  11.495  37.870  0.00  0.00    +0.000 A 
ATOM     10  C   UNL     1      19.344  12.786  38.157  0.00  0.00    +0.000 A 
ATOM     11  C   UNL     1      20.190  13.798  38.546  0.00  0.00    +0.000 A 
ATOM     12  C   UNL     1      21.548  13.480  38.645  0.00  0.00    +0.000 A 
ATOM     13  O   UNL     1      22.420  14.490  39.036  0.00  0.00    +0.000 OA
ENDBRANCH   1   9
BRANCH   1  14
ATOM     14  C   UNL     1      18.337   9.652  38.595  0.00  0.00    +0.000 A 
ATOM     15  C   UNL     1      19.063   8.540  38.967  0.00  0.00    +0.000 A 
ATOM     16  C   UNL     1      18.644   7.747  40.021  0.00  0.00    +0.000 A 
ATOM     17  C   UNL     1      17.498   8.040  40.726  0.00  0.00    +0.000 A 
ATOM     18  O   UNL     1      17.149   7.206  41.759  0.00  0.00    +0.000 OA
ATOM     19  C   UNL     1      16.751   9.168  40.359  0.00  0.00    +0.000 A 
ATOM     20  C   UNL     1      15.535   9.421  41.157  0.00  0.00    +0.000 C 
ATOM     21  C   UNL     1      17.196   9.917  39.322  0.00  0.00    +0.000 A 
ENDBRANCH   1  14
TORSDOF 2
ENDMDL
MODEL 5
REMARK VINA RESULT:      -6.4      2.179      3.058
REMARK  Name = 
REMARK  2 active torsions:
REMARK  status: ('A' for Active; 'I' for Inactive)
REMARK    1  A    between atoms: C_4  and  C_5
REMARK    2  A    between atoms: C_5  and  C_6
REMARK                            x       y       z     vdW  Elec       q    Type
REMARK                         _______ _______ _______ _____ _____    ______ ____
ROOT
ATOM      1  C   UNL     1      30.613  24.128  25.109  0.00  0.00    +0.000 C 
ATOM      2  C   UNL     1      31.017  25.597  25.004  0.00  0.00    +0.000 C 
ATOM      3  C   UNL     1      32.449  25.500  25.515  0.00  0.00    +0.000 C 
ATOM      4  C   UNL     1      32.965  24.228  24.851  0.00  0.00    +0.000 C 
ATOM      5  C   UNL     1      31.767  23.468  24.396  0.00  0.00    +0.000 C 
ENDROOT
BRANCH   1   9
ATOM      6  C   UNL     1      25.698  23.018  24.888  0.00  0.00    +0.000 C 
ATOM      7  C   UNL     1      27.014  23.333  24.287  0.00  0.00    +0.000 A 
ATOM      8  C   UNL     1      28.151  23.571  25.000  0.00  0.00    +0.000 A 
ATOM      9  C   UNL     1      29.345  23.858  24.418  0.00  0.00    +0.000 A 
ATOM     10  C   UNL     1      29.387  23.907  23.022  0.00  0.00    +0.000 A 
ATOM     11  C   UNL     1      28.283  23.677  22.237  0.00  0.00    +0.000 A 
ATOM     12  C   UNL     1      27.086  23.388  22.901  0.00  0.00    +0.000 A 
ATOM     13  O   UNL     1      25.957  23.154  22.125  0.00  0.00    +0.000 OA
ENDBRANCH   1   9
BRANCH   1  14
ATOM     14  C   UNL     1      30.592  23.669  26.527  0.00  0.00    +0.000 A 
ATOM     15  C   UNL     1      30.955  22.388  26.885  0.00  0.00    +0.000 A 
ATOM     16  C   UNL     1      30.928  21.994  28.212  0.00  0.00    +0.000 A 
ATOM     17  C   UNL     1      30.540  22.862  29.208  0.00  0.00    +0.000 A 
ATOM     18  O   UNL     1      30.539  22.398  30.500  0.00  0.00    +0.000 OA
ATOM     19  C   UNL     1      30.168  24.168  28.858  0.00  0.00    +0.000 A 
ATOM     20  C   UNL     1      29.763  25.042  29.976  0.00  0.00    +0.000 C 
ATOM     21  C   UNL     1      30.209  24.513  27.549  0.00  0.00    +0.000 A 
ENDBRANCH   1  14
TORSDOF 2
ENDMDL
MODEL 6
REMARK VINA RESULT:      -6.3      2.550      4.787
REMARK  Name = 
REMARK  2 active torsions:
REMARK  status: ('A' for Active; 'I' for Inactive)
REMARK    1  A    between atoms: C_4  and  C_5
REMARK    2  A    between atoms: C_5  and  C_6
REMARK                            x       y       z     vdW  Elec       q    Type
REMARK                         _______ _______ _______ _____ _____    ______ ____
ROOT
ATOM      1  C   UNL     1      29.894  23.328  26.526  0.00  0.00    +0.000 C 
ATOM      2  C   UNL     1      30.476  21.944  26.807  0.00  0.00    +0.000 C 
ATOM      3  C   UNL     1      31.292  22.264  28.053  0.00  0.00    +0.000 C 
ATOM      4  C   UNL     1      30.366  23.184  28.842  0.00  0.00    +0.000 C 
ATOM      5  C   UNL     1      29.338  23.678  27.884  0.00  0.00    +0.000 C 
ENDROOT
BRANCH   1   9
ATOM      6  C   UNL     1      28.011  23.754  21.866  0.00  0.00    +0.000 C 
ATOM      7  C   UNL     1      27.909  23.473  23.316  0.00  0.00    +0.000 A 
ATOM      8  C   UNL     1      28.952  23.542  24.191  0.00  0.00    +0.000 A 
ATOM      9  C   UNL     1      28.826  23.277  25.519  0.00  0.00    +0.000 A 
ATOM     10  C   UNL     1      27.559  22.919  25.987  0.00  0.00    +0.000 A 
ATOM     11  C   UNL     1      26.461  22.828  25.165  0.00  0.00    +0.000 A 
ATOM     12  C   UNL     1      26.662  23.113  23.811  0.00  0.00    +0.000 A 
ATOM     13  O   UNL     1      25.564  23.026  22.963  0.00  0.00    +0.000 OA
ENDBRANCH   1   9
BRANCH   1  14
ATOM     14  C   UNL     1      30.961  24.306  26.170  0.00  0.00    +0.000 A 
ATOM     15  C   UNL     1      30.842  25.650  26.454  0.00  0.00    +0.000 A 
ATOM     16  C   UNL     1      31.853  26.532  26.113  0.00  0.00    +0.000 A 
ATOM     17  C   UNL     1      32.999  26.099  25.485  0.00  0.00    +0.000 A 
ATOM     18  O   UNL     1      33.956  27.035  25.179  0.00  0.00    +0.000 OA
ATOM     19  C   UNL     1      33.133  24.735  25.190  0.00  0.00    +0.000 A 
ATOM     20  C   UNL     1      34.386  24.343  24.516  0.00  0.00    +0.000 C 
ATOM     21  C   UNL     1      32.120  23.906  25.541  0.00  0.00    +0.000 A 
ENDBRANCH   1  14
TORSDOF 2
ENDMDL
MODEL 7
REMARK VINA RESULT:      -6.3     32.103     34.395
REMARK  Name = 
REMARK  2 active torsions:
REMARK  status: ('A' for Active; 'I' for Inactive)
REMARK    1  A    between atoms: C_4  and  C_5
REMARK    2  A    between atoms: C_5  and  C_6
REMARK                            x       y       z     vdW  Elec       q    Type
REMARK                         _______ _______ _______ _____ _____    ______ ____
ROOT
ATOM      1  C   UNL     1      17.788  -9.903  27.470  0.00  0.00    +0.000 C 
ATOM      2  C   UNL     1      16.348 -10.212  27.065  0.00  0.00    +0.000 C 
ATOM      3  C   UNL     1      16.505 -10.194  25.549  0.00  0.00    +0.000 C 
ATOM      4  C   UNL     1      17.828 -10.924  25.333  0.00  0.00    +0.000 C 
ATOM      5  C   UNL     1      18.536 -10.921  26.644  0.00  0.00    +0.000 C 
ENDROOT
BRANCH   1   9
ATOM      6  C   UNL     1      16.331 -10.585  32.251  0.00  0.00    +0.000 C 
ATOM      7  C   UNL     1      17.346 -10.451  31.181  0.00  0.00    +0.000 A 
ATOM      8  C   UNL     1      17.057 -10.244  29.865  0.00  0.00    +0.000 A 
ATOM      9  C   UNL     1      18.012 -10.126  28.905  0.00  0.00    +0.000 A 
ATOM     10  C   UNL     1      19.346 -10.226  29.308  0.00  0.00    +0.000 A 
ATOM     11  C   UNL     1      19.714 -10.434  30.615  0.00  0.00    +0.000 A 
ATOM     12  C   UNL     1      18.681 -10.546  31.551  0.00  0.00    +0.000 A 
ATOM     13  O   UNL     1      19.032 -10.758  32.879  0.00  0.00    +0.000 OA
ENDBRANCH   1   9
BRANCH   1  14
ATOM     14  C   UNL     1      18.194  -8.535  27.040  0.00  0.00    +0.000 A 
ATOM     15  C   UNL     1      17.399  -7.432  27.272  0.00  0.00    +0.000 A 
ATOM     16  C   UNL     1      17.807  -6.174  26.863  0.00  0.00    +0.000 A 
ATOM     17  C   UNL     1      19.008  -5.986  26.216  0.00  0.00    +0.000 A 
ATOM     18  O   UNL     1      19.342  -4.708  25.841  0.00  0.00    +0.000 OA
ATOM     19  C   UNL     1      19.825  -7.099  25.974  0.00  0.00    +0.000 A 
ATOM     20  C   UNL     1      21.097  -6.823  25.277  0.00  0.00    +0.000 C 
ATOM     21  C   UNL     1      19.390  -8.312  26.392  0.00  0.00    +0.000 A 
ENDBRANCH   1  14
TORSDOF 2
ENDMDL
MODEL 8
REMARK VINA RESULT:      -6.2      1.715      5.709
REMARK  Name = 
REMARK  2 active torsions:
REMARK  status: ('A' for Active; 'I' for Inactive)
REMARK    1  A    between atoms: C_4  and  C_5
REMARK    2  A    between atoms: C_5  and  C_6
REMARK                            x       y       z     vdW  Elec       q    Type
REMARK                         _______ _______ _______ _____ _____    ______ ____
ROOT
ATOM      1  C   UNL     1      29.351  23.594  26.051  0.00  0.00    +0.000 C 
ATOM      2  C   UNL     1      30.012  22.236  25.821  0.00  0.00    +0.000 C 
ATOM      3  C   UNL     1      31.140  22.662  24.888  0.00  0.00    +0.000 C 
ATOM      4  C   UNL     1      31.628  23.965  25.514  0.00  0.00    +0.000 C 
ATOM      5  C   UNL     1      30.549  24.427  26.432  0.00  0.00    +0.000 C 
ENDROOT
BRANCH   1   9
ATOM      6  C   UNL     1      25.351  25.229  28.652  0.00  0.00    +0.000 C 
ATOM      7  C   UNL     1      26.479  24.304  28.399  0.00  0.00    +0.000 A 
ATOM      8  C   UNL     1      27.348  24.415  27.354  0.00  0.00    +0.000 A 
ATOM      9  C   UNL     1      28.374  23.548  27.148  0.00  0.00    +0.000 A 
ATOM     10  C   UNL     1      28.528  22.502  28.061  0.00  0.00    +0.000 A 
ATOM     11  C   UNL     1      27.693  22.327  29.138  0.00  0.00    +0.000 A 
ATOM     12  C   UNL     1      26.657  23.254  29.290  0.00  0.00    +0.000 A 
ATOM     13  O   UNL     1      25.800  23.094  30.373  0.00  0.00    +0.000 OA
ENDBRANCH   1   9
BRANCH   1  14
ATOM     14  C   UNL     1      28.763  24.135  24.793  0.00  0.00    +0.000 A 
ATOM     15  C   UNL     1      27.990  23.358  23.955  0.00  0.00    +0.000 A 
ATOM     16  C   UNL     1      27.456  23.892  22.796  0.00  0.00    +0.000 A 
ATOM     17  C   UNL     1      27.678  25.204  22.444  0.00  0.00    +0.000 A 
ATOM     18  O   UNL     1      27.114  25.660  21.277  0.00  0.00    +0.000 OA
ATOM     19  C   UNL     1      28.462  26.005  23.285  0.00  0.00    +0.000 A 
ATOM     20  C   UNL     1      28.659  27.400  22.845  0.00  0.00    +0.000 C 
ATOM     21  C   UNL     1      28.966  25.444  24.411  0.00  0.00    +0.000 A 
ENDBRANCH   1  14
TORSDOF 2
ENDMDL
MODEL 9
REMARK VINA RESULT:      -6.2     32.180     34.190
REMARK  Name = 
REMARK  2 active torsions:
REMARK  status: ('A' for Active; 'I' for Inactive)
REMARK    1  A    between atoms: C_4  and  C_5
REMARK    2  A    between atoms: C_5  and  C_6
REMARK                            x       y       z     vdW  Elec       q    Type
REMARK                         _______ _______ _______ _____ _____    ______ ____
ROOT
ATOM      1  C   UNL     1      17.877  -9.859  27.346  0.00  0.00    +0.000 C 
ATOM      2  C   UNL     1      18.436 -10.964  26.452  0.00  0.00    +0.000 C 
ATOM      3  C   UNL     1      17.572 -12.128  26.923  0.00  0.00    +0.000 C 
ATOM      4  C   UNL     1      16.190 -11.496  27.056  0.00  0.00    +0.000 C 
ATOM      5  C   UNL     1      16.397 -10.021  27.099  0.00  0.00    +0.000 C 
ENDROOT
BRANCH   1   9
ATOM      6  C   UNL     1      21.113  -6.625  25.223  0.00  0.00    +0.000 C 
ATOM      7  C   UNL     1      19.855  -6.975  25.922  0.00  0.00    +0.000 A 
ATOM      8  C   UNL     1      19.499  -8.240  26.283  0.00  0.00    +0.000 A 
ATOM      9  C   UNL     1      18.336  -8.529  26.924  0.00  0.00    +0.000 A 
ATOM     10  C   UNL     1      17.480  -7.464  27.216  0.00  0.00    +0.000 A 
ATOM     11  C   UNL     1      17.771  -6.163  26.884  0.00  0.00    +0.000 A 
ATOM     12  C   UNL     1      18.984  -5.937  26.226  0.00  0.00    +0.000 A 
ATOM     13  O   UNL     1      19.297  -4.627  25.880  0.00  0.00    +0.000 OA
ENDBRANCH   1   9
BRANCH   1  14
ATOM     14  C   UNL     1      18.161 -10.125  28.785  0.00  0.00    +0.000 A 
ATOM     15  C   UNL     1      19.432 -10.416  29.236  0.00  0.00    +0.000 A 
ATOM     16  C   UNL     1      19.663 -10.654  30.579  0.00  0.00    +0.000 A 
ATOM     17  C   UNL     1      18.641 -10.611  31.500  0.00  0.00    +0.000 A 
ATOM     18  O   UNL     1      18.950 -10.859  32.815  0.00  0.00    +0.000 OA
ATOM     19  C   UNL     1      17.344 -10.317  31.056  0.00  0.00    +0.000 A 
ATOM     20  C   UNL     1      16.299 -10.288  32.097  0.00  0.00    +0.000 C 
ATOM     21  C   UNL     1      17.161 -10.089  29.733  0.00  0.00    +0.000 A 
ENDBRANCH   1  14
TORSDOF 2
ENDMDL
MODEL 10
REMARK VINA RESULT:      -6.2     15.710     18.302
REMARK  Name = 
REMARK  2 active torsions:
REMARK  status: ('A' for Active; 'I' for Inactive)
REMARK    1  A    between atoms: C_4  and  C_5
REMARK    2  A    between atoms: C_5  and  C_6
REMARK                            x       y       z     vdW  Elec       q    Type
REMARK                         _______ _______ _______ _____ _____    ______ ____
ROOT
ATOM      1  C   UNL     1      12.647  23.636  20.567  0.00  0.00    +0.000 C 
ATOM      2  C   UNL     1      13.601  23.962  21.715  0.00  0.00    +0.000 C 
ATOM      3  C   UNL     1      14.297  22.614  21.853  0.00  0.00    +0.000 C 
ATOM      4  C   UNL     1      14.518  22.193  20.403  0.00  0.00    +0.000 C 
ATOM      5  C   UNL     1      13.604  23.027  19.573  0.00  0.00    +0.000 C 
ENDROOT
BRANCH   1   9
ATOM      6  C   UNL     1       9.816  26.194  17.268  0.00  0.00    +0.000 C 
ATOM      7  C   UNL     1      10.680  26.080  18.465  0.00  0.00    +0.000 A 
ATOM      8  C   UNL     1      11.230  24.916  18.913  0.00  0.00    +0.000 A 
ATOM      9  C   UNL     1      12.019  24.845  20.018  0.00  0.00    +0.000 A 
ATOM     10  C   UNL     1      12.266  26.032  20.711  0.00  0.00    +0.000 A 
ATOM     11  C   UNL     1      11.747  27.243  20.320  0.00  0.00    +0.000 A 
ATOM     12  C   UNL     1      10.943  27.244  19.176  0.00  0.00    +0.000 A 
ATOM     13  O   UNL     1      10.408  28.460  18.764  0.00  0.00    +0.000 OA
ENDBRANCH   1   9
BRANCH   1  14
ATOM     14  C   UNL     1      11.643  22.609  20.967  0.00  0.00    +0.000 A 
ATOM     15  C   UNL     1      10.762  22.816  22.008  0.00  0.00    +0.000 A 
ATOM     16  C   UNL     1       9.840  21.844  22.352  0.00  0.00    +0.000 A 
ATOM     17  C   UNL     1       9.774  20.648  21.672  0.00  0.00    +0.000 A 
ATOM     18  O   UNL     1       8.832  19.733  22.073  0.00  0.00    +0.000 OA
ATOM     19  C   UNL     1      10.664  20.424  20.612  0.00  0.00    +0.000 A 
ATOM     20  C   UNL     1      10.536  19.121  19.931  0.00  0.00    +0.000 C 
ATOM     21  C   UNL     1      11.551  21.402  20.308  0.00  0.00    +0.000 A 
ENDBRANCH   1  14
TORSDOF 2
ENDMDL
