MODEL 1
REMARK VINA RESULT:      -7.4      0.000      0.000
REMARK  Name = 
REMARK  3 active torsions:
REMARK  status: ('A' for Active; 'I' for Inactive)
REMARK    1  A    between atoms: C_4  and  N_5
REMARK    2  A    between atoms: N_5  and  N_6
REMARK    3  A    between atoms: C_7  and  C_9
REMARK                            x       y       z     vdW  Elec       q    Type
REMARK                         _______ _______ _______ _____ _____    ______ ____
ROOT
ATOM      1  N   UNL     1      16.308  12.534  37.043  0.00  0.00    +0.000 NA
ENDROOT
BRANCH   1   5
ATOM      2  C   UNL     1      19.079  11.034  38.624  0.00  0.00    +0.000 C 
ATOM      3  C   UNL     1      18.025   9.883  39.145  0.00  0.00    +0.000 C 
ATOM      4  C   UNL     1      16.671  10.572  38.531  0.00  0.00    +0.000 C 
ATOM      5  C   UNL     1      16.957  11.279  37.334  0.00  0.00    +0.000 C 
ATOM      6  C   UNL     1      17.803  10.846  36.443  0.00  0.00    +0.000 C 
ATOM      7  C   UNL     1      18.504   9.581  36.662  0.00  0.00    +0.000 C 
ATOM      8  C   UNL     1      18.073   8.649  35.522  0.00  0.00    +0.000 C 
ATOM      9  C   UNL     1      19.995   9.845  36.422  0.00  0.00    +0.000 C 
ATOM     10  C   UNL     1      18.237   8.860  37.890  0.00  0.00    +0.000 C 
ENDBRANCH   1   5
BRANCH   1  11
ATOM     11  N   UNL     1      16.062  12.835  35.704  0.00  0.00    +0.000 NA
ATOM     12  C   UNL     1      14.784  12.583  35.135  0.00  0.00    +0.000 C 
ATOM     13  O   UNL     1      13.845  12.083  35.835  0.00  0.00    +0.000 OA
BRANCH  12  14
ATOM     14  C   UNL     1      14.541  12.901  33.737  0.00  0.00    +0.000 A 
ATOM     15  C   UNL     1      13.774  14.010  33.399  0.00  0.00    +0.000 A 
ATOM     16  C   UNL     1      13.519  14.347  32.075  0.00  0.00    +0.000 A 
ATOM     17  C   UNL     1      14.060  13.534  31.107  0.00  0.00    +0.000 A 
ATOM     18  C   UNL     1      14.822  12.430  31.429  0.00  0.00    +0.000 A 
ATOM     19  C   UNL     1      15.066  12.110  32.742  0.00  0.00    +0.000 A 
ATOM     20  F   UNL     1      15.818  11.020  33.090  0.00  0.00    +0.000 F 
ENDBRANCH  12  14
ENDBRANCH   1  11
TORSDOF 3
ENDMDL
MODEL 2
REMARK VINA RESULT:      -7.0      1.178      2.073
REMARK  Name = 
REMARK  3 active torsions:
REMARK  status: ('A' for Active; 'I' for Inactive)
REMARK    1  A    between atoms: C_4  and  N_5
REMARK    2  A    between atoms: N_5  and  N_6
REMARK    3  A    between atoms: C_7  and  C_9
REMARK                            x       y       z     vdW  Elec       q    Type
REMARK                         _______ _______ _______ _____ _____    ______ ____
ROOT
ATOM      1  N   UNL     1      17.063  12.217  36.735  0.00  0.00    +0.000 NA
ENDROOT
BRANCH   1   5
ATOM      2  C   UNL     1      17.935   9.968  39.306  0.00  0.00    +0.000 C 
ATOM      3  C   UNL     1      18.525   8.999  38.114  0.00  0.00    +0.000 C 
ATOM      4  C   UNL     1      18.058   9.938  36.855  0.00  0.00    +0.000 C 
ATOM      5  C   UNL     1      18.082  11.313  37.209  0.00  0.00    +0.000 C 
ATOM      6  C   UNL     1      19.008  11.831  37.966  0.00  0.00    +0.000 C 
ATOM      7  C   UNL     1      20.078  10.982  38.488  0.00  0.00    +0.000 C 
ATOM      8  C   UNL     1      21.386  11.532  37.905  0.00  0.00    +0.000 C 
ATOM      9  C   UNL     1      20.168  11.248  39.995  0.00  0.00    +0.000 C 
ATOM     10  C   UNL     1      20.053   9.573  38.152  0.00  0.00    +0.000 C 
ENDBRANCH   1   5
BRANCH   1  11
ATOM     11  N   UNL     1      16.816  12.244  35.363  0.00  0.00    +0.000 NA
ATOM     12  C   UNL     1      15.523  11.935  34.860  0.00  0.00    +0.000 C 
ATOM     13  O   UNL     1      14.572  11.629  35.649  0.00  0.00    +0.000 OA
BRANCH  12  14
ATOM     14  C   UNL     1      15.279  11.967  33.427  0.00  0.00    +0.000 A 
ATOM     15  C   UNL     1      14.400  12.902  32.892  0.00  0.00    +0.000 A 
ATOM     16  C   UNL     1      14.140  12.964  31.528  0.00  0.00    +0.000 A 
ATOM     17  C   UNL     1      14.793  12.059  30.724  0.00  0.00    +0.000 A 
ATOM     18  C   UNL     1      15.667  11.126  31.243  0.00  0.00    +0.000 A 
ATOM     19  C   UNL     1      15.914  11.077  32.593  0.00  0.00    +0.000 A 
ATOM     20  F   UNL     1      16.777  10.162  33.134  0.00  0.00    +0.000 F 
ENDBRANCH  12  14
ENDBRANCH   1  11
TORSDOF 3
ENDMDL
MODEL 3
REMARK VINA RESULT:      -6.8     18.900     20.372
REMARK  Name = 
REMARK  3 active torsions:
REMARK  status: ('A' for Active; 'I' for Inactive)
REMARK    1  A    between atoms: C_4  and  N_5
REMARK    2  A    between atoms: N_5  and  N_6
REMARK    3  A    between atoms: C_7  and  C_9
REMARK                            x       y       z     vdW  Elec       q    Type
REMARK                         _______ _______ _______ _____ _____    ______ ____
ROOT
ATOM      1  N   UNL     1      33.999   4.757  33.997  0.00  0.00    +0.000 NA
ENDROOT
BRANCH   1   5
ATOM      2  C   UNL     1      35.089   4.926  37.345  0.00  0.00    +0.000 C 
ATOM      3  C   UNL     1      36.505   5.510  36.744  0.00  0.00    +0.000 C 
ATOM      4  C   UNL     1      36.116   5.363  35.159  0.00  0.00    +0.000 C 
ATOM      5  C   UNL     1      34.724   5.553  34.957  0.00  0.00    +0.000 C 
ATOM      6  C   UNL     1      34.030   6.441  35.612  0.00  0.00    +0.000 C 
ATOM      7  C   UNL     1      34.689   7.289  36.604  0.00  0.00    +0.000 C 
ATOM      8  C   UNL     1      34.542   8.732  36.103  0.00  0.00    +0.000 C 
ATOM      9  C   UNL     1      33.848   7.222  37.884  0.00  0.00    +0.000 C 
ATOM     10  C   UNL     1      36.106   7.090  36.835  0.00  0.00    +0.000 C 
ENDBRANCH   1   5
BRANCH   1  11
ATOM     11  N   UNL     1      33.810   3.408  34.294  0.00  0.00    +0.000 NA
ATOM     12  C   UNL     1      33.677   2.454  33.248  0.00  0.00    +0.000 C 
ATOM     13  O   UNL     1      33.729   2.813  32.027  0.00  0.00    +0.000 OA
BRANCH  12  14
ATOM     14  C   UNL     1      33.479   1.051  33.572  0.00  0.00    +0.000 A 
ATOM     15  C   UNL     1      32.515   0.681  34.503  0.00  0.00    +0.000 A 
ATOM     16  C   UNL     1      32.297  -0.650  34.840  0.00  0.00    +0.000 A 
ATOM     17  C   UNL     1      33.077  -1.591  34.210  0.00  0.00    +0.000 A 
ATOM     18  C   UNL     1      34.037  -1.237  33.285  0.00  0.00    +0.000 A 
ATOM     19  C   UNL     1      34.241   0.082  32.962  0.00  0.00    +0.000 A 
ATOM     20  F   UNL     1      35.187   0.461  32.048  0.00  0.00    +0.000 F 
ENDBRANCH  12  14
ENDBRANCH   1  11
TORSDOF 3
ENDMDL
MODEL 4
REMARK VINA RESULT:      -6.5     21.815     23.923
REMARK  Name = 
REMARK  3 active torsions:
REMARK  status: ('A' for Active; 'I' for Inactive)
REMARK    1  A    between atoms: C_4  and  N_5
REMARK    2  A    between atoms: N_5  and  N_6
REMARK    3  A    between atoms: C_7  and  C_9
REMARK                            x       y       z     vdW  Elec       q    Type
REMARK                         _______ _______ _______ _____ _____    ______ ____
ROOT
ATOM      1  N   UNL     1      29.527  24.908  20.818  0.00  0.00    +0.000 NA
ENDROOT
BRANCH   1   5
ATOM      2  C   UNL     1      27.642  27.792  20.076  0.00  0.00    +0.000 C 
ATOM      3  C   UNL     1      28.586  28.565  21.179  0.00  0.00    +0.000 C 
ATOM      4  C   UNL     1      29.438  27.249  21.658  0.00  0.00    +0.000 C 
ATOM      5  C   UNL     1      29.598  26.330  20.589  0.00  0.00    +0.000 C 
ATOM      6  C   UNL     1      29.817  26.706  19.361  0.00  0.00    +0.000 C 
ATOM      7  C   UNL     1      29.903  28.131  19.043  0.00  0.00    +0.000 C 
ATOM      8  C   UNL     1      31.321  28.368  18.509  0.00  0.00    +0.000 C 
ATOM      9  C   UNL     1      28.978  28.382  17.846  0.00  0.00    +0.000 C 
ATOM     10  C   UNL     1      29.719  29.081  20.121  0.00  0.00    +0.000 C 
ENDBRANCH   1   5
BRANCH   1  11
ATOM     11  N   UNL     1      29.693  24.459  22.128  0.00  0.00    +0.000 NA
ATOM     12  C   UNL     1      28.764  23.545  22.697  0.00  0.00    +0.000 C 
ATOM     13  O   UNL     1      27.770  23.121  22.024  0.00  0.00    +0.000 OA
BRANCH  12  14
ATOM     14  C   UNL     1      28.948  23.087  24.064  0.00  0.00    +0.000 A 
ATOM     15  C   UNL     1      30.183  22.592  24.472  0.00  0.00    +0.000 A 
ATOM     16  C   UNL     1      30.398  22.144  25.770  0.00  0.00    +0.000 A 
ATOM     17  C   UNL     1      29.336  22.210  26.640  0.00  0.00    +0.000 A 
ATOM     18  C   UNL     1      28.106  22.697  26.248  0.00  0.00    +0.000 A 
ATOM     19  C   UNL     1      27.907  23.137  24.962  0.00  0.00    +0.000 A 
ATOM     20  F   UNL     1      26.698  23.625  24.547  0.00  0.00    +0.000 F 
ENDBRANCH  12  14
ENDBRANCH   1  11
TORSDOF 3
ENDMDL
MODEL 5
REMARK VINA RESULT:      -6.5      3.624      5.416
REMARK  Name = 
REMARK  3 active torsions:
REMARK  status: ('A' for Active; 'I' for Inactive)
REMARK    1  A    between atoms: C_4  and  N_5
REMARK    2  A    between atoms: N_5  and  N_6
REMARK    3  A    between atoms: C_7  and  C_9
REMARK                            x       y       z     vdW  Elec       q    Type
REMARK                         _______ _______ _______ _____ _____    ______ ____
ROOT
ATOM      1  N   UNL     1      20.800  10.580  38.203  0.00  0.00    +0.000 NA
ENDROOT
BRANCH   1   5
ATOM      2  C   UNL     1      23.872   8.908  37.768  0.00  0.00    +0.000 C 
ATOM      3  C   UNL     1      23.743   9.305  36.177  0.00  0.00    +0.000 C 
ATOM      4  C   UNL     1      22.265  10.006  36.274  0.00  0.00    +0.000 C 
ATOM      5  C   UNL     1      22.078  10.627  37.537  0.00  0.00    +0.000 C 
ATOM      6  C   UNL     1      23.030  11.265  38.158  0.00  0.00    +0.000 C 
ATOM      7  C   UNL     1      24.357  11.359  37.550  0.00  0.00    +0.000 C 
ATOM      8  C   UNL     1      24.617  12.853  37.315  0.00  0.00    +0.000 C 
ATOM      9  C   UNL     1      25.372  10.939  38.620  0.00  0.00    +0.000 C 
ATOM     10  C   UNL     1      24.567  10.711  36.272  0.00  0.00    +0.000 C 
ENDBRANCH   1   5
BRANCH   1  11
ATOM     11  N   UNL     1      19.696  11.077  37.511  0.00  0.00    +0.000 NA
ATOM     12  C   UNL     1      18.555  10.257  37.295  0.00  0.00    +0.000 C 
ATOM     13  O   UNL     1      18.521   9.060  37.728  0.00  0.00    +0.000 OA
BRANCH  12  14
ATOM     14  C   UNL     1      17.411  10.788  36.571  0.00  0.00    +0.000 A 
ATOM     15  C   UNL     1      16.397  11.446  37.259  0.00  0.00    +0.000 A 
ATOM     16  C   UNL     1      15.288  11.967  36.603  0.00  0.00    +0.000 A 
ATOM     17  C   UNL     1      15.234  11.806  35.239  0.00  0.00    +0.000 A 
ATOM     18  C   UNL     1      16.233  11.155  34.545  0.00  0.00    +0.000 A 
ATOM     19  C   UNL     1      17.324  10.645  35.206  0.00  0.00    +0.000 A 
ATOM     20  F   UNL     1      18.328   9.995  34.542  0.00  0.00    +0.000 F 
ENDBRANCH  12  14
ENDBRANCH   1  11
TORSDOF 3
ENDMDL
MODEL 6
REMARK VINA RESULT:      -6.4      3.083      4.491
REMARK  Name = 
REMARK  3 active torsions:
REMARK  status: ('A' for Active; 'I' for Inactive)
REMARK    1  A    between atoms: C_4  and  N_5
REMARK    2  A    between atoms: N_5  and  N_6
REMARK    3  A    between atoms: C_7  and  C_9
REMARK                            x       y       z     vdW  Elec       q    Type
REMARK                         _______ _______ _______ _____ _____    ______ ____
ROOT
ATOM      1  N   UNL     1      18.078   9.854  39.125  0.00  0.00    +0.000 NA
ENDROOT
BRANCH   1   5
ATOM      2  C   UNL     1      17.643   9.673  42.618  0.00  0.00    +0.000 C 
ATOM      3  C   UNL     1      16.058   9.369  42.299  0.00  0.00    +0.000 C 
ATOM      4  C   UNL     1      16.153   9.542  40.672  0.00  0.00    +0.000 C 
ATOM      5  C   UNL     1      17.425   9.135  40.191  0.00  0.00    +0.000 C 
ATOM      6  C   UNL     1      18.066   8.108  40.672  0.00  0.00    +0.000 C 
ATOM      7  C   UNL     1      17.474   7.324  41.755  0.00  0.00    +0.000 C 
ATOM      8  C   UNL     1      17.267   5.909  41.199  0.00  0.00    +0.000 C 
ATOM      9  C   UNL     1      18.545   7.176  42.841  0.00  0.00    +0.000 C 
ATOM     10  C   UNL     1      16.186   7.742  42.270  0.00  0.00    +0.000 C 
ENDBRANCH   1   5
BRANCH   1  11
ATOM     11  N   UNL     1      17.375  10.011  37.931  0.00  0.00    +0.000 NA
ATOM     12  C   UNL     1      17.539  11.187  37.150  0.00  0.00    +0.000 C 
ATOM     13  O   UNL     1      18.327  12.114  37.524  0.00  0.00    +0.000 OA
BRANCH  12  14
ATOM     14  C   UNL     1      16.799  11.337  35.907  0.00  0.00    +0.000 A 
ATOM     15  C   UNL     1      17.247  10.709  34.751  0.00  0.00    +0.000 A 
ATOM     16  C   UNL     1      16.568  10.829  33.543  0.00  0.00    +0.000 A 
ATOM     17  C   UNL     1      15.428  11.598  33.540  0.00  0.00    +0.000 A 
ATOM     18  C   UNL     1      14.974  12.227  34.680  0.00  0.00    +0.000 A 
ATOM     19  C   UNL     1      15.655  12.100  35.866  0.00  0.00    +0.000 A 
ATOM     20  F   UNL     1      15.226  12.714  37.012  0.00  0.00    +0.000 F 
ENDBRANCH  12  14
ENDBRANCH   1  11
TORSDOF 3
ENDMDL
MODEL 7
REMARK VINA RESULT:      -6.2     21.290     23.433
REMARK  Name = 
REMARK  3 active torsions:
REMARK  status: ('A' for Active; 'I' for Inactive)
REMARK    1  A    between atoms: C_4  and  N_5
REMARK    2  A    between atoms: N_5  and  N_6
REMARK    3  A    between atoms: C_7  and  C_9
REMARK                            x       y       z     vdW  Elec       q    Type
REMARK                         _______ _______ _______ _____ _____    ______ ____
ROOT
ATOM      1  N   UNL     1      22.756  -9.537  25.189  0.00  0.00    +0.000 NA
ENDROOT
BRANCH   1   5
ATOM      2  C   UNL     1      24.195  -8.718  22.077  0.00  0.00    +0.000 C 
ATOM      3  C   UNL     1      24.772  -7.367  22.818  0.00  0.00    +0.000 C 
ATOM      4  C   UNL     1      24.049  -7.620  24.267  0.00  0.00    +0.000 C 
ATOM      5  C   UNL     1      23.932  -9.007  24.542  0.00  0.00    +0.000 C 
ATOM      6  C   UNL     1      24.859  -9.870  24.234  0.00  0.00    +0.000 C 
ATOM      7  C   UNL     1      26.083  -9.415  23.575  0.00  0.00    +0.000 C 
ATOM      8  C   UNL     1      27.234  -9.742  24.534  0.00  0.00    +0.000 C 
ATOM      9  C   UNL     1      26.303 -10.323  22.360  0.00  0.00    +0.000 C 
ATOM     10  C   UNL     1      26.206  -8.004  23.269  0.00  0.00    +0.000 C 
ENDBRANCH   1   5
BRANCH   1  11
ATOM     11  N   UNL     1      21.905  -8.628  25.818  0.00  0.00    +0.000 NA
ATOM     12  C   UNL     1      20.647  -8.306  25.242  0.00  0.00    +0.000 C 
ATOM     13  O   UNL     1      20.275  -8.838  24.147  0.00  0.00    +0.000 OA
BRANCH  12  14
ATOM     14  C   UNL     1      19.770  -7.357  25.908  0.00  0.00    +0.000 A 
ATOM     15  C   UNL     1      18.730  -7.815  26.709  0.00  0.00    +0.000 A 
ATOM     16  C   UNL     1      17.869  -6.939  27.363  0.00  0.00    +0.000 A 
ATOM     17  C   UNL     1      18.091  -5.594  27.184  0.00  0.00    +0.000 A 
ATOM     18  C   UNL     1      19.119  -5.127  26.391  0.00  0.00    +0.000 A 
ATOM     19  C   UNL     1      19.961  -6.004  25.752  0.00  0.00    +0.000 A 
ATOM     20  F   UNL     1      20.988  -5.567  24.959  0.00  0.00    +0.000 F 
ENDBRANCH  12  14
ENDBRANCH   1  11
TORSDOF 3
ENDMDL
MODEL 8
REMARK VINA RESULT:      -6.2      3.545      5.341
REMARK  Name = 
REMARK  3 active torsions:
REMARK  status: ('A' for Active; 'I' for Inactive)
REMARK    1  A    between atoms: C_4  and  N_5
REMARK    2  A    between atoms: N_5  and  N_6
REMARK    3  A    between atoms: C_7  and  C_9
REMARK                            x       y       z     vdW  Elec       q    Type
REMARK                         _______ _______ _______ _____ _____    ______ ____
ROOT
ATOM      1  N   UNL     1      19.120   8.583  39.271  0.00  0.00    +0.000 NA
ENDROOT
BRANCH   1   5
ATOM      2  C   UNL     1      17.244   6.180  41.041  0.00  0.00    +0.000 C 
ATOM      3  C   UNL     1      18.292   6.431  42.283  0.00  0.00    +0.000 C 
ATOM      4  C   UNL     1      19.278   7.476  41.494  0.00  0.00    +0.000 C 
ATOM      5  C   UNL     1      18.551   8.250  40.553  0.00  0.00    +0.000 C 
ATOM      6  C   UNL     1      17.350   8.699  40.786  0.00  0.00    +0.000 C 
ATOM      7  C   UNL     1      16.700   8.406  42.063  0.00  0.00    +0.000 C 
ATOM      8  C   UNL     1      16.460   9.759  42.744  0.00  0.00    +0.000 C 
ATOM      9  C   UNL     1      15.302   7.865  41.743  0.00  0.00    +0.000 C 
ATOM     10  C   UNL     1      17.423   7.598  43.024  0.00  0.00    +0.000 C 
ENDBRANCH   1   5
BRANCH   1  11
ATOM     11  N   UNL     1      18.270   9.141  38.316  0.00  0.00    +0.000 NA
ATOM     12  C   UNL     1      18.801   9.712  37.128  0.00  0.00    +0.000 C 
ATOM     13  O   UNL     1      20.056   9.723  36.914  0.00  0.00    +0.000 OA
BRANCH  12  14
ATOM     14  C   UNL     1      17.904  10.291  36.141  0.00  0.00    +0.000 A 
ATOM     15  C   UNL     1      17.386  11.567  36.336  0.00  0.00    +0.000 A 
ATOM     16  C   UNL     1      16.524  12.154  35.417  0.00  0.00    +0.000 A 
ATOM     17  C   UNL     1      16.204  11.418  34.300  0.00  0.00    +0.000 A 
ATOM     18  C   UNL     1      16.710  10.151  34.095  0.00  0.00    +0.000 A 
ATOM     19  C   UNL     1      17.561   9.584  35.013  0.00  0.00    +0.000 A 
ATOM     20  F   UNL     1      18.077   8.329  34.835  0.00  0.00    +0.000 F 
ENDBRANCH  12  14
ENDBRANCH   1  11
TORSDOF 3
ENDMDL
MODEL 9
REMARK VINA RESULT:      -6.1     21.187     22.656
REMARK  Name = 
REMARK  3 active torsions:
REMARK  status: ('A' for Active; 'I' for Inactive)
REMARK    1  A    between atoms: C_4  and  N_5
REMARK    2  A    between atoms: N_5  and  N_6
REMARK    3  A    between atoms: C_7  and  C_9
REMARK                            x       y       z     vdW  Elec       q    Type
REMARK                         _______ _______ _______ _____ _____    ______ ____
ROOT
ATOM      1  N   UNL     1      27.322  23.865  21.949  0.00  0.00    +0.000 NA
ENDROOT
BRANCH   1   5
ATOM      2  C   UNL     1      26.409  25.072  25.133  0.00  0.00    +0.000 C 
ATOM      3  C   UNL     1      25.754  23.585  25.392  0.00  0.00    +0.000 C 
ATOM      4  C   UNL     1      26.046  22.983  23.896  0.00  0.00    +0.000 C 
ATOM      5  C   UNL     1      27.236  23.533  23.350  0.00  0.00    +0.000 C 
ATOM      6  C   UNL     1      28.300  23.766  24.065  0.00  0.00    +0.000 C 
ATOM      7  C   UNL     1      28.295  23.457  25.495  0.00  0.00    +0.000 C 
ATOM      8  C   UNL     1      29.375  22.389  25.708  0.00  0.00    +0.000 C 
ATOM      9  C   UNL     1      28.811  24.702  26.226  0.00  0.00    +0.000 C 
ATOM     10  C   UNL     1      27.080  22.916  26.070  0.00  0.00    +0.000 C 
ENDBRANCH   1   5
BRANCH   1  11
ATOM     11  N   UNL     1      27.662  25.177  21.620  0.00  0.00    +0.000 NA
ATOM     12  C   UNL     1      28.940  25.472  21.072  0.00  0.00    +0.000 C 
ATOM     13  O   UNL     1      29.793  24.549  20.873  0.00  0.00    +0.000 OA
BRANCH  12  14
ATOM     14  C   UNL     1      29.281  26.844  20.734  0.00  0.00    +0.000 A 
ATOM     15  C   UNL     1      29.108  27.856  21.673  0.00  0.00    +0.000 A 
ATOM     16  C   UNL     1      29.421  29.180  21.387  0.00  0.00    +0.000 A 
ATOM     17  C   UNL     1      29.913  29.450  20.132  0.00  0.00    +0.000 A 
ATOM     18  C   UNL     1      30.088  28.456  19.191  0.00  0.00    +0.000 A 
ATOM     19  C   UNL     1      29.774  27.152  19.488  0.00  0.00    +0.000 A 
ATOM     20  F   UNL     1      29.938  26.147  18.573  0.00  0.00    +0.000 F 
ENDBRANCH  12  14
ENDBRANCH   1  11
TORSDOF 3
ENDMDL
MODEL 10
REMARK VINA RESULT:      -6.1      3.788      5.921
REMARK  Name = 
REMARK  3 active torsions:
REMARK  status: ('A' for Active; 'I' for Inactive)
REMARK    1  A    between atoms: C_4  and  N_5
REMARK    2  A    between atoms: N_5  and  N_6
REMARK    3  A    between atoms: C_7  and  C_9
REMARK                            x       y       z     vdW  Elec       q    Type
REMARK                         _______ _______ _______ _____ _____    ______ ____
ROOT
ATOM      1  N   UNL     1      18.862   8.033  40.052  0.00  0.00    +0.000 NA
ENDROOT
BRANCH   1   5
ATOM      2  C   UNL     1      15.748   9.236  41.182  0.00  0.00    +0.000 C 
ATOM      3  C   UNL     1      15.424   7.683  41.617  0.00  0.00    +0.000 C 
ATOM      4  C   UNL     1      16.802   7.026  41.022  0.00  0.00    +0.000 C 
ATOM      5  C   UNL     1      17.882   7.944  41.106  0.00  0.00    +0.000 C 
ATOM      6  C   UNL     1      18.050   8.745  42.120  0.00  0.00    +0.000 C 
ATOM      7  C   UNL     1      17.100   8.718  43.231  0.00  0.00    +0.000 C 
ATOM      8  C   UNL     1      17.899   8.297  44.471  0.00  0.00    +0.000 C 
ATOM      9  C   UNL     1      16.680  10.168  43.499  0.00  0.00    +0.000 C 
ATOM     10  C   UNL     1      15.981   7.801  43.148  0.00  0.00    +0.000 C 
ENDBRANCH   1   5
BRANCH   1  11
ATOM     11  N   UNL     1      18.403   8.342  38.772  0.00  0.00    +0.000 NA
ATOM     12  C   UNL     1      18.328   9.695  38.344  0.00  0.00    +0.000 C 
ATOM     13  O   UNL     1      18.677  10.644  39.117  0.00  0.00    +0.000 OA
BRANCH  12  14
ATOM     14  C   UNL     1      17.847  10.003  37.007  0.00  0.00    +0.000 A 
ATOM     15  C   UNL     1      18.554   9.560  35.894  0.00  0.00    +0.000 A 
ATOM     16  C   UNL     1      18.127   9.834  34.600  0.00  0.00    +0.000 A 
ATOM     17  C   UNL     1      16.970  10.565  34.464  0.00  0.00    +0.000 A 
ATOM     18  C   UNL     1      16.260  11.011  35.559  0.00  0.00    +0.000 A 
ATOM     19  C   UNL     1      16.694  10.732  36.832  0.00  0.00    +0.000 A 
ATOM     20  F   UNL     1      16.009  11.163  37.936  0.00  0.00    +0.000 F 
ENDBRANCH  12  14
ENDBRANCH   1  11
TORSDOF 3
ENDMDL
