MODEL 1
REMARK VINA RESULT:      -7.2      0.000      0.000
REMARK  Name = 
REMARK  11 active torsions:
REMARK  status: ('A' for Active; 'I' for Inactive)
REMARK    1  A    between atoms: O_2  and  C_3
REMARK    2  A    between atoms: C_6  and  C_7
REMARK    3  A    between atoms: C_7  and  C_8
REMARK    4  A    between atoms: C_7  and  C_10
REMARK    5  A    between atoms: C_7  and  C_29
REMARK    6  A    between atoms: C_10  and  C_11
REMARK    7  A    between atoms: C_11  and  C_12
REMARK    8  A    between atoms: C_12  and  N_13
REMARK    9  A    between atoms: N_13  and  C_14
REMARK   10  A    between atoms: C_14  and  C_15
REMARK   11  A    between atoms: C_33  and  O_34
REMARK                            x       y       z     vdW  Elec       q    Type
REMARK                         _______ _______ _______ _____ _____    ______ ____
ROOT
ATOM      1  C   UNL     1      35.911   1.017  16.745  0.00  0.00    +0.000 C 
ENDROOT
BRANCH   1   2
ATOM      2  C   UNL     1      35.793  -0.239  15.840  0.00  0.00    +0.000 C 
BRANCH   2   3
ATOM      3  C   UNL     1      36.672  -1.247  16.476  0.00  0.00    +0.000 C 
BRANCH   3   7
ATOM      4  C   UNL     1      40.488  -2.055  14.740  0.00  0.00    +0.000 A 
ATOM      5  C   UNL     1      39.989  -2.851  15.710  0.00  0.00    +0.000 A 
ATOM      6  C   UNL     1      38.754  -2.603  16.312  0.00  0.00    +0.000 A 
ATOM      7  C   UNL     1      37.998  -1.493  15.905  0.00  0.00    +0.000 A 
ATOM      8  C   UNL     1      38.549  -0.706  14.916  0.00  0.00    +0.000 A 
ATOM      9  C   UNL     1      39.760  -0.930  14.310  0.00  0.00    +0.000 A 
BRANCH   4  11
ATOM     10  C   UNL     1      41.705  -3.267  13.046  0.00  0.00    +0.000 C 
ATOM     11  O   UNL     1      41.714  -2.287  14.108  0.00  0.00    +0.000 OA
ENDBRANCH   4  11
BRANCH   9  12
ATOM     12  O   UNL     1      40.300  -0.123  13.319  0.00  0.00    +0.000 OA
ATOM     13  C   UNL     1      40.990   1.064  13.667  0.00  0.00    +0.000 C 
ENDBRANCH   9  12
ENDBRANCH   3   7
BRANCH   3  14
ATOM     14  C   UNL     1      35.936  -2.607  16.494  0.00  0.00    +0.000 C 
ATOM     15  C   UNL     1      35.600  -2.823  14.993  0.00  0.00    +0.000 C 
ATOM     16  C   UNL     1      34.563  -2.308  17.119  0.00  0.00    +0.000 C 
ENDBRANCH   3  14
BRANCH   3  17
ATOM     17  C   UNL     1      36.826  -0.841  17.905  0.00  0.00    +0.000 C 
ATOM     18  N   UNL     1      36.941  -0.537  19.001  0.00  0.00    +0.000 NA
ENDBRANCH   3  17
ENDBRANCH   2   3
ENDBRANCH   1   2
BRANCH   1  19
ATOM     19  C   UNL     1      34.952   2.084  16.285  0.00  0.00    +0.000 C 
BRANCH  19  20
ATOM     20  N   UNL     1      35.756   3.346  16.253  0.00  0.00    +0.000 NA
BRANCH  20  21
ATOM     21  C   UNL     1      37.104   2.837  16.534  0.00  0.00    +0.000 C 
BRANCH  21  22
ATOM     22  C   UNL     1      38.088   3.662  15.823  0.00  0.00    +0.000 A 
ATOM     23  C   UNL     1      38.833   4.587  16.586  0.00  0.00    +0.000 A 
ATOM     24  C   UNL     1      38.532   4.638  17.926  0.00  0.00    +0.000 A 
ATOM     25  C   UNL     1      39.218   5.565  18.740  0.00  0.00    +0.000 A 
ATOM     26  C   UNL     1      40.141   6.345  18.134  0.00  0.00    +0.000 A 
ATOM     27  C   UNL     1      40.443   6.290  16.793  0.00  0.00    +0.000 A 
ATOM     28  C   UNL     1      39.760   5.375  15.988  0.00  0.00    +0.000 A 
ATOM     29  C   UNL     1      40.001   5.293  14.616  0.00  0.00    +0.000 A 
ATOM     30  C   UNL     1      39.281   4.390  13.835  0.00  0.00    +0.000 A 
ATOM     31  C   UNL     1      39.534   4.337  12.464  0.00  0.00    +0.000 A 
ATOM     32  C   UNL     1      38.785   3.433  11.707  0.00  0.00    +0.000 A 
ATOM     33  C   UNL     1      37.872   2.665  12.333  0.00  0.00    +0.000 A 
ATOM     34  C   UNL     1      37.618   2.708  13.674  0.00  0.00    +0.000 A 
ATOM     35  C   UNL     1      38.350   3.609  14.474  0.00  0.00    +0.000 A 
ENDBRANCH  21  22
ENDBRANCH  20  21
ENDBRANCH  19  20
ENDBRANCH   1  19
TORSDOF 11
ENDMDL
MODEL 2
REMARK VINA RESULT:      -7.2      1.427      3.697
REMARK  Name = 
REMARK  11 active torsions:
REMARK  status: ('A' for Active; 'I' for Inactive)
REMARK    1  A    between atoms: O_2  and  C_3
REMARK    2  A    between atoms: C_6  and  C_7
REMARK    3  A    between atoms: C_7  and  C_8
REMARK    4  A    between atoms: C_7  and  C_10
REMARK    5  A    between atoms: C_7  and  C_29
REMARK    6  A    between atoms: C_10  and  C_11
REMARK    7  A    between atoms: C_11  and  C_12
REMARK    8  A    between atoms: C_12  and  N_13
REMARK    9  A    between atoms: N_13  and  C_14
REMARK   10  A    between atoms: C_14  and  C_15
REMARK   11  A    between atoms: C_33  and  O_34
REMARK                            x       y       z     vdW  Elec       q    Type
REMARK                         _______ _______ _______ _____ _____    ______ ____
ROOT
ATOM      1  C   UNL     1      36.091  -1.075  17.208  0.00  0.00    +0.000 C 
ENDROOT
BRANCH   1   2
ATOM      2  C   UNL     1      36.164  -1.561  15.735  0.00  0.00    +0.000 C 
BRANCH   2   3
ATOM      3  C   UNL     1      37.444  -2.302  15.645  0.00  0.00    +0.000 C 
BRANCH   3   7
ATOM      4  C   UNL     1      40.696  -0.719  13.376  0.00  0.00    +0.000 A 
ATOM      5  C   UNL     1      40.284  -0.110  14.509  0.00  0.00    +0.000 A 
ATOM      6  C   UNL     1      39.212  -0.590  15.262  0.00  0.00    +0.000 A 
ATOM      7  C   UNL     1      38.531  -1.742  14.838  0.00  0.00    +0.000 A 
ATOM      8  C   UNL     1      38.983  -2.327  13.675  0.00  0.00    +0.000 A 
ATOM      9  C   UNL     1      40.035  -1.873  12.918  0.00  0.00    +0.000 A 
BRANCH   4  11
ATOM     10  C   UNL     1      41.533   0.894  11.788  0.00  0.00    +0.000 C 
ATOM     11  O   UNL     1      41.777  -0.270  12.609  0.00  0.00    +0.000 OA
ENDBRANCH   4  11
BRANCH   9  12
ATOM     12  O   UNL     1      40.472  -2.474  11.747  0.00  0.00    +0.000 OA
ATOM     13  C   UNL     1      41.390  -3.552  11.801  0.00  0.00    +0.000 C 
ENDBRANCH   9  12
ENDBRANCH   3   7
BRANCH   3  14
ATOM     14  C   UNL     1      37.160  -3.717  15.090  0.00  0.00    +0.000 C 
ATOM     15  C   UNL     1      35.703  -3.583  14.569  0.00  0.00    +0.000 C 
ATOM     16  C   UNL     1      37.005  -4.608  16.334  0.00  0.00    +0.000 C 
ENDBRANCH   3  14
BRANCH   3  17
ATOM     17  C   UNL     1      37.928  -2.495  17.044  0.00  0.00    +0.000 C 
ATOM     18  N   UNL     1      38.291  -2.640  18.119  0.00  0.00    +0.000 NA
ENDBRANCH   3  17
ENDBRANCH   2   3
ENDBRANCH   1   2
BRANCH   1  19
ATOM     19  C   UNL     1      35.458   0.289  17.277  0.00  0.00    +0.000 C 
BRANCH  19  20
ATOM     20  N   UNL     1      36.603   1.251  17.342  0.00  0.00    +0.000 NA
BRANCH  20  21
ATOM     21  C   UNL     1      36.095   2.361  16.526  0.00  0.00    +0.000 C 
BRANCH  21  22
ATOM     22  C   UNL     1      37.191   2.901  15.713  0.00  0.00    +0.000 A 
ATOM     23  C   UNL     1      37.337   2.398  14.403  0.00  0.00    +0.000 A 
ATOM     24  C   UNL     1      36.444   1.421  14.032  0.00  0.00    +0.000 A 
ATOM     25  C   UNL     1      36.555   0.853  12.745  0.00  0.00    +0.000 A 
ATOM     26  C   UNL     1      37.545   1.322  11.954  0.00  0.00    +0.000 A 
ATOM     27  C   UNL     1      38.437   2.302  12.325  0.00  0.00    +0.000 A 
ATOM     28  C   UNL     1      38.328   2.861  13.601  0.00  0.00    +0.000 A 
ATOM     29  C   UNL     1      39.220   3.837  14.044  0.00  0.00    +0.000 A 
ATOM     30  C   UNL     1      39.103   4.353  15.335  0.00  0.00    +0.000 A 
ATOM     31  C   UNL     1      40.016   5.320  15.756  0.00  0.00    +0.000 A 
ATOM     32  C   UNL     1      39.881   5.805  17.059  0.00  0.00    +0.000 A 
ATOM     33  C   UNL     1      38.886   5.325  17.830  0.00  0.00    +0.000 A 
ATOM     34  C   UNL     1      37.986   4.380  17.426  0.00  0.00    +0.000 A 
ATOM     35  C   UNL     1      38.089   3.862  16.119  0.00  0.00    +0.000 A 
ENDBRANCH  21  22
ENDBRANCH  20  21
ENDBRANCH  19  20
ENDBRANCH   1  19
TORSDOF 11
ENDMDL
MODEL 3
REMARK VINA RESULT:      -6.9      1.904      6.001
REMARK  Name = 
REMARK  11 active torsions:
REMARK  status: ('A' for Active; 'I' for Inactive)
REMARK    1  A    between atoms: O_2  and  C_3
REMARK    2  A    between atoms: C_6  and  C_7
REMARK    3  A    between atoms: C_7  and  C_8
REMARK    4  A    between atoms: C_7  and  C_10
REMARK    5  A    between atoms: C_7  and  C_29
REMARK    6  A    between atoms: C_10  and  C_11
REMARK    7  A    between atoms: C_11  and  C_12
REMARK    8  A    between atoms: C_12  and  N_13
REMARK    9  A    between atoms: N_13  and  C_14
REMARK   10  A    between atoms: C_14  and  C_15
REMARK   11  A    between atoms: C_33  and  O_34
REMARK                            x       y       z     vdW  Elec       q    Type
REMARK                         _______ _______ _______ _____ _____    ______ ____
ROOT
ATOM      1  C   UNL     1      35.901   3.545  15.462  0.00  0.00    +0.000 C 
ENDROOT
BRANCH   1   2
ATOM      2  C   UNL     1      37.226   3.497  16.270  0.00  0.00    +0.000 C 
BRANCH   2   3
ATOM      3  C   UNL     1      38.174   4.325  15.490  0.00  0.00    +0.000 C 
BRANCH   3   7
ATOM      4  C   UNL     1      39.843   2.587  11.965  0.00  0.00    +0.000 A 
ATOM      5  C   UNL     1      40.267   2.206  13.189  0.00  0.00    +0.000 A 
ATOM      6  C   UNL     1      39.756   2.769  14.361  0.00  0.00    +0.000 A 
ATOM      7  C   UNL     1      38.771   3.765  14.275  0.00  0.00    +0.000 A 
ATOM      8  C   UNL     1      38.372   4.125  13.006  0.00  0.00    +0.000 A 
ATOM      9  C   UNL     1      38.860   3.586  11.841  0.00  0.00    +0.000 A 
BRANCH   4  11
ATOM     10  C   UNL     1      41.424   1.102  10.908  0.00  0.00    +0.000 C 
ATOM     11  O   UNL     1      40.324   2.031  10.775  0.00  0.00    +0.000 OA
ENDBRANCH   4  11
BRANCH   9  12
ATOM     12  O   UNL     1      38.449   3.966  10.572  0.00  0.00    +0.000 OA
ATOM     13  C   UNL     1      37.229   3.476  10.044  0.00  0.00    +0.000 C 
ENDBRANCH   9  12
ENDBRANCH   3   7
BRANCH   3  14
ATOM     14  C   UNL     1      39.345   4.741  16.411  0.00  0.00    +0.000 C 
ATOM     15  C   UNL     1      38.611   5.136  17.722  0.00  0.00    +0.000 C 
ATOM     16  C   UNL     1      39.824   6.094  15.860  0.00  0.00    +0.000 C 
ENDBRANCH   3  14
BRANCH   3  17
ATOM     17  C   UNL     1      37.455   5.586  15.140  0.00  0.00    +0.000 C 
ATOM     18  N   UNL     1      36.911   6.556  14.872  0.00  0.00    +0.000 NA
ENDBRANCH   3  17
ENDBRANCH   2   3
ENDBRANCH   1   2
BRANCH   1  19
ATOM     19  C   UNL     1      34.866   2.658  16.105  0.00  0.00    +0.000 C 
BRANCH  19  20
ATOM     20  N   UNL     1      35.637   1.747  17.009  0.00  0.00    +0.000 NA
BRANCH  20  21
ATOM     21  C   UNL     1      35.215   0.429  16.518  0.00  0.00    +0.000 C 
BRANCH  21  22
ATOM     22  C   UNL     1      36.398  -0.323  16.083  0.00  0.00    +0.000 A 
ATOM     23  C   UNL     1      37.058  -1.110  17.051  0.00  0.00    +0.000 A 
ATOM     24  C   UNL     1      36.535  -1.064  18.321  0.00  0.00    +0.000 A 
ATOM     25  C   UNL     1      37.168  -1.803  19.343  0.00  0.00    +0.000 A 
ATOM     26  C   UNL     1      38.259  -2.520  18.992  0.00  0.00    +0.000 A 
ATOM     27  C   UNL     1      38.781  -2.567  17.720  0.00  0.00    +0.000 A 
ATOM     28  C   UNL     1      38.155  -1.832  16.710  0.00  0.00    +0.000 A 
ATOM     29  C   UNL     1      38.654  -1.818  15.408  0.00  0.00    +0.000 A 
ATOM     30  C   UNL     1      38.024  -1.049  14.429  0.00  0.00    +0.000 A 
ATOM     31  C   UNL     1      38.551  -1.043  13.138  0.00  0.00    +0.000 A 
ATOM     32  C   UNL     1      37.906  -0.252  12.185  0.00  0.00    +0.000 A 
ATOM     33  C   UNL     1      36.819   0.453  12.556  0.00  0.00    +0.000 A 
ATOM     34  C   UNL     1      36.295   0.453  13.816  0.00  0.00    +0.000 A 
ATOM     35  C   UNL     1      36.918  -0.331  14.809  0.00  0.00    +0.000 A 
ENDBRANCH  21  22
ENDBRANCH  20  21
ENDBRANCH  19  20
ENDBRANCH   1  19
TORSDOF 11
ENDMDL
MODEL 4
REMARK VINA RESULT:      -6.9      2.708      6.722
REMARK  Name = 
REMARK  11 active torsions:
REMARK  status: ('A' for Active; 'I' for Inactive)
REMARK    1  A    between atoms: O_2  and  C_3
REMARK    2  A    between atoms: C_6  and  C_7
REMARK    3  A    between atoms: C_7  and  C_8
REMARK    4  A    between atoms: C_7  and  C_10
REMARK    5  A    between atoms: C_7  and  C_29
REMARK    6  A    between atoms: C_10  and  C_11
REMARK    7  A    between atoms: C_11  and  C_12
REMARK    8  A    between atoms: C_12  and  N_13
REMARK    9  A    between atoms: N_13  and  C_14
REMARK   10  A    between atoms: C_14  and  C_15
REMARK   11  A    between atoms: C_33  and  O_34
REMARK                            x       y       z     vdW  Elec       q    Type
REMARK                         _______ _______ _______ _____ _____    ______ ____
ROOT
ATOM      1  C   UNL     1      39.449  -2.713  13.588  0.00  0.00    +0.000 C 
ENDROOT
BRANCH   1   2
ATOM      2  C   UNL     1      40.275  -2.475  12.295  0.00  0.00    +0.000 C 
BRANCH   2   3
ATOM      3  C   UNL     1      41.028  -1.225  12.552  0.00  0.00    +0.000 C 
BRANCH   3   7
ATOM      4  C   UNL     1      38.970   2.399  13.479  0.00  0.00    +0.000 A 
ATOM      5  C   UNL     1      39.802   1.829  14.377  0.00  0.00    +0.000 A 
ATOM      6  C   UNL     1      40.474   0.634  14.113  0.00  0.00    +0.000 A 
ATOM      7  C   UNL     1      40.286  -0.005  12.878  0.00  0.00    +0.000 A 
ATOM      8  C   UNL     1      39.425   0.610  11.995  0.00  0.00    +0.000 A 
ATOM      9  C   UNL     1      38.754   1.784  12.233  0.00  0.00    +0.000 A 
BRANCH   4  11
ATOM     10  C   UNL     1      38.363   4.120  15.058  0.00  0.00    +0.000 C 
ATOM     11  O   UNL     1      38.296   3.603  13.710  0.00  0.00    +0.000 OA
ENDBRANCH   4  11
BRANCH   9  12
ATOM     12  O   UNL     1      37.886   2.385  11.332  0.00  0.00    +0.000 OA
ATOM     13  C   UNL     1      37.307   1.624  10.287  0.00  0.00    +0.000 C 
ENDBRANCH   9  12
ENDBRANCH   3   7
BRANCH   3  14
ATOM     14  C   UNL     1      41.894  -0.903  11.312  0.00  0.00    +0.000 C 
ATOM     15  C   UNL     1      42.522  -2.284  10.978  0.00  0.00    +0.000 C 
ATOM     16  C   UNL     1      43.086  -0.101  11.856  0.00  0.00    +0.000 C 
ENDBRANCH   3  14
BRANCH   3  17
ATOM     17  C   UNL     1      41.985  -1.522  13.659  0.00  0.00    +0.000 C 
ATOM     18  N   UNL     1      42.722  -1.754  14.502  0.00  0.00    +0.000 NA
ENDBRANCH   3  17
ENDBRANCH   2   3
ENDBRANCH   1   2
BRANCH   1  19
ATOM     19  C   UNL     1      38.041  -3.121  13.240  0.00  0.00    +0.000 C 
BRANCH  19  20
ATOM     20  N   UNL     1      37.214  -2.727  14.424  0.00  0.00    +0.000 NA
BRANCH  20  21
ATOM     21  C   UNL     1      38.028  -1.646  14.997  0.00  0.00    +0.000 C 
BRANCH  21  22
ATOM     22  C   UNL     1      37.392  -1.168  16.230  0.00  0.00    +0.000 A 
ATOM     23  C   UNL     1      36.515  -0.067  16.123  0.00  0.00    +0.000 A 
ATOM     24  C   UNL     1      36.371   0.465  14.864  0.00  0.00    +0.000 A 
ATOM     25  C   UNL     1      35.533   1.588  14.694  0.00  0.00    +0.000 A 
ATOM     26  C   UNL     1      34.917   2.063  15.799  0.00  0.00    +0.000 A 
ATOM     27  C   UNL     1      35.060   1.528  17.058  0.00  0.00    +0.000 A 
ATOM     28  C   UNL     1      35.893   0.419  17.226  0.00  0.00    +0.000 A 
ATOM     29  C   UNL     1      36.101  -0.149  18.482  0.00  0.00    +0.000 A 
ATOM     30  C   UNL     1      36.963  -1.238  18.621  0.00  0.00    +0.000 A 
ATOM     31  C   UNL     1      37.161  -1.779  19.890  0.00  0.00    +0.000 A 
ATOM     32  C   UNL     1      38.042  -2.858  19.998  0.00  0.00    +0.000 A 
ATOM     33  C   UNL     1      38.643  -3.317  18.883  0.00  0.00    +0.000 A 
ATOM     34  C   UNL     1      38.454  -2.795  17.635  0.00  0.00    +0.000 A 
ATOM     35  C   UNL     1      37.575  -1.703  17.484  0.00  0.00    +0.000 A 
ENDBRANCH  21  22
ENDBRANCH  20  21
ENDBRANCH  19  20
ENDBRANCH   1  19
TORSDOF 11
ENDMDL
MODEL 5
REMARK VINA RESULT:      -6.9      1.938      6.605
REMARK  Name = 
REMARK  11 active torsions:
REMARK  status: ('A' for Active; 'I' for Inactive)
REMARK    1  A    between atoms: O_2  and  C_3
REMARK    2  A    between atoms: C_6  and  C_7
REMARK    3  A    between atoms: C_7  and  C_8
REMARK    4  A    between atoms: C_7  and  C_10
REMARK    5  A    between atoms: C_7  and  C_29
REMARK    6  A    between atoms: C_10  and  C_11
REMARK    7  A    between atoms: C_11  and  C_12
REMARK    8  A    between atoms: C_12  and  N_13
REMARK    9  A    between atoms: N_13  and  C_14
REMARK   10  A    between atoms: C_14  and  C_15
REMARK   11  A    between atoms: C_33  and  O_34
REMARK                            x       y       z     vdW  Elec       q    Type
REMARK                         _______ _______ _______ _____ _____    ______ ____
ROOT
ATOM      1  C   UNL     1      35.887   3.468  15.390  0.00  0.00    +0.000 C 
ENDROOT
BRANCH   1   2
ATOM      2  C   UNL     1      37.207   3.420  16.208  0.00  0.00    +0.000 C 
BRANCH   2   3
ATOM      3  C   UNL     1      38.153   4.268  15.446  0.00  0.00    +0.000 C 
BRANCH   3   7
ATOM      4  C   UNL     1      39.853   2.599  11.903  0.00  0.00    +0.000 A 
ATOM      5  C   UNL     1      40.265   2.193  13.122  0.00  0.00    +0.000 A 
ATOM      6  C   UNL     1      39.744   2.732  14.300  0.00  0.00    +0.000 A 
ATOM      7  C   UNL     1      38.761   3.731  14.226  0.00  0.00    +0.000 A 
ATOM      8  C   UNL     1      38.375   4.118  12.961  0.00  0.00    +0.000 A 
ATOM      9  C   UNL     1      38.872   3.602  11.790  0.00  0.00    +0.000 A 
BRANCH   4  11
ATOM     10  C   UNL     1      41.719   2.381  10.389  0.00  0.00    +0.000 C 
ATOM     11  O   UNL     1      40.344   2.067  10.706  0.00  0.00    +0.000 OA
ENDBRANCH   4  11
BRANCH   9  12
ATOM     12  O   UNL     1      38.474   4.008  10.525  0.00  0.00    +0.000 OA
ATOM     13  C   UNL     1      37.098   4.027  10.185  0.00  0.00    +0.000 C 
ENDBRANCH   9  12
ENDBRANCH   3   7
BRANCH   3  14
ATOM     14  C   UNL     1      39.316   4.676  16.381  0.00  0.00    +0.000 C 
ATOM     15  C   UNL     1      38.574   5.023  17.701  0.00  0.00    +0.000 C 
ATOM     16  C   UNL     1      39.776   6.050  15.868  0.00  0.00    +0.000 C 
ENDBRANCH   3  14
BRANCH   3  17
ATOM     17  C   UNL     1      37.427   5.529  15.113  0.00  0.00    +0.000 C 
ATOM     18  N   UNL     1      36.877   6.500  14.862  0.00  0.00    +0.000 NA
ENDBRANCH   3  17
ENDBRANCH   2   3
ENDBRANCH   1   2
BRANCH   1  19
ATOM     19  C   UNL     1      34.810   2.682  16.091  0.00  0.00    +0.000 C 
BRANCH  19  20
ATOM     20  N   UNL     1      35.540   1.678  16.928  0.00  0.00    +0.000 NA
BRANCH  20  21
ATOM     21  C   UNL     1      35.231   0.430  16.217  0.00  0.00    +0.000 C 
BRANCH  21  22
ATOM     22  C   UNL     1      36.446  -0.387  16.129  0.00  0.00    +0.000 A 
ATOM     23  C   UNL     1      37.095  -0.452  14.877  0.00  0.00    +0.000 A 
ATOM     24  C   UNL     1      36.496   0.241  13.853  0.00  0.00    +0.000 A 
ATOM     25  C   UNL     1      37.077   0.191  12.568  0.00  0.00    +0.000 A 
ATOM     26  C   UNL     1      38.203  -0.544  12.436  0.00  0.00    +0.000 A 
ATOM     27  C   UNL     1      38.804  -1.236  13.462  0.00  0.00    +0.000 A 
ATOM     28  C   UNL     1      38.226  -1.188  14.733  0.00  0.00    +0.000 A 
ATOM     29  C   UNL     1      38.772  -1.892  15.806  0.00  0.00    +0.000 A 
ATOM     30  C   UNL     1      38.153  -1.848  17.055  0.00  0.00    +0.000 A 
ATOM     31  C   UNL     1      38.714  -2.570  18.108  0.00  0.00    +0.000 A 
ATOM     32  C   UNL     1      38.062  -2.518  19.342  0.00  0.00    +0.000 A 
ATOM     33  C   UNL     1      36.942  -1.778  19.452  0.00  0.00    +0.000 A 
ATOM     34  C   UNL     1      36.385  -1.066  18.428  0.00  0.00    +0.000 A 
ATOM     35  C   UNL     1      37.011  -1.094  17.165  0.00  0.00    +0.000 A 
ENDBRANCH  21  22
ENDBRANCH  20  21
ENDBRANCH  19  20
ENDBRANCH   1  19
TORSDOF 11
ENDMDL
MODEL 6
REMARK VINA RESULT:      -6.8      2.240      4.113
REMARK  Name = 
REMARK  11 active torsions:
REMARK  status: ('A' for Active; 'I' for Inactive)
REMARK    1  A    between atoms: O_2  and  C_3
REMARK    2  A    between atoms: C_6  and  C_7
REMARK    3  A    between atoms: C_7  and  C_8
REMARK    4  A    between atoms: C_7  and  C_10
REMARK    5  A    between atoms: C_7  and  C_29
REMARK    6  A    between atoms: C_10  and  C_11
REMARK    7  A    between atoms: C_11  and  C_12
REMARK    8  A    between atoms: C_12  and  N_13
REMARK    9  A    between atoms: N_13  and  C_14
REMARK   10  A    between atoms: C_14  and  C_15
REMARK   11  A    between atoms: C_33  and  O_34
REMARK                            x       y       z     vdW  Elec       q    Type
REMARK                         _______ _______ _______ _____ _____    ______ ____
ROOT
ATOM      1  C   UNL     1      37.608   1.605  14.425  0.00  0.00    +0.000 C 
ENDROOT
BRANCH   1   2
ATOM      2  C   UNL     1      39.138   1.436  14.629  0.00  0.00    +0.000 C 
BRANCH   2   3
ATOM      3  C   UNL     1      39.461   0.130  14.008  0.00  0.00    +0.000 C 
BRANCH   3   7
ATOM      4  C   UNL     1      37.810  -3.484  15.570  0.00  0.00    +0.000 A 
ATOM      5  C   UNL     1      37.519  -3.079  14.315  0.00  0.00    +0.000 A 
ATOM      6  C   UNL     1      38.026  -1.892  13.782  0.00  0.00    +0.000 A 
ATOM      7  C   UNL     1      38.866  -1.086  14.566  0.00  0.00    +0.000 A 
ATOM      8  C   UNL     1      39.131  -1.537  15.841  0.00  0.00    +0.000 A 
ATOM      9  C   UNL     1      38.644  -2.699  16.386  0.00  0.00    +0.000 A 
BRANCH   4  11
ATOM     10  C   UNL     1      35.941  -4.981  15.868  0.00  0.00    +0.000 C 
ATOM     11  O   UNL     1      37.331  -4.675  16.125  0.00  0.00    +0.000 OA
ENDBRANCH   4  11
BRANCH   9  12
ATOM     12  O   UNL     1      38.920  -3.134  17.675  0.00  0.00    +0.000 OA
ATOM     13  C   UNL     1      38.378  -2.445  18.788  0.00  0.00    +0.000 C 
ENDBRANCH   9  12
ENDBRANCH   3   7
BRANCH   3  14
ATOM     14  C   UNL     1      40.994  -0.068  14.039  0.00  0.00    +0.000 C 
ATOM     15  C   UNL     1      41.515   1.288  13.490  0.00  0.00    +0.000 C 
ATOM     16  C   UNL     1      41.291  -1.046  12.890  0.00  0.00    +0.000 C 
ENDBRANCH   3  14
BRANCH   3  17
ATOM     17  C   UNL     1      39.085   0.237  12.567  0.00  0.00    +0.000 C 
ATOM     18  N   UNL     1      38.792   0.314  11.464  0.00  0.00    +0.000 NA
ENDBRANCH   3  17
ENDBRANCH   2   3
ENDBRANCH   1   2
BRANCH   1  19
ATOM     19  C   UNL     1      37.110   2.807  15.184  0.00  0.00    +0.000 C 
BRANCH  19  20
ATOM     20  N   UNL     1      38.244   3.205  16.076  0.00  0.00    +0.000 NA
BRANCH  20  21
ATOM     21  C   UNL     1      38.153   4.670  16.022  0.00  0.00    +0.000 C 
BRANCH  21  22
ATOM     22  C   UNL     1      39.507   5.236  16.004  0.00  0.00    +0.000 A 
ATOM     23  C   UNL     1      40.010   5.754  17.216  0.00  0.00    +0.000 A 
ATOM     24  C   UNL     1      39.157   5.700  18.292  0.00  0.00    +0.000 A 
ATOM     25  C   UNL     1      39.587   6.231  19.527  0.00  0.00    +0.000 A 
ATOM     26  C   UNL     1      40.831   6.759  19.564  0.00  0.00    +0.000 A 
ATOM     27  C   UNL     1      41.686   6.809  18.488  0.00  0.00    +0.000 A 
ATOM     28  C   UNL     1      41.257   6.287  17.265  0.00  0.00    +0.000 A 
ATOM     29  C   UNL     1      42.067   6.335  16.131  0.00  0.00    +0.000 A 
ATOM     30  C   UNL     1      41.597   5.832  14.917  0.00  0.00    +0.000 A 
ATOM     31  C   UNL     1      42.424   5.904  13.796  0.00  0.00    +0.000 A 
ATOM     32  C   UNL     1      41.918   5.406  12.593  0.00  0.00    +0.000 A 
ATOM     33  C   UNL     1      40.677   4.883  12.579  0.00  0.00    +0.000 A 
ATOM     34  C   UNL     1      39.861   4.807  13.671  0.00  0.00    +0.000 A 
ATOM     35  C   UNL     1      40.331   5.301  14.904  0.00  0.00    +0.000 A 
ENDBRANCH  21  22
ENDBRANCH  20  21
ENDBRANCH  19  20
ENDBRANCH   1  19
TORSDOF 11
ENDMDL
MODEL 7
REMARK VINA RESULT:      -6.7      2.395      5.210
REMARK  Name = 
REMARK  11 active torsions:
REMARK  status: ('A' for Active; 'I' for Inactive)
REMARK    1  A    between atoms: O_2  and  C_3
REMARK    2  A    between atoms: C_6  and  C_7
REMARK    3  A    between atoms: C_7  and  C_8
REMARK    4  A    between atoms: C_7  and  C_10
REMARK    5  A    between atoms: C_7  and  C_29
REMARK    6  A    between atoms: C_10  and  C_11
REMARK    7  A    between atoms: C_11  and  C_12
REMARK    8  A    between atoms: C_12  and  N_13
REMARK    9  A    between atoms: N_13  and  C_14
REMARK   10  A    between atoms: C_14  and  C_15
REMARK   11  A    between atoms: C_33  and  O_34
REMARK                            x       y       z     vdW  Elec       q    Type
REMARK                         _______ _______ _______ _____ _____    ______ ____
ROOT
ATOM      1  C   UNL     1      38.099   2.115  14.033  0.00  0.00    +0.000 C 
ENDROOT
BRANCH   1   2
ATOM      2  C   UNL     1      39.435   1.546  14.583  0.00  0.00    +0.000 C 
BRANCH   2   3
ATOM      3  C   UNL     1      39.449   0.129  14.150  0.00  0.00    +0.000 C 
BRANCH   3   7
ATOM      4  C   UNL     1      36.856  -2.729  15.976  0.00  0.00    +0.000 A 
ATOM      5  C   UNL     1      36.641  -2.313  14.709  0.00  0.00    +0.000 A 
ATOM      6  C   UNL     1      37.458  -1.365  14.090  0.00  0.00    +0.000 A 
ATOM      7  C   UNL     1      38.540  -0.819  14.798  0.00  0.00    +0.000 A 
ATOM      8  C   UNL     1      38.717  -1.269  16.088  0.00  0.00    +0.000 A 
ATOM      9  C   UNL     1      37.928  -2.199  16.717  0.00  0.00    +0.000 A 
BRANCH   4  11
ATOM     10  C   UNL     1      36.216  -5.049  16.152  0.00  0.00    +0.000 C 
ATOM     11  O   UNL     1      36.064  -3.688  16.616  0.00  0.00    +0.000 OA
ENDBRANCH   4  11
BRANCH   9  12
ATOM     12  O   UNL     1      38.120  -2.636  18.020  0.00  0.00    +0.000 OA
ATOM     13  C   UNL     1      37.815  -1.782  19.108  0.00  0.00    +0.000 C 
ENDBRANCH   9  12
ENDBRANCH   3   7
BRANCH   3  14
ATOM     14  C   UNL     1      40.879  -0.430  14.328  0.00  0.00    +0.000 C 
ATOM     15  C   UNL     1      41.754   0.691  13.704  0.00  0.00    +0.000 C 
ATOM     16  C   UNL     1      40.991  -1.571  13.304  0.00  0.00    +0.000 C 
ENDBRANCH   3  14
BRANCH   3  17
ATOM     17  C   UNL     1      39.184   0.128  12.680  0.00  0.00    +0.000 C 
ATOM     18  N   UNL     1      38.989   0.127  11.553  0.00  0.00    +0.000 NA
ENDBRANCH   3  17
ENDBRANCH   2   3
ENDBRANCH   1   2
BRANCH   1  19
ATOM     19  C   UNL     1      37.541   3.145  14.981  0.00  0.00    +0.000 C 
BRANCH  19  20
ATOM     20  N   UNL     1      38.683   3.513  15.876  0.00  0.00    +0.000 NA
BRANCH  20  21
ATOM     21  C   UNL     1      38.624   4.980  15.830  0.00  0.00    +0.000 C 
BRANCH  21  22
ATOM     22  C   UNL     1      39.954   5.525  16.125  0.00  0.00    +0.000 A 
ATOM     23  C   UNL     1      40.857   5.650  15.048  0.00  0.00    +0.000 A 
ATOM     24  C   UNL     1      40.400   5.215  13.827  0.00  0.00    +0.000 A 
ATOM     25  C   UNL     1      41.265   5.283  12.715  0.00  0.00    +0.000 A 
ATOM     26  C   UNL     1      42.502   5.785  12.933  0.00  0.00    +0.000 A 
ATOM     27  C   UNL     1      42.958   6.223  14.155  0.00  0.00    +0.000 A 
ATOM     28  C   UNL     1      42.100   6.151  15.256  0.00  0.00    +0.000 A 
ATOM     29  C   UNL     1      42.515   6.553  16.525  0.00  0.00    +0.000 A 
ATOM     30  C   UNL     1      41.646   6.440  17.610  0.00  0.00    +0.000 A 
ATOM     31  C   UNL     1      42.090   6.838  18.871  0.00  0.00    +0.000 A 
ATOM     32  C   UNL     1      41.201   6.699  19.939  0.00  0.00    +0.000 A 
ATOM     33  C   UNL     1      39.973   6.198  19.699  0.00  0.00    +0.000 A 
ATOM     34  C   UNL     1      39.528   5.807  18.469  0.00  0.00    +0.000 A 
ATOM     35  C   UNL     1      40.396   5.929  17.364  0.00  0.00    +0.000 A 
ENDBRANCH  21  22
ENDBRANCH  20  21
ENDBRANCH  19  20
ENDBRANCH   1  19
TORSDOF 11
ENDMDL
MODEL 8
REMARK VINA RESULT:      -6.7      2.699      6.587
REMARK  Name = 
REMARK  11 active torsions:
REMARK  status: ('A' for Active; 'I' for Inactive)
REMARK    1  A    between atoms: O_2  and  C_3
REMARK    2  A    between atoms: C_6  and  C_7
REMARK    3  A    between atoms: C_7  and  C_8
REMARK    4  A    between atoms: C_7  and  C_10
REMARK    5  A    between atoms: C_7  and  C_29
REMARK    6  A    between atoms: C_10  and  C_11
REMARK    7  A    between atoms: C_11  and  C_12
REMARK    8  A    between atoms: C_12  and  N_13
REMARK    9  A    between atoms: N_13  and  C_14
REMARK   10  A    between atoms: C_14  and  C_15
REMARK   11  A    between atoms: C_33  and  O_34
REMARK                            x       y       z     vdW  Elec       q    Type
REMARK                         _______ _______ _______ _____ _____    ______ ____
ROOT
ATOM      1  C   UNL     1      38.341  -1.849  13.071  0.00  0.00    +0.000 C 
ENDROOT
BRANCH   1   2
ATOM      2  C   UNL     1      39.494  -1.855  12.030  0.00  0.00    +0.000 C 
BRANCH   2   3
ATOM      3  C   UNL     1      40.375  -0.735  12.435  0.00  0.00    +0.000 C 
BRANCH   3   7
ATOM      4  C   UNL     1      38.712   2.974  13.741  0.00  0.00    +0.000 A 
ATOM      5  C   UNL     1      39.461   2.222  14.576  0.00  0.00    +0.000 A 
ATOM      6  C   UNL     1      40.002   0.996  14.187  0.00  0.00    +0.000 A 
ATOM      7  C   UNL     1      39.766   0.517  12.888  0.00  0.00    +0.000 A 
ATOM      8  C   UNL     1      38.992   1.315  12.073  0.00  0.00    +0.000 A 
ATOM      9  C   UNL     1      38.450   2.524  12.434  0.00  0.00    +0.000 A 
BRANCH   4  11
ATOM     10  C   UNL     1      38.733   4.838  15.273  0.00  0.00    +0.000 C 
ATOM     11  O   UNL     1      38.170   4.213  14.097  0.00  0.00    +0.000 OA
ENDBRANCH   4  11
BRANCH   9  12
ATOM     12  O   UNL     1      37.669   3.311  11.600  0.00  0.00    +0.000 OA
ATOM     13  C   UNL     1      37.345   2.860  10.296  0.00  0.00    +0.000 C 
ENDBRANCH   9  12
ENDBRANCH   3   7
BRANCH   3  14
ATOM     14  C   UNL     1      41.301  -0.379  11.250  0.00  0.00    +0.000 C 
ATOM     15  C   UNL     1      40.464  -0.839  10.025  0.00  0.00    +0.000 C 
ATOM     16  C   UNL     1      42.436  -1.414  11.305  0.00  0.00    +0.000 C 
ENDBRANCH   3  14
BRANCH   3  17
ATOM     17  C   UNL     1      41.266  -1.259  13.513  0.00  0.00    +0.000 C 
ATOM     18  N   UNL     1      41.949  -1.653  14.341  0.00  0.00    +0.000 NA
ENDBRANCH   3  17
ENDBRANCH   2   3
ENDBRANCH   1   2
BRANCH   1  19
ATOM     19  C   UNL     1      37.994  -3.259  13.473  0.00  0.00    +0.000 C 
BRANCH  19  20
ATOM     20  N   UNL     1      37.431  -3.145  14.855  0.00  0.00    +0.000 NA
BRANCH  20  21
ATOM     21  C   UNL     1      38.263  -2.074  15.419  0.00  0.00    +0.000 C 
BRANCH  21  22
ATOM     22  C   UNL     1      37.546  -1.442  16.532  0.00  0.00    +0.000 A 
ATOM     23  C   UNL     1      37.739  -1.984  17.821  0.00  0.00    +0.000 A 
ATOM     24  C   UNL     1      38.566  -3.080  17.893  0.00  0.00    +0.000 A 
ATOM     25  C   UNL     1      38.776  -3.690  19.148  0.00  0.00    +0.000 A 
ATOM     26  C   UNL     1      38.142  -3.140  20.208  0.00  0.00    +0.000 A 
ATOM     27  C   UNL     1      37.317  -2.042  20.135  0.00  0.00    +0.000 A 
ATOM     28  C   UNL     1      37.108  -1.442  18.891  0.00  0.00    +0.000 A 
ATOM     29  C   UNL     1      36.259  -0.344  18.749  0.00  0.00    +0.000 A 
ATOM     30  C   UNL     1      36.047   0.214  17.489  0.00  0.00    +0.000 A 
ATOM     31  C   UNL     1      35.184   1.304  17.374  0.00  0.00    +0.000 A 
ATOM     32  C   UNL     1      34.981   1.830  16.096  0.00  0.00    +0.000 A 
ATOM     33  C   UNL     1      35.624   1.268  15.054  0.00  0.00    +0.000 A 
ATOM     34  C   UNL     1      36.471   0.202  15.156  0.00  0.00    +0.000 A 
ATOM     35  C   UNL     1      36.702  -0.361  16.428  0.00  0.00    +0.000 A 
ENDBRANCH  21  22
ENDBRANCH  20  21
ENDBRANCH  19  20
ENDBRANCH   1  19
TORSDOF 11
ENDMDL
MODEL 9
REMARK VINA RESULT:      -6.7      3.013      7.445
REMARK  Name = 
REMARK  11 active torsions:
REMARK  status: ('A' for Active; 'I' for Inactive)
REMARK    1  A    between atoms: O_2  and  C_3
REMARK    2  A    between atoms: C_6  and  C_7
REMARK    3  A    between atoms: C_7  and  C_8
REMARK    4  A    between atoms: C_7  and  C_10
REMARK    5  A    between atoms: C_7  and  C_29
REMARK    6  A    between atoms: C_10  and  C_11
REMARK    7  A    between atoms: C_11  and  C_12
REMARK    8  A    between atoms: C_12  and  N_13
REMARK    9  A    between atoms: N_13  and  C_14
REMARK   10  A    between atoms: C_14  and  C_15
REMARK   11  A    between atoms: C_33  and  O_34
REMARK                            x       y       z     vdW  Elec       q    Type
REMARK                         _______ _______ _______ _____ _____    ______ ____
ROOT
ATOM      1  C   UNL     1      35.512   3.628  14.693  0.00  0.00    +0.000 C 
ENDROOT
BRANCH   1   2
ATOM      2  C   UNL     1      37.026   3.485  15.008  0.00  0.00    +0.000 C 
BRANCH   2   3
ATOM      3  C   UNL     1      37.687   4.496  14.151  0.00  0.00    +0.000 C 
BRANCH   3   7
ATOM      4  C   UNL     1      36.450   4.711  10.071  0.00  0.00    +0.000 A 
ATOM      5  C   UNL     1      37.286   3.736  10.487  0.00  0.00    +0.000 A 
ATOM      6  C   UNL     1      37.725   3.649  11.810  0.00  0.00    +0.000 A 
ATOM      7  C   UNL     1      37.291   4.602  12.745  0.00  0.00    +0.000 A 
ATOM      8  C   UNL     1      36.443   5.581  12.274  0.00  0.00    +0.000 A 
ATOM      9  C   UNL     1      35.998   5.685  10.979  0.00  0.00    +0.000 A 
BRANCH   4  11
ATOM     10  C   UNL     1      35.733   3.565   8.072  0.00  0.00    +0.000 C 
ATOM     11  O   UNL     1      35.980   4.813   8.757  0.00  0.00    +0.000 OA
ENDBRANCH   4  11
BRANCH   9  12
ATOM     12  O   UNL     1      35.147   6.682  10.523  0.00  0.00    +0.000 OA
ATOM     13  C   UNL     1      34.090   7.145  11.345  0.00  0.00    +0.000 C 
ENDBRANCH   9  12
ENDBRANCH   3   7
BRANCH   3  14
ATOM     14  C   UNL     1      39.212   4.240  14.168  0.00  0.00    +0.000 C 
ATOM     15  C   UNL     1      39.295   2.765  14.650  0.00  0.00    +0.000 C 
ATOM     16  C   UNL     1      39.736   5.032  15.377  0.00  0.00    +0.000 C 
ENDBRANCH   3  14
BRANCH   3  17
ATOM     17  C   UNL     1      37.483   5.819  14.814  0.00  0.00    +0.000 C 
ATOM     18  N   UNL     1      37.335   6.833  15.322  0.00  0.00    +0.000 NA
ENDBRANCH   3  17
ENDBRANCH   2   3
ENDBRANCH   1   2
BRANCH   1  19
ATOM     19  C   UNL     1      34.694   2.869  15.705  0.00  0.00    +0.000 C 
BRANCH  19  20
ATOM     20  N   UNL     1      35.674   1.997  16.426  0.00  0.00    +0.000 NA
BRANCH  20  21
ATOM     21  C   UNL     1      35.289   0.666  15.940  0.00  0.00    +0.000 C 
BRANCH  21  22
ATOM     22  C   UNL     1      36.467  -0.209  15.945  0.00  0.00    +0.000 A 
ATOM     23  C   UNL     1      37.164  -0.366  14.729  0.00  0.00    +0.000 A 
ATOM     24  C   UNL     1      36.642   0.301  13.647  0.00  0.00    +0.000 A 
ATOM     25  C   UNL     1      37.273   0.159  12.392  0.00  0.00    +0.000 A 
ATOM     26  C   UNL     1      38.369  -0.631  12.346  0.00  0.00    +0.000 A 
ATOM     27  C   UNL     1      38.893  -1.296  13.430  0.00  0.00    +0.000 A 
ATOM     28  C   UNL     1      38.264  -1.158  14.670  0.00  0.00    +0.000 A 
ATOM     29  C   UNL     1      38.731  -1.830  15.800  0.00  0.00    +0.000 A 
ATOM     30  C   UNL     1      38.063  -1.696  17.017  0.00  0.00    +0.000 A 
ATOM     31  C   UNL     1      38.545  -2.388  18.127  0.00  0.00    +0.000 A 
ATOM     32  C   UNL     1      37.844  -2.244  19.327  0.00  0.00    +0.000 A 
ATOM     33  C   UNL     1      36.756  -1.450  19.351  0.00  0.00    +0.000 A 
ATOM     34  C   UNL     1      36.278  -0.767  18.270  0.00  0.00    +0.000 A 
ATOM     35  C   UNL     1      36.954  -0.887  17.039  0.00  0.00    +0.000 A 
ENDBRANCH  21  22
ENDBRANCH  20  21
ENDBRANCH  19  20
ENDBRANCH   1  19
TORSDOF 11
ENDMDL
MODEL 10
REMARK VINA RESULT:      -6.6      3.754      8.722
REMARK  Name = 
REMARK  11 active torsions:
REMARK  status: ('A' for Active; 'I' for Inactive)
REMARK    1  A    between atoms: O_2  and  C_3
REMARK    2  A    between atoms: C_6  and  C_7
REMARK    3  A    between atoms: C_7  and  C_8
REMARK    4  A    between atoms: C_7  and  C_10
REMARK    5  A    between atoms: C_7  and  C_29
REMARK    6  A    between atoms: C_10  and  C_11
REMARK    7  A    between atoms: C_11  and  C_12
REMARK    8  A    between atoms: C_12  and  N_13
REMARK    9  A    between atoms: N_13  and  C_14
REMARK   10  A    between atoms: C_14  and  C_15
REMARK   11  A    between atoms: C_33  and  O_34
REMARK                            x       y       z     vdW  Elec       q    Type
REMARK                         _______ _______ _______ _____ _____    ______ ____
ROOT
ATOM      1  C   UNL     1      38.453   4.729  17.683  0.00  0.00    +0.000 C 
ENDROOT
BRANCH   1   2
ATOM      2  C   UNL     1      39.746   5.389  17.132  0.00  0.00    +0.000 C 
BRANCH   2   3
ATOM      3  C   UNL     1      39.798   6.719  17.782  0.00  0.00    +0.000 C 
BRANCH   3   7
ATOM      4  C   UNL     1      36.419   9.326  17.668  0.00  0.00    +0.000 A 
ATOM      5  C   UNL     1      36.861   8.821  18.840  0.00  0.00    +0.000 A 
ATOM      6  C   UNL     1      37.950   7.951  18.909  0.00  0.00    +0.000 A 
ATOM      7  C   UNL     1      38.614   7.580  17.729  0.00  0.00    +0.000 A 
ATOM      8  C   UNL     1      38.125   8.116  16.557  0.00  0.00    +0.000 A 
ATOM      9  C   UNL     1      37.057   8.973  16.465  0.00  0.00    +0.000 A 
BRANCH   4  11
ATOM     10  C   UNL     1      34.028   9.640  17.769  0.00  0.00    +0.000 C 
ATOM     11  O   UNL     1      35.341  10.212  17.569  0.00  0.00    +0.000 OA
ENDBRANCH   4  11
BRANCH   9  12
ATOM     12  O   UNL     1      36.576   9.498  15.274  0.00  0.00    +0.000 OA
ATOM     13  C   UNL     1      35.754   8.710  14.431  0.00  0.00    +0.000 C 
ENDBRANCH   9  12
ENDBRANCH   3   7
BRANCH   3  14
ATOM     14  C   UNL     1      40.965   7.526  17.168  0.00  0.00    +0.000 C 
ATOM     15  C   UNL     1      42.122   6.490  17.168  0.00  0.00    +0.000 C 
ATOM     16  C   UNL     1      41.385   8.518  18.265  0.00  0.00    +0.000 C 
ENDBRANCH   3  14
BRANCH   3  17
ATOM     17  C   UNL     1      40.164   6.484  19.211  0.00  0.00    +0.000 C 
ATOM     18  N   UNL     1      40.443   6.313  20.306  0.00  0.00    +0.000 NA
ENDBRANCH   3  17
ENDBRANCH   2   3
ENDBRANCH   1   2
BRANCH   1  19
ATOM     19  C   UNL     1      37.563   4.297  16.547  0.00  0.00    +0.000 C 
BRANCH  19  20
ATOM     20  N   UNL     1      37.101   2.920  16.912  0.00  0.00    +0.000 NA
BRANCH  20  21
ATOM     21  C   UNL     1      36.875   2.330  15.587  0.00  0.00    +0.000 C 
BRANCH  21  22
ATOM     22  C   UNL     1      37.239   0.909  15.623  0.00  0.00    +0.000 A 
ATOM     23  C   UNL     1      38.495   0.548  15.091  0.00  0.00    +0.000 A 
ATOM     24  C   UNL     1      39.240   1.574  14.560  0.00  0.00    +0.000 A 
ATOM     25  C   UNL     1      40.493   1.275  13.982  0.00  0.00    +0.000 A 
ATOM     26  C   UNL     1      40.878  -0.021  13.998  0.00  0.00    +0.000 A 
ATOM     27  C   UNL     1      40.133  -1.046  14.531  0.00  0.00    +0.000 A 
ATOM     28  C   UNL     1      38.892  -0.749  15.100  0.00  0.00    +0.000 A 
ATOM     29  C   UNL     1      38.079  -1.750  15.631  0.00  0.00    +0.000 A 
ATOM     30  C   UNL     1      36.831  -1.425  16.164  0.00  0.00    +0.000 A 
ATOM     31  C   UNL     1      36.034  -2.447  16.677  0.00  0.00    +0.000 A 
ATOM     32  C   UNL     1      34.784  -2.090  17.190  0.00  0.00    +0.000 A 
ATOM     33  C   UNL     1      34.420  -0.793  17.166  0.00  0.00    +0.000 A 
ATOM     34  C   UNL     1      35.195   0.215  16.667  0.00  0.00    +0.000 A 
ATOM     35  C   UNL     1      36.462  -0.103  16.138  0.00  0.00    +0.000 A 
ENDBRANCH  21  22
ENDBRANCH  20  21
ENDBRANCH  19  20
ENDBRANCH   1  19
TORSDOF 11
ENDMDL
