MODEL 1
REMARK VINA RESULT:      -6.3      0.000      0.000
REMARK  Name = 
REMARK  3 active torsions:
REMARK  status: ('A' for Active; 'I' for Inactive)
REMARK    1  A    between atoms: C_6  and  C_7
REMARK    2  A    between atoms: N_9  and  C_10
REMARK    3  A    between atoms: C_10  and  C_11
REMARK                            x       y       z     vdW  Elec       q    Type
REMARK                         _______ _______ _______ _____ _____    ______ ____
ROOT
ATOM      1  N   UNL     1      34.783  21.816  10.873  0.00  0.00    +0.000 NA
ATOM      2  C   UNL     1      33.916  21.624   9.722  0.00  0.00    +0.000 A 
ATOM      3  S   UNL     1      34.323  21.642   8.066  0.00  0.00    +0.000 S 
ATOM      4  C   UNL     1      32.787  21.349   7.405  0.00  0.00    +0.000 A 
ATOM      5  C   UNL     1      31.986  21.243   8.500  0.00  0.00    +0.000 A 
ATOM      6  C   UNL     1      32.563  21.385   9.713  0.00  0.00    +0.000 A 
ATOM      7  C   UNL     1      30.527  20.976   8.173  0.00  0.00    +0.000 C 
ATOM      8  C   UNL     1      30.495  19.791   7.265  0.00  0.00    +0.000 C 
ATOM      9  C   UNL     1      31.291  19.969   5.999  0.00  0.00    +0.000 C 
ATOM     10  C   UNL     1      32.167  21.195   6.035  0.00  0.00    +0.000 C 
ENDROOT
BRANCH   6  11
ATOM     11  C   UNL     1      31.839  21.297  11.019  0.00  0.00    +0.000 C 
ATOM     12  O   UNL     1      31.756  20.245  11.663  0.00  0.00    +0.000 OA
ATOM     13  N   UNL     1      31.224  22.452  11.549  0.00  0.00    +0.000 NA
BRANCH  13  14
ATOM     14  C   UNL     1      30.501  22.533  12.773  0.00  0.00    +0.000 C 
BRANCH  14  15
ATOM     15  C   UNL     1      29.061  22.809  12.613  0.00  0.00    +0.000 A 
ATOM     16  C   UNL     1      28.411  23.586  13.540  0.00  0.00    +0.000 A 
ATOM     17  C   UNL     1      27.055  23.869  13.423  0.00  0.00    +0.000 A 
ATOM     18  C   UNL     1      26.333  23.367  12.359  0.00  0.00    +0.000 A 
ATOM     19  C   UNL     1      26.981  22.593  11.436  0.00  0.00    +0.000 A 
ATOM     20  C   UNL     1      28.345  22.310  11.556  0.00  0.00    +0.000 A 
ENDBRANCH  14  15
ENDBRANCH  13  14
ENDBRANCH   6  11
TORSDOF 3
ENDMDL
MODEL 2
REMARK VINA RESULT:      -6.2     29.909     31.125
REMARK  Name = 
REMARK  3 active torsions:
REMARK  status: ('A' for Active; 'I' for Inactive)
REMARK    1  A    between atoms: C_6  and  C_7
REMARK    2  A    between atoms: N_9  and  C_10
REMARK    3  A    between atoms: C_10  and  C_11
REMARK                            x       y       z     vdW  Elec       q    Type
REMARK                         _______ _______ _______ _____ _____    ______ ____
ROOT
ATOM      1  N   UNL     1      20.530  11.459  40.714  0.00  0.00    +0.000 NA
ATOM      2  C   UNL     1      21.455  11.344  39.600  0.00  0.00    +0.000 A 
ATOM      3  S   UNL     1      23.015  12.016  39.436  0.00  0.00    +0.000 S 
ATOM      4  C   UNL     1      23.404  11.426  37.892  0.00  0.00    +0.000 A 
ATOM      5  C   UNL     1      22.300  10.714  37.537  0.00  0.00    +0.000 A 
ATOM      6  C   UNL     1      21.278  10.664  38.420  0.00  0.00    +0.000 A 
ATOM      7  C   UNL     1      22.397  10.070  36.165  0.00  0.00    +0.000 C 
ATOM      8  C   UNL     1      23.671   9.293  36.138  0.00  0.00    +0.000 C 
ATOM      9  C   UNL     1      24.898  10.121  36.415  0.00  0.00    +0.000 C 
ATOM     10  C   UNL     1      24.562  11.499  36.924  0.00  0.00    +0.000 C 
ENDROOT
BRANCH   6  11
ATOM     11  C   UNL     1      19.994   9.929  38.199  0.00  0.00    +0.000 C 
ATOM     12  O   UNL     1      19.751   8.841  38.735  0.00  0.00    +0.000 OA
ATOM     13  N   UNL     1      19.014  10.486  37.350  0.00  0.00    +0.000 NA
BRANCH  13  14
ATOM     14  C   UNL     1      17.747   9.915  37.039  0.00  0.00    +0.000 C 
BRANCH  14  15
ATOM     15  C   UNL     1      17.171  10.371  35.760  0.00  0.00    +0.000 A 
ATOM     16  C   UNL     1      16.123  11.258  35.765  0.00  0.00    +0.000 A 
ATOM     17  C   UNL     1      15.554  11.712  34.581  0.00  0.00    +0.000 A 
ATOM     18  C   UNL     1      16.041  11.272  33.367  0.00  0.00    +0.000 A 
ATOM     19  C   UNL     1      17.085  10.388  33.361  0.00  0.00    +0.000 A 
ATOM     20  C   UNL     1      17.655   9.933  34.555  0.00  0.00    +0.000 A 
ENDBRANCH  14  15
ENDBRANCH  13  14
ENDBRANCH   6  11
TORSDOF 3
ENDMDL
MODEL 3
REMARK VINA RESULT:      -6.1      5.135      7.303
REMARK  Name = 
REMARK  3 active torsions:
REMARK  status: ('A' for Active; 'I' for Inactive)
REMARK    1  A    between atoms: C_6  and  C_7
REMARK    2  A    between atoms: N_9  and  C_10
REMARK    3  A    between atoms: C_10  and  C_11
REMARK                            x       y       z     vdW  Elec       q    Type
REMARK                         _______ _______ _______ _____ _____    ______ ____
ROOT
ATOM      1  N   UNL     1      36.549  18.906   9.410  0.00  0.00    +0.000 NA
ATOM      2  C   UNL     1      35.253  19.451   9.777  0.00  0.00    +0.000 A 
ATOM      3  S   UNL     1      33.837  19.564   8.831  0.00  0.00    +0.000 S 
ATOM      4  C   UNL     1      32.810  20.300   9.965  0.00  0.00    +0.000 A 
ATOM      5  C   UNL     1      33.601  20.441  11.064  0.00  0.00    +0.000 A 
ATOM      6  C   UNL     1      34.876  20.002  10.977  0.00  0.00    +0.000 A 
ATOM      7  C   UNL     1      32.903  21.090  12.246  0.00  0.00    +0.000 C 
ATOM      8  C   UNL     1      31.645  20.321  12.483  0.00  0.00    +0.000 C 
ATOM      9  C   UNL     1      30.723  20.275  11.292  0.00  0.00    +0.000 C 
ATOM     10  C   UNL     1      31.380  20.782  10.034  0.00  0.00    +0.000 C 
ENDROOT
BRANCH   6  11
ATOM     11  C   UNL     1      35.881  20.075  12.082  0.00  0.00    +0.000 C 
ATOM     12  O   UNL     1      36.743  20.961  12.139  0.00  0.00    +0.000 OA
ATOM     13  N   UNL     1      35.857  19.105  13.107  0.00  0.00    +0.000 NA
BRANCH  13  14
ATOM     14  C   UNL     1      36.739  19.035  14.222  0.00  0.00    +0.000 C 
BRANCH  14  15
ATOM     15  C   UNL     1      36.523  17.870  15.099  0.00  0.00    +0.000 A 
ATOM     16  C   UNL     1      35.560  16.946  14.776  0.00  0.00    +0.000 A 
ATOM     17  C   UNL     1      35.326  15.834  15.576  0.00  0.00    +0.000 A 
ATOM     18  C   UNL     1      36.070  15.640  16.723  0.00  0.00    +0.000 A 
ATOM     19  C   UNL     1      37.030  16.560  17.045  0.00  0.00    +0.000 A 
ATOM     20  C   UNL     1      37.262  17.677  16.237  0.00  0.00    +0.000 A 
ENDBRANCH  14  15
ENDBRANCH  13  14
ENDBRANCH   6  11
TORSDOF 3
ENDMDL
MODEL 4
REMARK VINA RESULT:      -5.9     34.837     35.804
REMARK  Name = 
REMARK  3 active torsions:
REMARK  status: ('A' for Active; 'I' for Inactive)
REMARK    1  A    between atoms: C_6  and  C_7
REMARK    2  A    between atoms: N_9  and  C_10
REMARK    3  A    between atoms: C_10  and  C_11
REMARK                            x       y       z     vdW  Elec       q    Type
REMARK                         _______ _______ _______ _____ _____    ______ ____
ROOT
ATOM      1  N   UNL     1      19.965 -11.180  28.578  0.00  0.00    +0.000 NA
ATOM      2  C   UNL     1      19.489  -9.937  27.996  0.00  0.00    +0.000 A 
ATOM      3  S   UNL     1      18.047  -9.087  28.330  0.00  0.00    +0.000 S 
ATOM      4  C   UNL     1      18.247  -7.784  27.260  0.00  0.00    +0.000 A 
ATOM      5  C   UNL     1      19.442  -8.044  26.663  0.00  0.00    +0.000 A 
ATOM      6  C   UNL     1      20.098  -9.163  27.039  0.00  0.00    +0.000 A 
ATOM      7  C   UNL     1      19.858  -7.003  25.639  0.00  0.00    +0.000 C 
ATOM      8  C   UNL     1      19.779  -5.673  26.313  0.00  0.00    +0.000 C 
ATOM      9  C   UNL     1      18.415  -5.348  26.865  0.00  0.00    +0.000 C 
ATOM     10  C   UNL     1      17.491  -6.538  26.859  0.00  0.00    +0.000 C 
ENDROOT
BRANCH   6  11
ATOM     11  C   UNL     1      21.419  -9.603  26.492  0.00  0.00    +0.000 C 
ATOM     12  O   UNL     1      22.354  -9.958  27.220  0.00  0.00    +0.000 OA
ATOM     13  N   UNL     1      21.620  -9.620  25.096  0.00  0.00    +0.000 NA
BRANCH  13  14
ATOM     14  C   UNL     1      22.812 -10.010  24.421  0.00  0.00    +0.000 C 
BRANCH  14  15
ATOM     15  C   UNL     1      23.720  -8.895  24.096  0.00  0.00    +0.000 A 
ATOM     16  C   UNL     1      23.332  -7.604  24.354  0.00  0.00    +0.000 A 
ATOM     17  C   UNL     1      24.160  -6.527  24.062  0.00  0.00    +0.000 A 
ATOM     18  C   UNL     1      25.403  -6.743  23.501  0.00  0.00    +0.000 A 
ATOM     19  C   UNL     1      25.791  -8.029  23.244  0.00  0.00    +0.000 A 
ATOM     20  C   UNL     1      24.955  -9.111  23.539  0.00  0.00    +0.000 A 
ENDBRANCH  14  15
ENDBRANCH  13  14
ENDBRANCH   6  11
TORSDOF 3
ENDMDL
MODEL 5
REMARK VINA RESULT:      -5.9     36.094     37.261
REMARK  Name = 
REMARK  3 active torsions:
REMARK  status: ('A' for Active; 'I' for Inactive)
REMARK    1  A    between atoms: C_6  and  C_7
REMARK    2  A    between atoms: N_9  and  C_10
REMARK    3  A    between atoms: C_10  and  C_11
REMARK                            x       y       z     vdW  Elec       q    Type
REMARK                         _______ _______ _______ _____ _____    ______ ____
ROOT
ATOM      1  N   UNL     1      16.495  -9.572  23.226  0.00  0.00    +0.000 NA
ATOM      2  C   UNL     1      15.147  -9.283  23.685  0.00  0.00    +0.000 A 
ATOM      3  S   UNL     1      13.677  -9.419  22.829  0.00  0.00    +0.000 S 
ATOM      4  C   UNL     1      12.607  -8.907  24.044  0.00  0.00    +0.000 A 
ATOM      5  C   UNL     1      13.427  -8.640  25.097  0.00  0.00    +0.000 A 
ATOM      6  C   UNL     1      14.753  -8.832  24.922  0.00  0.00    +0.000 A 
ATOM      7  C   UNL     1      12.698  -8.152  26.337  0.00  0.00    +0.000 C 
ATOM      8  C   UNL     1      11.621  -9.145  26.626  0.00  0.00    +0.000 C 
ATOM      9  C   UNL     1      10.649  -9.341  25.492  0.00  0.00    +0.000 C 
ATOM     10  C   UNL     1      11.120  -8.700  24.212  0.00  0.00    +0.000 C 
ENDROOT
BRANCH   6  11
ATOM     11  C   UNL     1      15.796  -8.593  25.966  0.00  0.00    +0.000 C 
ATOM     12  O   UNL     1      16.125  -9.459  26.786  0.00  0.00    +0.000 OA
ATOM     13  N   UNL     1      16.437  -7.338  26.030  0.00  0.00    +0.000 NA
BRANCH  13  14
ATOM     14  C   UNL     1      17.445  -6.954  26.960  0.00  0.00    +0.000 C 
BRANCH  14  15
ATOM     15  C   UNL     1      18.818  -7.003  26.425  0.00  0.00    +0.000 A 
ATOM     16  C   UNL     1      19.480  -8.204  26.360  0.00  0.00    +0.000 A 
ATOM     17  C   UNL     1      20.775  -8.291  25.862  0.00  0.00    +0.000 A 
ATOM     18  C   UNL     1      21.422  -7.155  25.419  0.00  0.00    +0.000 A 
ATOM     19  C   UNL     1      20.763  -5.959  25.483  0.00  0.00    +0.000 A 
ATOM     20  C   UNL     1      19.461  -5.875  25.985  0.00  0.00    +0.000 A 
ENDBRANCH  14  15
ENDBRANCH  13  14
ENDBRANCH   6  11
TORSDOF 3
ENDMDL
MODEL 6
REMARK VINA RESULT:      -5.8     31.309     33.989
REMARK  Name = 
REMARK  3 active torsions:
REMARK  status: ('A' for Active; 'I' for Inactive)
REMARK    1  A    between atoms: C_6  and  C_7
REMARK    2  A    between atoms: N_9  and  C_10
REMARK    3  A    between atoms: C_10  and  C_11
REMARK                            x       y       z     vdW  Elec       q    Type
REMARK                         _______ _______ _______ _____ _____    ______ ____
ROOT
ATOM      1  N   UNL     1      21.905   7.308  40.585  0.00  0.00    +0.000 NA
ATOM      2  C   UNL     1      20.459   7.431  40.661  0.00  0.00    +0.000 A 
ATOM      3  S   UNL     1      19.318   6.279  41.192  0.00  0.00    +0.000 S 
ATOM      4  C   UNL     1      17.898   7.182  40.970  0.00  0.00    +0.000 A 
ATOM      5  C   UNL     1      18.350   8.370  40.484  0.00  0.00    +0.000 A 
ATOM      6  C   UNL     1      19.683   8.511  40.319  0.00  0.00    +0.000 A 
ATOM      7  C   UNL     1      17.250   9.377  40.195  0.00  0.00    +0.000 C 
ATOM      8  C   UNL     1      16.426   9.488  41.435  0.00  0.00    +0.000 C 
ATOM      9  C   UNL     1      15.833   8.182  41.895  0.00  0.00    +0.000 C 
ATOM     10  C   UNL     1      16.410   6.997  41.164  0.00  0.00    +0.000 C 
ENDROOT
BRANCH   6  11
ATOM     11  C   UNL     1      20.354   9.743  39.800  0.00  0.00    +0.000 C 
ATOM     12  O   UNL     1      20.844  10.598  40.548  0.00  0.00    +0.000 OA
ATOM     13  N   UNL     1      20.440   9.951  38.406  0.00  0.00    +0.000 NA
BRANCH  13  14
ATOM     14  C   UNL     1      21.043  11.066  37.757  0.00  0.00    +0.000 C 
BRANCH  14  15
ATOM     15  C   UNL     1      22.406  10.814  37.255  0.00  0.00    +0.000 A 
ATOM     16  C   UNL     1      22.628   9.783  36.377  0.00  0.00    +0.000 A 
ATOM     17  C   UNL     1      23.899   9.515  35.882  0.00  0.00    +0.000 A 
ATOM     18  C   UNL     1      24.971  10.293  36.271  0.00  0.00    +0.000 A 
ATOM     19  C   UNL     1      24.750  11.320  37.146  0.00  0.00    +0.000 A 
ATOM     20  C   UNL     1      23.470  11.587  37.643  0.00  0.00    +0.000 A 
ENDBRANCH  14  15
ENDBRANCH  13  14
ENDBRANCH   6  11
TORSDOF 3
ENDMDL
MODEL 7
REMARK VINA RESULT:      -5.8     33.962     34.506
REMARK  Name = 
REMARK  3 active torsions:
REMARK  status: ('A' for Active; 'I' for Inactive)
REMARK    1  A    between atoms: C_6  and  C_7
REMARK    2  A    between atoms: N_9  and  C_10
REMARK    3  A    between atoms: C_10  and  C_11
REMARK                            x       y       z     vdW  Elec       q    Type
REMARK                         _______ _______ _______ _____ _____    ______ ____
ROOT
ATOM      1  N   UNL     1      22.491 -10.768  25.441  0.00  0.00    +0.000 NA
ATOM      2  C   UNL     1      23.797 -10.298  25.012  0.00  0.00    +0.000 A 
ATOM      3  S   UNL     1      25.313 -11.063  25.180  0.00  0.00    +0.000 S 
ATOM      4  C   UNL     1      26.293  -9.889  24.443  0.00  0.00    +0.000 A 
ATOM      5  C   UNL     1      25.409  -8.920  24.080  0.00  0.00    +0.000 A 
ATOM      6  C   UNL     1      24.105  -9.122  24.372  0.00  0.00    +0.000 A 
ATOM      7  C   UNL     1      26.048  -7.730  23.386  0.00  0.00    +0.000 C 
ATOM      8  C   UNL     1      26.868  -8.272  22.262  0.00  0.00    +0.000 C 
ATOM      9  C   UNL     1      27.925  -9.255  22.695  0.00  0.00    +0.000 C 
ATOM     10  C   UNL     1      27.758  -9.688  24.128  0.00  0.00    +0.000 C 
ENDROOT
BRANCH   6  11
ATOM     11  C   UNL     1      22.999  -8.169  24.047  0.00  0.00    +0.000 C 
ATOM     12  O   UNL     1      22.444  -8.148  22.942  0.00  0.00    +0.000 OA
ATOM     13  N   UNL     1      22.561  -7.256  25.029  0.00  0.00    +0.000 NA
BRANCH  13  14
ATOM     14  C   UNL     1      21.526  -6.290  24.879  0.00  0.00    +0.000 C 
BRANCH  14  15
ATOM     15  C   UNL     1      20.341  -6.529  25.723  0.00  0.00    +0.000 A 
ATOM     16  C   UNL     1      20.067  -7.800  26.166  0.00  0.00    +0.000 A 
ATOM     17  C   UNL     1      18.961  -8.066  26.964  0.00  0.00    +0.000 A 
ATOM     18  C   UNL     1      18.109  -7.042  27.328  0.00  0.00    +0.000 A 
ATOM     19  C   UNL     1      18.382  -5.776  26.887  0.00  0.00    +0.000 A 
ATOM     20  C   UNL     1      19.496  -5.512  26.084  0.00  0.00    +0.000 A 
ENDBRANCH  14  15
ENDBRANCH  13  14
ENDBRANCH   6  11
TORSDOF 3
ENDMDL
MODEL 8
REMARK VINA RESULT:      -5.6     15.958     18.911
REMARK  Name = 
REMARK  3 active torsions:
REMARK  status: ('A' for Active; 'I' for Inactive)
REMARK    1  A    between atoms: C_6  and  C_7
REMARK    2  A    between atoms: N_9  and  C_10
REMARK    3  A    between atoms: C_10  and  C_11
REMARK                            x       y       z     vdW  Elec       q    Type
REMARK                         _______ _______ _______ _____ _____    ______ ____
ROOT
ATOM      1  N   UNL     1      25.385  24.563  29.017  0.00  0.00    +0.000 NA
ATOM      2  C   UNL     1      26.119  24.103  27.851  0.00  0.00    +0.000 A 
ATOM      3  S   UNL     1      25.857  24.482  26.208  0.00  0.00    +0.000 S 
ATOM      4  C   UNL     1      27.105  23.564  25.515  0.00  0.00    +0.000 A 
ATOM      5  C   UNL     1      27.703  22.979  26.589  0.00  0.00    +0.000 A 
ATOM      6  C   UNL     1      27.198  23.253  27.812  0.00  0.00    +0.000 A 
ATOM      7  C   UNL     1      28.877  22.085  26.230  0.00  0.00    +0.000 C 
ATOM      8  C   UNL     1      29.795  22.895  25.375  0.00  0.00    +0.000 C 
ATOM      9  C   UNL     1      29.149  23.436  24.127  0.00  0.00    +0.000 C 
ATOM     10  C   UNL     1      27.651  23.275  24.135  0.00  0.00    +0.000 C 
ENDROOT
BRANCH   6  11
ATOM     11  C   UNL     1      27.727  22.703  29.097  0.00  0.00    +0.000 C 
ATOM     12  O   UNL     1      27.211  21.735  29.668  0.00  0.00    +0.000 OA
ATOM     13  N   UNL     1      28.859  23.299  29.693  0.00  0.00    +0.000 NA
BRANCH  13  14
ATOM     14  C   UNL     1      29.482  22.897  30.908  0.00  0.00    +0.000 C 
BRANCH  14  15
ATOM     15  C   UNL     1      30.828  22.319  30.741  0.00  0.00    +0.000 A 
ATOM     16  C   UNL     1      31.485  22.461  29.544  0.00  0.00    +0.000 A 
ATOM     17  C   UNL     1      32.754  21.931  29.348  0.00  0.00    +0.000 A 
ATOM     18  C   UNL     1      33.382  21.244  30.368  0.00  0.00    +0.000 A 
ATOM     19  C   UNL     1      32.728  21.102  31.561  0.00  0.00    +0.000 A 
ATOM     20  C   UNL     1      31.450  21.637  31.755  0.00  0.00    +0.000 A 
ENDBRANCH  14  15
ENDBRANCH  13  14
ENDBRANCH   6  11
TORSDOF 3
ENDMDL
MODEL 9
REMARK VINA RESULT:      -5.6     30.129     32.120
REMARK  Name = 
REMARK  3 active torsions:
REMARK  status: ('A' for Active; 'I' for Inactive)
REMARK    1  A    between atoms: C_6  and  C_7
REMARK    2  A    between atoms: N_9  and  C_10
REMARK    3  A    between atoms: C_10  and  C_11
REMARK                            x       y       z     vdW  Elec       q    Type
REMARK                         _______ _______ _______ _____ _____    ______ ____
ROOT
ATOM      1  N   UNL     1      22.335   7.494  41.214  0.00  0.00    +0.000 NA
ATOM      2  C   UNL     1      22.882   8.258  40.106  0.00  0.00    +0.000 A 
ATOM      3  S   UNL     1      24.465   8.226  39.469  0.00  0.00    +0.000 S 
ATOM      4  C   UNL     1      24.282   9.375  38.232  0.00  0.00    +0.000 A 
ATOM      5  C   UNL     1      22.981   9.759  38.345  0.00  0.00    +0.000 A 
ATOM      6  C   UNL     1      22.242   9.183  39.318  0.00  0.00    +0.000 A 
ATOM      7  C   UNL     1      22.557  10.805  37.329  0.00  0.00    +0.000 C 
ATOM      8  C   UNL     1      22.933  10.282  35.983  0.00  0.00    +0.000 C 
ATOM      9  C   UNL     1      24.400   9.973  35.834  0.00  0.00    +0.000 C 
ATOM     10  C   UNL     1      25.132  10.002  37.151  0.00  0.00    +0.000 C 
ENDROOT
BRANCH   6  11
ATOM     11  C   UNL     1      20.801   9.482  39.586  0.00  0.00    +0.000 C 
ATOM     12  O   UNL     1      20.429  10.121  40.577  0.00  0.00    +0.000 OA
ATOM     13  N   UNL     1      19.819   9.025  38.681  0.00  0.00    +0.000 NA
BRANCH  13  14
ATOM     14  C   UNL     1      18.414   9.226  38.793  0.00  0.00    +0.000 C 
BRANCH  14  15
ATOM     15  C   UNL     1      17.781   9.787  37.585  0.00  0.00    +0.000 A 
ATOM     16  C   UNL     1      18.288   9.481  36.347  0.00  0.00    +0.000 A 
ATOM     17  C   UNL     1      17.719   9.989  35.186  0.00  0.00    +0.000 A 
ATOM     18  C   UNL     1      16.620  10.822  35.262  0.00  0.00    +0.000 A 
ATOM     19  C   UNL     1      16.114  11.127  36.495  0.00  0.00    +0.000 A 
ATOM     20  C   UNL     1      16.689  10.613  37.662  0.00  0.00    +0.000 A 
ENDBRANCH  14  15
ENDBRANCH  13  14
ENDBRANCH   6  11
TORSDOF 3
ENDMDL
MODEL 10
REMARK VINA RESULT:      -5.5     17.770     19.782
REMARK  Name = 
REMARK  3 active torsions:
REMARK  status: ('A' for Active; 'I' for Inactive)
REMARK    1  A    between atoms: C_6  and  C_7
REMARK    2  A    between atoms: N_9  and  C_10
REMARK    3  A    between atoms: C_10  and  C_11
REMARK                            x       y       z     vdW  Elec       q    Type
REMARK                         _______ _______ _______ _____ _____    ______ ____
ROOT
ATOM      1  N   UNL     1      24.584  26.319  31.567  0.00  0.00    +0.000 NA
ATOM      2  C   UNL     1      24.422  26.157  30.132  0.00  0.00    +0.000 A 
ATOM      3  S   UNL     1      23.369  26.987  29.077  0.00  0.00    +0.000 S 
ATOM      4  C   UNL     1      23.790  26.226  27.619  0.00  0.00    +0.000 A 
ATOM      5  C   UNL     1      24.749  25.336  27.991  0.00  0.00    +0.000 A 
ATOM      6  C   UNL     1      25.087  25.291  29.299  0.00  0.00    +0.000 A 
ATOM      7  C   UNL     1      25.302  24.510  26.843  0.00  0.00    +0.000 C 
ATOM      8  C   UNL     1      25.726  25.470  25.781  0.00  0.00    +0.000 C 
ATOM      9  C   UNL     1      24.621  26.370  25.294  0.00  0.00    +0.000 C 
ATOM     10  C   UNL     1      23.392  26.297  26.163  0.00  0.00    +0.000 C 
ENDROOT
BRANCH   6  11
ATOM     11  C   UNL     1      26.118  24.379  29.883  0.00  0.00    +0.000 C 
ATOM     12  O   UNL     1      25.821  23.380  30.549  0.00  0.00    +0.000 OA
ATOM     13  N   UNL     1      27.486  24.655  29.674  0.00  0.00    +0.000 NA
BRANCH  13  14
ATOM     14  C   UNL     1      28.584  23.890  30.161  0.00  0.00    +0.000 C 
BRANCH  14  15
ATOM     15  C   UNL     1      29.361  23.203  29.113  0.00  0.00    +0.000 A 
ATOM     16  C   UNL     1      28.775  22.930  27.901  0.00  0.00    +0.000 A 
ATOM     17  C   UNL     1      29.474  22.286  26.888  0.00  0.00    +0.000 A 
ATOM     18  C   UNL     1      30.787  21.906  27.088  0.00  0.00    +0.000 A 
ATOM     19  C   UNL     1      31.371  22.178  28.294  0.00  0.00    +0.000 A 
ATOM     20  C   UNL     1      30.664  22.826  29.312  0.00  0.00    +0.000 A 
ENDBRANCH  14  15
ENDBRANCH  13  14
ENDBRANCH   6  11
TORSDOF 3
ENDMDL
