MODEL 1
REMARK VINA RESULT:      -7.5      0.000      0.000
REMARK  Name = 
REMARK  1 active torsions:
REMARK  status: ('A' for Active; 'I' for Inactive)
REMARK    1  A    between atoms: C_2  and  C_3
REMARK                            x       y       z     vdW  Elec       q    Type
REMARK                         _______ _______ _______ _____ _____    ______ ____
ROOT
ATOM      1  C   UNL     1      28.614  24.347  23.221  0.00  0.00    +0.000 C 
ATOM      2  O   UNL     1      28.296  23.026  23.051  0.00  0.00    +0.000 OA
ATOM      3  C   UNL     1      27.484  25.115  23.836  0.00  0.00    +0.000 C 
ATOM      4  C   UNL     1      27.490  24.719  25.239  0.00  0.00    +0.000 C 
ATOM      5  C   UNL     1      29.009  24.373  25.629  0.00  0.00    +0.000 C 
ATOM      6  C   UNL     1      28.841  22.729  25.236  0.00  0.00    +0.000 C 
ATOM      7  C   UNL     1      27.801  22.372  26.422  0.00  0.00    +0.000 C 
ATOM      8  C   UNL     1      27.928  23.010  27.626  0.00  0.00    +0.000 C 
ATOM      9  C   UNL     1      29.289  22.913  28.181  0.00  0.00    +0.000 C 
ATOM     10  C   UNL     1      30.203  22.544  27.384  0.00  0.00    +0.000 C 
ATOM     11  C   UNL     1      31.607  22.433  27.913  0.00  0.00    +0.000 C 
ATOM     12  C   UNL     1      31.696  22.050  29.322  0.00  0.00    +0.000 C 
ATOM     13  C   UNL     1      30.629  22.511  30.201  0.00  0.00    +0.000 C 
ATOM     14  O   UNL     1      30.729  22.255  31.384  0.00  0.00    +0.000 OA
ATOM     15  C   UNL     1      29.495  23.253  29.642  0.00  0.00    +0.000 C 
ATOM     16  C   UNL     1      30.242  22.150  25.931  0.00  0.00    +0.000 C 
ATOM     17  C   UNL     1      31.231  23.310  25.405  0.00  0.00    +0.000 C 
ATOM     18  C   UNL     1      30.825  23.745  24.057  0.00  0.00    +0.000 C 
ATOM     19  C   UNL     1      29.662  24.676  24.194  0.00  0.00    +0.000 C 
ATOM     20  C   UNL     1      30.011  26.120  24.126  0.00  0.00    +0.000 C 
ENDROOT
BRANCH   1  22
ATOM     21  C   UNL     1      29.367  25.281  20.839  0.00  0.00    +0.000 C 
ATOM     22  C   UNL     1      29.027  24.860  21.924  0.00  0.00    +0.000 C 
ENDBRANCH   1  22
TORSDOF 1
ENDMDL
MODEL 2
REMARK VINA RESULT:      -7.3      2.211      2.879
REMARK  Name = 
REMARK  1 active torsions:
REMARK  status: ('A' for Active; 'I' for Inactive)
REMARK    1  A    between atoms: C_2  and  C_3
REMARK                            x       y       z     vdW  Elec       q    Type
REMARK                         _______ _______ _______ _____ _____    ______ ____
ROOT
ATOM      1  C   UNL     1      27.695  25.278  22.710  0.00  0.00    +0.000 C 
ATOM      2  O   UNL     1      26.809  24.300  22.343  0.00  0.00    +0.000 OA
ATOM      3  C   UNL     1      26.997  26.557  23.056  0.00  0.00    +0.000 C 
ATOM      4  C   UNL     1      26.404  26.311  24.366  0.00  0.00    +0.000 C 
ATOM      5  C   UNL     1      27.351  25.262  25.127  0.00  0.00    +0.000 C 
ATOM      6  C   UNL     1      26.485  23.915  24.557  0.00  0.00    +0.000 C 
ATOM      7  C   UNL     1      25.124  24.227  25.374  0.00  0.00    +0.000 C 
ATOM      8  C   UNL     1      25.214  24.789  26.619  0.00  0.00    +0.000 C 
ATOM      9  C   UNL     1      26.114  24.044  27.517  0.00  0.00    +0.000 C 
ATOM     10  C   UNL     1      26.893  23.204  26.972  0.00  0.00    +0.000 C 
ATOM     11  C   UNL     1      27.827  22.423  27.856  0.00  0.00    +0.000 C 
ATOM     12  C   UNL     1      27.307  22.146  29.195  0.00  0.00    +0.000 C 
ATOM     13  C   UNL     1      26.429  23.150  29.783  0.00  0.00    +0.000 C 
ATOM     14  O   UNL     1      26.046  22.961  30.921  0.00  0.00    +0.000 OA
ATOM     15  C   UNL     1      26.044  24.329  29.002  0.00  0.00    +0.000 C 
ATOM     16  C   UNL     1      27.131  22.748  25.558  0.00  0.00    +0.000 C 
ATOM     17  C   UNL     1      28.675  23.194  25.430  0.00  0.00    +0.000 C 
ATOM     18  C   UNL     1      28.947  23.683  24.067  0.00  0.00    +0.000 C 
ATOM     19  C   UNL     1      28.440  25.086  23.960  0.00  0.00    +0.000 C 
ATOM     20  C   UNL     1      29.481  26.136  24.120  0.00  0.00    +0.000 C 
ENDROOT
BRANCH   1  22
ATOM     21  C   UNL     1      29.455  25.525  20.721  0.00  0.00    +0.000 C 
ATOM     22  C   UNL     1      28.657  25.414  21.629  0.00  0.00    +0.000 C 
ENDBRANCH   1  22
TORSDOF 1
ENDMDL
MODEL 3
REMARK VINA RESULT:      -6.9      1.911      6.151
REMARK  Name = 
REMARK  1 active torsions:
REMARK  status: ('A' for Active; 'I' for Inactive)
REMARK    1  A    between atoms: C_2  and  C_3
REMARK                            x       y       z     vdW  Elec       q    Type
REMARK                         _______ _______ _______ _____ _____    ______ ____
ROOT
ATOM      1  C   UNL     1      27.918  23.621  29.115  0.00  0.00    +0.000 C 
ATOM      2  O   UNL     1      27.822  22.276  28.880  0.00  0.00    +0.000 OA
ATOM      3  C   UNL     1      29.339  24.048  29.323  0.00  0.00    +0.000 C 
ATOM      4  C   UNL     1      29.927  24.028  27.988  0.00  0.00    +0.000 C 
ATOM      5  C   UNL     1      28.754  24.363  26.946  0.00  0.00    +0.000 C 
ATOM      6  C   UNL     1      28.353  22.727  26.719  0.00  0.00    +0.000 C 
ATOM      7  C   UNL     1      29.732  22.311  25.985  0.00  0.00    +0.000 C 
ATOM      8  C   UNL     1      30.344  23.219  25.163  0.00  0.00    +0.000 C 
ATOM      9  C   UNL     1      29.436  23.760  24.136  0.00  0.00    +0.000 C 
ATOM     10  C   UNL     1      28.196  23.570  24.317  0.00  0.00    +0.000 C 
ATOM     11  C   UNL     1      27.237  24.106  23.290  0.00  0.00    +0.000 C 
ATOM     12  C   UNL     1      27.760  24.130  21.924  0.00  0.00    +0.000 C 
ATOM     13  C   UNL     1      29.190  24.368  21.769  0.00  0.00    +0.000 C 
ATOM     14  O   UNL     1      29.623  24.456  20.636  0.00  0.00    +0.000 OA
ATOM     15  C   UNL     1      30.042  24.490  22.955  0.00  0.00    +0.000 C 
ATOM     16  C   UNL     1      27.376  22.882  25.376  0.00  0.00    +0.000 C 
ATOM     17  C   UNL     1      26.531  24.160  25.878  0.00  0.00    +0.000 C 
ATOM     18  C   UNL     1      26.317  24.083  27.334  0.00  0.00    +0.000 C 
ATOM     19  C   UNL     1      27.570  24.530  28.018  0.00  0.00    +0.000 C 
ATOM     20  C   UNL     1      27.551  25.941  28.487  0.00  0.00    +0.000 C 
ENDROOT
BRANCH   1  22
ATOM     21  C   UNL     1      26.332  24.182  31.185  0.00  0.00    +0.000 C 
ATOM     22  C   UNL     1      27.050  23.923  30.242  0.00  0.00    +0.000 C 
ENDBRANCH   1  22
TORSDOF 1
ENDMDL
MODEL 4
REMARK VINA RESULT:      -6.9      1.623      6.192
REMARK  Name = 
REMARK  1 active torsions:
REMARK  status: ('A' for Active; 'I' for Inactive)
REMARK    1  A    between atoms: C_2  and  C_3
REMARK                            x       y       z     vdW  Elec       q    Type
REMARK                         _______ _______ _______ _____ _____    ______ ____
ROOT
ATOM      1  C   UNL     1      30.620  23.204  28.913  0.00  0.00    +0.000 C 
ATOM      2  O   UNL     1      31.486  22.241  28.469  0.00  0.00    +0.000 OA
ATOM      3  C   UNL     1      31.281  24.544  29.006  0.00  0.00    +0.000 C 
ATOM      4  C   UNL     1      31.400  24.993  27.624  0.00  0.00    +0.000 C 
ATOM      5  C   UNL     1      30.170  24.359  26.810  0.00  0.00    +0.000 C 
ATOM      6  C   UNL     1      31.050  22.975  26.365  0.00  0.00    +0.000 C 
ATOM      7  C   UNL     1      32.100  23.740  25.401  0.00  0.00    +0.000 C 
ATOM      8  C   UNL     1      31.668  24.815  24.673  0.00  0.00    +0.000 C 
ATOM      9  C   UNL     1      30.465  24.515  23.875  0.00  0.00    +0.000 C 
ATOM     10  C   UNL     1      29.830  23.460  24.178  0.00  0.00    +0.000 C 
ATOM     11  C   UNL     1      28.597  23.120  23.386  0.00  0.00    +0.000 C 
ATOM     12  C   UNL     1      28.636  23.550  21.988  0.00  0.00    +0.000 C 
ATOM     13  C   UNL     1      29.365  24.777  21.695  0.00  0.00    +0.000 C 
ATOM     14  O   UNL     1      29.346  25.179  20.548  0.00  0.00    +0.000 OA
ATOM     15  C   UNL     1      30.082  25.473  22.767  0.00  0.00    +0.000 C 
ATOM     16  C   UNL     1      30.017  22.373  25.202  0.00  0.00    +0.000 C 
ATOM     17  C   UNL     1      28.641  22.585  26.015  0.00  0.00    +0.000 C 
ATOM     18  C   UNL     1      28.863  22.348  27.452  0.00  0.00    +0.000 C 
ATOM     19  C   UNL     1      29.500  23.568  28.037  0.00  0.00    +0.000 C 
ATOM     20  C   UNL     1      28.560  24.485  28.735  0.00  0.00    +0.000 C 
ENDROOT
BRANCH   1  22
ATOM     21  C   UNL     1      29.618  22.348  31.232  0.00  0.00    +0.000 C 
ATOM     22  C   UNL     1      30.069  22.738  30.175  0.00  0.00    +0.000 C 
ENDBRANCH   1  22
TORSDOF 1
ENDMDL
MODEL 5
REMARK VINA RESULT:      -6.8     31.393     32.890
REMARK  Name = 
REMARK  1 active torsions:
REMARK  status: ('A' for Active; 'I' for Inactive)
REMARK    1  A    between atoms: C_2  and  C_3
REMARK                            x       y       z     vdW  Elec       q    Type
REMARK                         _______ _______ _______ _____ _____    ______ ____
ROOT
ATOM      1  C   UNL     1      23.618  -9.567  22.931  0.00  0.00    +0.000 C 
ATOM      2  O   UNL     1      24.287  -9.594  24.125  0.00  0.00    +0.000 OA
ATOM      3  C   UNL     1      22.684 -10.730  22.791  0.00  0.00    +0.000 C 
ATOM      4  C   UNL     1      21.562 -10.408  23.665  0.00  0.00    +0.000 C 
ATOM      5  C   UNL     1      21.429  -8.808  23.698  0.00  0.00    +0.000 C 
ATOM      6  C   UNL     1      22.441  -8.652  25.054  0.00  0.00    +0.000 C 
ATOM      7  C   UNL     1      21.443  -9.378  26.100  0.00  0.00    +0.000 C 
ATOM      8  C   UNL     1      20.093  -9.211  25.949  0.00  0.00    +0.000 C 
ATOM      9  C   UNL     1      19.700  -7.792  25.867  0.00  0.00    +0.000 C 
ATOM     10  C   UNL     1      20.628  -6.958  25.644  0.00  0.00    +0.000 C 
ATOM     11  C   UNL     1      20.267  -5.500  25.553  0.00  0.00    +0.000 C 
ATOM     12  C   UNL     1      19.139  -5.101  26.394  0.00  0.00    +0.000 C 
ATOM     13  C   UNL     1      18.091  -6.091  26.607  0.00  0.00    +0.000 C 
ATOM     14  O   UNL     1      17.118  -5.745  27.249  0.00  0.00    +0.000 OA
ATOM     15  C   UNL     1      18.240  -7.440  26.055  0.00  0.00    +0.000 C 
ATOM     16  C   UNL     1      22.116  -7.063  25.439  0.00  0.00    +0.000 C 
ATOM     17  C   UNL     1      22.185  -6.466  23.943  0.00  0.00    +0.000 C 
ATOM     18  C   UNL     1      23.219  -7.172  23.166  0.00  0.00    +0.000 C 
ATOM     19  C   UNL     1      22.655  -8.481  22.714  0.00  0.00    +0.000 C 
ATOM     20  C   UNL     1      22.155  -8.491  21.313  0.00  0.00    +0.000 C 
ENDROOT
BRANCH   1  22
ATOM     21  C   UNL     1      25.449  -9.442  20.995  0.00  0.00    +0.000 C 
ATOM     22  C   UNL     1      24.619  -9.496  21.878  0.00  0.00    +0.000 C 
ENDBRANCH   1  22
TORSDOF 1
ENDMDL
MODEL 6
REMARK VINA RESULT:      -6.8      1.780      5.960
REMARK  Name = 
REMARK  1 active torsions:
REMARK  status: ('A' for Active; 'I' for Inactive)
REMARK    1  A    between atoms: C_2  and  C_3
REMARK                            x       y       z     vdW  Elec       q    Type
REMARK                         _______ _______ _______ _____ _____    ______ ____
ROOT
ATOM      1  C   UNL     1      31.597  23.547  28.645  0.00  0.00    +0.000 C 
ATOM      2  O   UNL     1      31.640  22.182  28.548  0.00  0.00    +0.000 OA
ATOM      3  C   UNL     1      32.504  24.203  27.650  0.00  0.00    +0.000 C 
ATOM      4  C   UNL     1      31.812  24.064  26.374  0.00  0.00    +0.000 C 
ATOM      5  C   UNL     1      30.237  24.061  26.684  0.00  0.00    +0.000 C 
ATOM      6  C   UNL     1      30.168  22.369  26.828  0.00  0.00    +0.000 C 
ATOM      7  C   UNL     1      30.494  22.050  25.276  0.00  0.00    +0.000 C 
ATOM      8  C   UNL     1      30.021  22.900  24.313  0.00  0.00    +0.000 C 
ATOM      9  C   UNL     1      28.571  23.139  24.426  0.00  0.00    +0.000 C 
ATOM     10  C   UNL     1      28.023  22.801  25.518  0.00  0.00    +0.000 C 
ATOM     11  C   UNL     1      26.544  23.028  25.672  0.00  0.00    +0.000 C 
ATOM     12  C   UNL     1      25.780  22.918  24.430  0.00  0.00    +0.000 C 
ATOM     13  C   UNL     1      26.450  23.334  23.204  0.00  0.00    +0.000 C 
ATOM     14  O   UNL     1      25.801  23.309  22.176  0.00  0.00    +0.000 OA
ATOM     15  C   UNL     1      27.851  23.759  23.247  0.00  0.00    +0.000 C 
ATOM     16  C   UNL     1      28.513  22.172  26.796  0.00  0.00    +0.000 C 
ATOM     17  C   UNL     1      28.139  23.376  27.801  0.00  0.00    +0.000 C 
ATOM     18  C   UNL     1      29.167  23.492  28.851  0.00  0.00    +0.000 C 
ATOM     19  C   UNL     1      30.343  24.217  28.279  0.00  0.00    +0.000 C 
ATOM     20  C   UNL     1      30.402  25.665  28.611  0.00  0.00    +0.000 C 
ENDROOT
BRANCH   1  22
ATOM     21  C   UNL     1      32.165  24.181  31.173  0.00  0.00    +0.000 C 
ATOM     22  C   UNL     1      31.903  23.890  30.025  0.00  0.00    +0.000 C 
ENDBRANCH   1  22
TORSDOF 1
ENDMDL
MODEL 7
REMARK VINA RESULT:      -6.6      3.394      6.499
REMARK  Name = 
REMARK  1 active torsions:
REMARK  status: ('A' for Active; 'I' for Inactive)
REMARK    1  A    between atoms: C_2  and  C_3
REMARK                            x       y       z     vdW  Elec       q    Type
REMARK                         _______ _______ _______ _____ _____    ______ ____
ROOT
ATOM      1  C   UNL     1      25.343  25.099  28.096  0.00  0.00    +0.000 C 
ATOM      2  O   UNL     1      24.207  24.980  27.343  0.00  0.00    +0.000 OA
ATOM      3  C   UNL     1      25.943  23.763  28.411  0.00  0.00    +0.000 C 
ATOM      4  C   UNL     1      26.565  23.335  27.163  0.00  0.00    +0.000 C 
ATOM      5  C   UNL     1      27.025  24.660  26.383  0.00  0.00    +0.000 C 
ATOM      6  C   UNL     1      25.561  24.787  25.530  0.00  0.00    +0.000 C 
ATOM      7  C   UNL     1      25.759  23.448  24.645  0.00  0.00    +0.000 C 
ATOM      8  C   UNL     1      27.021  23.105  24.239  0.00  0.00    +0.000 C 
ATOM      9  C   UNL     1      27.715  24.205  23.547  0.00  0.00    +0.000 C 
ATOM     10  C   UNL     1      27.216  25.363  23.677  0.00  0.00    +0.000 C 
ATOM     11  C   UNL     1      27.897  26.513  22.985  0.00  0.00    +0.000 C 
ATOM     12  C   UNL     1      28.557  26.160  21.728  0.00  0.00    +0.000 C 
ATOM     13  C   UNL     1      29.128  24.823  21.635  0.00  0.00    +0.000 C 
ATOM     14  O   UNL     1      29.737  24.544  20.620  0.00  0.00    +0.000 OA
ATOM     15  C   UNL     1      28.955  23.877  22.741  0.00  0.00    +0.000 C 
ATOM     16  C   UNL     1      26.018  25.922  24.396  0.00  0.00    +0.000 C 
ATOM     17  C   UNL     1      26.794  26.918  25.398  0.00  0.00    +0.000 C 
ATOM     18  C   UNL     1      26.116  26.948  26.705  0.00  0.00    +0.000 C 
ATOM     19  C   UNL     1      26.513  25.726  27.470  0.00  0.00    +0.000 C 
ATOM     20  C   UNL     1      27.594  25.942  28.468  0.00  0.00    +0.000 C 
ENDROOT
BRANCH   1  22
ATOM     21  C   UNL     1      24.708  26.512  30.268  0.00  0.00    +0.000 C 
ATOM     22  C   UNL     1      24.997  25.873  29.277  0.00  0.00    +0.000 C 
ENDBRANCH   1  22
TORSDOF 1
ENDMDL
MODEL 8
REMARK VINA RESULT:      -6.4      2.708      6.682
REMARK  Name = 
REMARK  1 active torsions:
REMARK  status: ('A' for Active; 'I' for Inactive)
REMARK    1  A    between atoms: C_2  and  C_3
REMARK                            x       y       z     vdW  Elec       q    Type
REMARK                         _______ _______ _______ _____ _____    ______ ____
ROOT
ATOM      1  C   UNL     1      26.863  24.602  30.845  0.00  0.00    +0.000 C 
ATOM      2  O   UNL     1      26.100  23.465  30.850  0.00  0.00    +0.000 OA
ATOM      3  C   UNL     1      28.320  24.293  31.000  0.00  0.00    +0.000 C 
ATOM      4  C   UNL     1      28.725  23.766  29.702  0.00  0.00    +0.000 C 
ATOM      5  C   UNL     1      27.798  24.465  28.594  0.00  0.00    +0.000 C 
ATOM      6  C   UNL     1      26.628  23.234  28.653  0.00  0.00    +0.000 C 
ATOM      7  C   UNL     1      27.567  22.073  28.031  0.00  0.00    +0.000 C 
ATOM      8  C   UNL     1      28.486  22.409  27.073  0.00  0.00    +0.000 C 
ATOM      9  C   UNL     1      27.891  23.154  25.949  0.00  0.00    +0.000 C 
ATOM     10  C   UNL     1      26.735  23.639  26.137  0.00  0.00    +0.000 C 
ATOM     11  C   UNL     1      26.094  24.406  25.013  0.00  0.00    +0.000 C 
ATOM     12  C   UNL     1      26.462  23.943  23.675  0.00  0.00    +0.000 C 
ATOM     13  C   UNL     1      27.808  23.408  23.508  0.00  0.00    +0.000 C 
ATOM     14  O   UNL     1      28.146  23.084  22.386  0.00  0.00    +0.000 OA
ATOM     15  C   UNL     1      28.691  23.282  24.670  0.00  0.00    +0.000 C 
ATOM     16  C   UNL     1      25.761  23.633  27.285  0.00  0.00    +0.000 C 
ATOM     17  C   UNL     1      25.694  25.224  27.537  0.00  0.00    +0.000 C 
ATOM     18  C   UNL     1      25.575  25.502  28.979  0.00  0.00    +0.000 C 
ATOM     19  C   UNL     1      26.930  25.371  29.597  0.00  0.00    +0.000 C 
ATOM     20  C   UNL     1      27.643  26.660  29.809  0.00  0.00    +0.000 C 
ENDROOT
BRANCH   1  22
ATOM     21  C   UNL     1      25.896  26.199  32.750  0.00  0.00    +0.000 C 
ATOM     22  C   UNL     1      26.340  25.475  31.883  0.00  0.00    +0.000 C 
ENDBRANCH   1  22
TORSDOF 1
ENDMDL
MODEL 9
REMARK VINA RESULT:      -6.2     21.355     24.283
REMARK  Name = 
REMARK  1 active torsions:
REMARK  status: ('A' for Active; 'I' for Inactive)
REMARK    1  A    between atoms: C_2  and  C_3
REMARK                            x       y       z     vdW  Elec       q    Type
REMARK                         _______ _______ _______ _____ _____    ______ ____
ROOT
ATOM      1  C   UNL     1      18.934   6.448  42.185  0.00  0.00    +0.000 C 
ATOM      2  O   UNL     1      19.063   7.471  43.086  0.00  0.00    +0.000 OA
ATOM      3  C   UNL     1      17.531   5.925  42.138  0.00  0.00    +0.000 C 
ATOM      4  C   UNL     1      16.783   6.941  41.407  0.00  0.00    +0.000 C 
ATOM      5  C   UNL     1      17.801   7.631  40.375  0.00  0.00    +0.000 C 
ATOM      6  C   UNL     1      18.248   8.847  41.474  0.00  0.00    +0.000 C 
ATOM      7  C   UNL     1      16.809   9.585  41.510  0.00  0.00    +0.000 C 
ATOM      8  C   UNL     1      16.058   9.625  40.366  0.00  0.00    +0.000 C 
ATOM      9  C   UNL     1      16.805  10.157  39.212  0.00  0.00    +0.000 C 
ATOM     10  C   UNL     1      18.066  10.217  39.330  0.00  0.00    +0.000 C 
ATOM     11  C   UNL     1      18.863  10.755  38.173  0.00  0.00    +0.000 C 
ATOM     12  C   UNL     1      18.174  11.773  37.382  0.00  0.00    +0.000 C 
ATOM     13  C   UNL     1      16.726  11.650  37.264  0.00  0.00    +0.000 C 
ATOM     14  O   UNL     1      16.153  12.452  36.553  0.00  0.00    +0.000 OA
ATOM     15  C   UNL     1      16.024  10.587  37.989  0.00  0.00    +0.000 C 
ATOM     16  C   UNL     1      19.042   9.869  40.422  0.00  0.00    +0.000 C 
ATOM     17  C   UNL     1      19.881   8.744  39.629  0.00  0.00    +0.000 C 
ATOM     18  C   UNL     1      20.277   7.667  40.553  0.00  0.00    +0.000 C 
ATOM     19  C   UNL     1      19.099   6.769  40.763  0.00  0.00    +0.000 C 
ATOM     20  C   UNL     1      19.110   5.530  39.940  0.00  0.00    +0.000 C 
ENDROOT
BRANCH   1  22
ATOM     21  C   UNL     1      20.744   4.600  42.836  0.00  0.00    +0.000 C 
ATOM     22  C   UNL     1      19.919   5.439  42.536  0.00  0.00    +0.000 C 
ENDBRANCH   1  22
TORSDOF 1
ENDMDL
MODEL 10
REMARK VINA RESULT:      -6.1     19.663     22.620
REMARK  Name = 
REMARK  1 active torsions:
REMARK  status: ('A' for Active; 'I' for Inactive)
REMARK    1  A    between atoms: C_2  and  C_3
REMARK                            x       y       z     vdW  Elec       q    Type
REMARK                         _______ _______ _______ _____ _____    ______ ____
ROOT
ATOM      1  C   UNL     1      17.790   8.792  41.412  0.00  0.00    +0.000 C 
ATOM      2  O   UNL     1      18.242   9.936  42.012  0.00  0.00    +0.000 OA
ATOM      3  C   UNL     1      16.880   9.091  40.260  0.00  0.00    +0.000 C 
ATOM      4  C   UNL     1      17.769   9.545  39.197  0.00  0.00    +0.000 C 
ATOM      5  C   UNL     1      19.176   8.801  39.402  0.00  0.00    +0.000 C 
ATOM      6  C   UNL     1      19.807  10.047  40.370  0.00  0.00    +0.000 C 
ATOM      7  C   UNL     1      19.863  11.163  39.200  0.00  0.00    +0.000 C 
ATOM      8  C   UNL     1      20.155  10.768  37.923  0.00  0.00    +0.000 C 
ATOM      9  C   UNL     1      21.393   9.973  37.842  0.00  0.00    +0.000 C 
ATOM     10  C   UNL     1      21.845   9.512  38.933  0.00  0.00    +0.000 C 
ATOM     11  C   UNL     1      23.108   8.695  38.891  0.00  0.00    +0.000 C 
ATOM     12  C   UNL     1      24.048   9.084  37.840  0.00  0.00    +0.000 C 
ATOM     13  C   UNL     1      23.478   9.593  36.599  0.00  0.00    +0.000 C 
ATOM     14  O   UNL     1      24.248   9.855  35.696  0.00  0.00    +0.000 OA
ATOM     15  C   UNL     1      22.027   9.769  36.482  0.00  0.00    +0.000 C 
ATOM     16  C   UNL     1      21.410   9.588  40.372  0.00  0.00    +0.000 C 
ATOM     17  C   UNL     1      21.177   8.013  40.625  0.00  0.00    +0.000 C 
ATOM     18  C   UNL     1      20.022   7.812  41.517  0.00  0.00    +0.000 C 
ATOM     19  C   UNL     1      18.772   7.958  40.708  0.00  0.00    +0.000 C 
ATOM     20  C   UNL     1      18.160   6.674  40.274  0.00  0.00    +0.000 C 
ENDROOT
BRANCH   1  22
ATOM     21  C   UNL     1      16.655   7.308  43.316  0.00  0.00    +0.000 C 
ATOM     22  C   UNL     1      17.170   7.980  42.446  0.00  0.00    +0.000 C 
ENDBRANCH   1  22
TORSDOF 1
ENDMDL
