MODEL 1
REMARK VINA RESULT:      -7.4      0.000      0.000
REMARK  Name = 
REMARK  3 active torsions:
REMARK  status: ('A' for Active; 'I' for Inactive)
REMARK    1  A    between atoms: C_7  and  C_8
REMARK    2  A    between atoms: N_10  and  C_11
REMARK    3  A    between atoms: C_13  and  N_14
REMARK                            x       y       z     vdW  Elec       q    Type
REMARK                         _______ _______ _______ _____ _____    ______ ____
ROOT
ATOM      1  C   UNL     1      30.783  21.311  11.682  0.00  0.00    +0.000 C 
ATOM      2  O   UNL     1      30.617  20.094  11.390  0.00  0.00    +0.000 OA
ATOM      3  N   UNL     1      32.085  21.826  11.627  0.00  0.00    +0.000 NA
ENDROOT
BRANCH   1  10
ATOM      4  C   UNL     1      26.057  22.553  10.999  0.00  0.00    +0.000 C 
ATOM      5  C   UNL     1      27.322  22.762  11.749  0.00  0.00    +0.000 A 
ATOM      6  C   UNL     1      27.429  23.687  12.763  0.00  0.00    +0.000 A 
ATOM      7  C   UNL     1      28.631  23.827  13.413  0.00  0.00    +0.000 A 
ATOM      8  C   UNL     1      28.697  24.841  14.501  0.00  0.00    +0.000 C 
ATOM      9  C   UNL     1      29.750  23.058  13.076  0.00  0.00    +0.000 A 
ATOM     10  C   UNL     1      29.632  22.135  12.062  0.00  0.00    +0.000 A 
ATOM     11  C   UNL     1      28.437  21.996  11.415  0.00  0.00    +0.000 A 
ENDBRANCH   1  10
BRANCH   3  12
ATOM     12  C   UNL     1      33.232  21.077  11.266  0.00  0.00    +0.000 A 
ATOM     13  C   UNL     1      34.074  20.548  12.219  0.00  0.00    +0.000 A 
ATOM     14  C   UNL     1      35.194  19.818  11.900  0.00  0.00    +0.000 A 
ATOM     15  C   UNL     1      35.496  19.599  10.571  0.00  0.00    +0.000 A 
ATOM     16  C   UNL     1      34.677  20.112   9.590  0.00  0.00    +0.000 A 
ATOM     17  C   UNL     1      33.546  20.851   9.945  0.00  0.00    +0.000 A 
ATOM     18  F   UNL     1      32.789  21.324   8.928  0.00  0.00    +0.000 F 
BRANCH  14  19
ATOM     19  N   UNL     1      36.061  19.273  12.889  0.00  0.00    +0.000 N 
ATOM     20  O   UNL     1      37.115  19.891  13.118  0.00  0.00    +0.000 OA
ATOM     21  O   UNL     1      35.790  18.132  13.575  0.00  0.00    +0.000 OA
ENDBRANCH  14  19
ENDBRANCH   3  12
TORSDOF 3
ENDMDL
MODEL 2
REMARK VINA RESULT:      -7.3      0.935      2.168
REMARK  Name = 
REMARK  3 active torsions:
REMARK  status: ('A' for Active; 'I' for Inactive)
REMARK    1  A    between atoms: C_7  and  C_8
REMARK    2  A    between atoms: N_10  and  C_11
REMARK    3  A    between atoms: C_13  and  N_14
REMARK                            x       y       z     vdW  Elec       q    Type
REMARK                         _______ _______ _______ _____ _____    ______ ____
ROOT
ATOM      1  C   UNL     1      31.250  22.271  11.548  0.00  0.00    +0.000 C 
ATOM      2  O   UNL     1      32.072  23.117  11.096  0.00  0.00    +0.000 OA
ATOM      3  N   UNL     1      31.655  20.931  11.606  0.00  0.00    +0.000 NA
ENDROOT
BRANCH   1  10
ATOM      4  C   UNL     1      28.486  24.931  14.651  0.00  0.00    +0.000 C 
ATOM      5  C   UNL     1      28.547  23.999  13.496  0.00  0.00    +0.000 A 
ATOM      6  C   UNL     1      27.414  23.552  12.855  0.00  0.00    +0.000 A 
ATOM      7  C   UNL     1      27.546  22.689  11.793  0.00  0.00    +0.000 A 
ATOM      8  C   UNL     1      26.291  22.233  11.134  0.00  0.00    +0.000 C 
ATOM      9  C   UNL     1      28.796  22.253  11.344  0.00  0.00    +0.000 A 
ATOM     10  C   UNL     1      29.923  22.707  11.991  0.00  0.00    +0.000 A 
ATOM     11  C   UNL     1      29.793  23.564  13.047  0.00  0.00    +0.000 A 
ENDBRANCH   1  10
BRANCH   3  12
ATOM     12  C   UNL     1      32.923  20.455  11.193  0.00  0.00    +0.000 A 
ATOM     13  C   UNL     1      33.935  20.226  12.099  0.00  0.00    +0.000 A 
ATOM     14  C   UNL     1      35.176  19.765  11.729  0.00  0.00    +0.000 A 
ATOM     15  C   UNL     1      35.428  19.516  10.394  0.00  0.00    +0.000 A 
ATOM     16  C   UNL     1      34.440  19.733   9.459  0.00  0.00    +0.000 A 
ATOM     17  C   UNL     1      33.189  20.203   9.866  0.00  0.00    +0.000 A 
ATOM     18  F   UNL     1      32.268  20.393   8.893  0.00  0.00    +0.000 F 
BRANCH  14  19
ATOM     19  N   UNL     1      36.218  19.530  12.668  0.00  0.00    +0.000 N 
ATOM     20  O   UNL     1      36.298  18.386  13.149  0.00  0.00    +0.000 OA
ATOM     21  O   UNL     1      37.108  20.483  13.052  0.00  0.00    +0.000 OA
ENDBRANCH  14  19
ENDBRANCH   3  12
TORSDOF 3
ENDMDL
MODEL 3
REMARK VINA RESULT:      -6.9      3.898      7.721
REMARK  Name = 
REMARK  3 active torsions:
REMARK  status: ('A' for Active; 'I' for Inactive)
REMARK    1  A    between atoms: C_7  and  C_8
REMARK    2  A    between atoms: N_10  and  C_11
REMARK    3  A    between atoms: C_13  and  N_14
REMARK                            x       y       z     vdW  Elec       q    Type
REMARK                         _______ _______ _______ _____ _____    ______ ____
ROOT
ATOM      1  C   UNL     1      30.625  21.164   8.837  0.00  0.00    +0.000 C 
ATOM      2  O   UNL     1      30.874  22.395   8.712  0.00  0.00    +0.000 OA
ATOM      3  N   UNL     1      29.966  20.745  10.001  0.00  0.00    +0.000 NA
ENDROOT
BRANCH   1  10
ATOM      4  C   UNL     1      34.206  18.763   6.441  0.00  0.00    +0.000 C 
ATOM      5  C   UNL     1      32.755  19.039   6.595  0.00  0.00    +0.000 A 
ATOM      6  C   UNL     1      31.807  18.448   5.789  0.00  0.00    +0.000 A 
ATOM      7  C   UNL     1      30.482  18.752   5.989  0.00  0.00    +0.000 A 
ATOM      8  C   UNL     1      29.494  18.088   5.093  0.00  0.00    +0.000 C 
ATOM      9  C   UNL     1      30.066  19.642   6.984  0.00  0.00    +0.000 A 
ATOM     10  C   UNL     1      31.022  20.227   7.784  0.00  0.00    +0.000 A 
ATOM     11  C   UNL     1      32.340  19.926   7.586  0.00  0.00    +0.000 A 
ENDBRANCH   1  10
BRANCH   3  12
ATOM     12  C   UNL     1      29.559  21.606  11.050  0.00  0.00    +0.000 A 
ATOM     13  C   UNL     1      28.251  22.017  11.175  0.00  0.00    +0.000 A 
ATOM     14  C   UNL     1      27.825  22.853  12.181  0.00  0.00    +0.000 A 
ATOM     15  C   UNL     1      28.741  23.303  13.111  0.00  0.00    +0.000 A 
ATOM     16  C   UNL     1      30.059  22.912  13.017  0.00  0.00    +0.000 A 
ATOM     17  C   UNL     1      30.461  22.063  11.984  0.00  0.00    +0.000 A 
ATOM     18  F   UNL     1      31.770  21.722  11.956  0.00  0.00    +0.000 F 
BRANCH  14  19
ATOM     19  N   UNL     1      26.472  23.275  12.306  0.00  0.00    +0.000 N 
ATOM     20  O   UNL     1      25.805  22.767  13.224  0.00  0.00    +0.000 OA
ATOM     21  O   UNL     1      25.894  24.188  11.483  0.00  0.00    +0.000 OA
ENDBRANCH  14  19
ENDBRANCH   3  12
TORSDOF 3
ENDMDL
MODEL 4
REMARK VINA RESULT:      -6.8     12.997     15.533
REMARK  Name = 
REMARK  3 active torsions:
REMARK  status: ('A' for Active; 'I' for Inactive)
REMARK    1  A    between atoms: C_7  and  C_8
REMARK    2  A    between atoms: N_10  and  C_11
REMARK    3  A    between atoms: C_13  and  N_14
REMARK                            x       y       z     vdW  Elec       q    Type
REMARK                         _______ _______ _______ _____ _____    ______ ____
ROOT
ATOM      1  C   UNL     1      29.529  22.732  26.224  0.00  0.00    +0.000 C 
ATOM      2  O   UNL     1      30.076  22.074  25.295  0.00  0.00    +0.000 OA
ATOM      3  N   UNL     1      28.436  23.544  25.895  0.00  0.00    +0.000 NA
ENDROOT
BRANCH   1  10
ATOM      4  C   UNL     1      28.846  23.414  31.062  0.00  0.00    +0.000 C 
ATOM      5  C   UNL     1      29.734  22.952  29.965  0.00  0.00    +0.000 A 
ATOM      6  C   UNL     1      30.992  22.445  30.205  0.00  0.00    +0.000 A 
ATOM      7  C   UNL     1      31.759  22.037  29.140  0.00  0.00    +0.000 A 
ATOM      8  C   UNL     1      33.112  21.497  29.450  0.00  0.00    +0.000 C 
ATOM      9  C   UNL     1      31.302  22.121  27.821  0.00  0.00    +0.000 A 
ATOM     10  C   UNL     1      30.042  22.629  27.593  0.00  0.00    +0.000 A 
ATOM     11  C   UNL     1      29.279  23.035  28.650  0.00  0.00    +0.000 A 
ENDBRANCH   1  10
BRANCH   3  12
ATOM     12  C   UNL     1      27.899  23.681  24.592  0.00  0.00    +0.000 A 
ATOM     13  C   UNL     1      28.595  24.320  23.591  0.00  0.00    +0.000 A 
ATOM     14  C   UNL     1      28.101  24.470  22.317  0.00  0.00    +0.000 A 
ATOM     15  C   UNL     1      26.853  23.959  22.018  0.00  0.00    +0.000 A 
ATOM     16  C   UNL     1      26.127  23.313  22.994  0.00  0.00    +0.000 A 
ATOM     17  C   UNL     1      26.656  23.177  24.280  0.00  0.00    +0.000 A 
ATOM     18  F   UNL     1      25.886  22.532  25.186  0.00  0.00    +0.000 F 
BRANCH  14  19
ATOM     19  N   UNL     1      28.824  25.131  21.286  0.00  0.00    +0.000 N 
ATOM     20  O   UNL     1      29.726  24.485  20.725  0.00  0.00    +0.000 OA
ATOM     21  O   UNL     1      28.575  26.410  20.899  0.00  0.00    +0.000 OA
ENDBRANCH  14  19
ENDBRANCH   3  12
TORSDOF 3
ENDMDL
MODEL 5
REMARK VINA RESULT:      -6.5     30.066     31.277
REMARK  Name = 
REMARK  3 active torsions:
REMARK  status: ('A' for Active; 'I' for Inactive)
REMARK    1  A    between atoms: C_7  and  C_8
REMARK    2  A    between atoms: N_10  and  C_11
REMARK    3  A    between atoms: C_13  and  N_14
REMARK                            x       y       z     vdW  Elec       q    Type
REMARK                         _______ _______ _______ _____ _____    ______ ____
ROOT
ATOM      1  C   UNL     1      16.133  11.210  37.647  0.00  0.00    +0.000 C 
ATOM      2  O   UNL     1      16.293  10.410  38.611  0.00  0.00    +0.000 OA
ATOM      3  N   UNL     1      17.275  11.651  36.966  0.00  0.00    +0.000 NA
ENDROOT
BRANCH   1  10
ATOM      4  C   UNL     1      13.230  14.188  34.993  0.00  0.00    +0.000 C 
ATOM      5  C   UNL     1      13.341  13.091  35.989  0.00  0.00    +0.000 A 
ATOM      6  C   UNL     1      12.233  12.497  36.550  0.00  0.00    +0.000 A 
ATOM      7  C   UNL     1      12.412  11.487  37.466  0.00  0.00    +0.000 A 
ATOM      8  C   UNL     1      11.184  10.876  38.046  0.00  0.00    +0.000 C 
ATOM      9  C   UNL     1      13.684  11.045  37.844  0.00  0.00    +0.000 A 
ATOM     10  C   UNL     1      14.784  11.647  37.276  0.00  0.00    +0.000 A 
ATOM     11  C   UNL     1      14.608  12.650  36.366  0.00  0.00    +0.000 A 
ENDBRANCH   1  10
BRANCH   3  12
ATOM     12  C   UNL     1      18.600  11.263  37.281  0.00  0.00    +0.000 A 
ATOM     13  C   UNL     1      19.389  12.016  38.122  0.00  0.00    +0.000 A 
ATOM     14  C   UNL     1      20.679  11.666  38.446  0.00  0.00    +0.000 A 
ATOM     15  C   UNL     1      21.214  10.511  37.912  0.00  0.00    +0.000 A 
ATOM     16  C   UNL     1      20.455   9.732  37.067  0.00  0.00    +0.000 A 
ATOM     17  C   UNL     1      19.148  10.114  36.755  0.00  0.00    +0.000 A 
ATOM     18  F   UNL     1      18.463   9.301  35.919  0.00  0.00    +0.000 F 
BRANCH  14  19
ATOM     19  N   UNL     1      21.490  12.447  39.316  0.00  0.00    +0.000 N 
ATOM     20  O   UNL     1      21.276  12.340  40.536  0.00  0.00    +0.000 OA
ATOM     21  O   UNL     1      22.465  13.286  38.877  0.00  0.00    +0.000 OA
ENDBRANCH  14  19
ENDBRANCH   3  12
TORSDOF 3
ENDMDL
MODEL 6
REMARK VINA RESULT:      -6.5     19.576     20.647
REMARK  Name = 
REMARK  3 active torsions:
REMARK  status: ('A' for Active; 'I' for Inactive)
REMARK    1  A    between atoms: C_7  and  C_8
REMARK    2  A    between atoms: N_10  and  C_11
REMARK    3  A    between atoms: C_13  and  N_14
REMARK                            x       y       z     vdW  Elec       q    Type
REMARK                         _______ _______ _______ _____ _____    ______ ____
ROOT
ATOM      1  C   UNL     1      25.048   4.437  16.539  0.00  0.00    +0.000 C 
ATOM      2  O   UNL     1      24.483   4.188  15.437  0.00  0.00    +0.000 OA
ATOM      3  N   UNL     1      24.623   3.724  17.668  0.00  0.00    +0.000 NA
ENDROOT
BRANCH   1  10
ATOM      4  C   UNL     1      28.036   7.264  19.262  0.00  0.00    +0.000 C 
ATOM      5  C   UNL     1      27.583   6.839  17.913  0.00  0.00    +0.000 A 
ATOM      6  C   UNL     1      28.125   7.360  16.760  0.00  0.00    +0.000 A 
ATOM      7  C   UNL     1      27.656   6.920  15.546  0.00  0.00    +0.000 A 
ATOM      8  C   UNL     1      28.273   7.514  14.327  0.00  0.00    +0.000 C 
ATOM      9  C   UNL     1      26.644   5.960  15.445  0.00  0.00    +0.000 A 
ATOM     10  C   UNL     1      26.109   5.445  16.605  0.00  0.00    +0.000 A 
ATOM     11  C   UNL     1      26.575   5.882  17.812  0.00  0.00    +0.000 A 
ENDBRANCH   1  10
BRANCH   3  12
ATOM     12  C   UNL     1      23.605   2.740  17.663  0.00  0.00    +0.000 A 
ATOM     13  C   UNL     1      22.281   3.075  17.844  0.00  0.00    +0.000 A 
ATOM     14  C   UNL     1      21.270   2.144  17.844  0.00  0.00    +0.000 A 
ATOM     15  C   UNL     1      21.585   0.813  17.655  0.00  0.00    +0.000 A 
ATOM     16  C   UNL     1      22.898   0.440  17.471  0.00  0.00    +0.000 A 
ATOM     17  C   UNL     1      23.904   1.409  17.476  0.00  0.00    +0.000 A 
ATOM     18  F   UNL     1      25.169   0.969  17.289  0.00  0.00    +0.000 F 
BRANCH  14  19
ATOM     19  N   UNL     1      19.904   2.495  18.031  0.00  0.00    +0.000 N 
ATOM     20  O   UNL     1      19.057   1.799  17.445  0.00  0.00    +0.000 OA
ATOM     21  O   UNL     1      19.498   3.535  18.806  0.00  0.00    +0.000 OA
ENDBRANCH  14  19
ENDBRANCH   3  12
TORSDOF 3
ENDMDL
MODEL 7
REMARK VINA RESULT:      -6.4     15.121     17.740
REMARK  Name = 
REMARK  3 active torsions:
REMARK  status: ('A' for Active; 'I' for Inactive)
REMARK    1  A    between atoms: C_7  and  C_8
REMARK    2  A    between atoms: N_10  and  C_11
REMARK    3  A    between atoms: C_13  and  N_14
REMARK                            x       y       z     vdW  Elec       q    Type
REMARK                         _______ _______ _______ _____ _____    ______ ____
ROOT
ATOM      1  C   UNL     1      29.190  23.348  28.558  0.00  0.00    +0.000 C 
ATOM      2  O   UNL     1      29.286  24.568  28.249  0.00  0.00    +0.000 OA
ATOM      3  N   UNL     1      28.155  22.604  27.974  0.00  0.00    +0.000 NA
ENDROOT
BRANCH   1  10
ATOM      4  C   UNL     1      33.758  21.743  29.504  0.00  0.00    +0.000 C 
ATOM      5  C   UNL     1      32.371  21.963  29.988  0.00  0.00    +0.000 A 
ATOM      6  C   UNL     1      31.980  21.628  31.264  0.00  0.00    +0.000 A 
ATOM      7  C   UNL     1      30.679  21.860  31.643  0.00  0.00    +0.000 A 
ATOM      8  C   UNL     1      30.303  21.480  33.034  0.00  0.00    +0.000 C 
ATOM      9  C   UNL     1      29.741  22.424  30.772  0.00  0.00    +0.000 A 
ATOM     10  C   UNL     1      30.144  22.755  29.498  0.00  0.00    +0.000 A 
ATOM     11  C   UNL     1      31.437  22.525  29.121  0.00  0.00    +0.000 A 
ENDBRANCH   1  10
BRANCH   3  12
ATOM     12  C   UNL     1      27.207  23.125  27.060  0.00  0.00    +0.000 A 
ATOM     13  C   UNL     1      27.308  22.889  25.707  0.00  0.00    +0.000 A 
ATOM     14  C   UNL     1      26.404  23.381  24.795  0.00  0.00    +0.000 A 
ATOM     15  C   UNL     1      25.346  24.145  25.246  0.00  0.00    +0.000 A 
ATOM     16  C   UNL     1      25.212  24.401  26.593  0.00  0.00    +0.000 A 
ATOM     17  C   UNL     1      26.147  23.888  27.495  0.00  0.00    +0.000 A 
ATOM     18  F   UNL     1      25.951  24.182  28.801  0.00  0.00    +0.000 F 
BRANCH  14  19
ATOM     19  N   UNL     1      26.513  23.135  23.398  0.00  0.00    +0.000 N 
ATOM     20  O   UNL     1      27.657  23.129  22.913  0.00  0.00    +0.000 OA
ATOM     21  O   UNL     1      25.442  22.911  22.593  0.00  0.00    +0.000 OA
ENDBRANCH  14  19
ENDBRANCH   3  12
TORSDOF 3
ENDMDL
MODEL 8
REMARK VINA RESULT:      -6.4     13.742     16.187
REMARK  Name = 
REMARK  3 active torsions:
REMARK  status: ('A' for Active; 'I' for Inactive)
REMARK    1  A    between atoms: C_7  and  C_8
REMARK    2  A    between atoms: N_10  and  C_11
REMARK    3  A    between atoms: C_13  and  N_14
REMARK                            x       y       z     vdW  Elec       q    Type
REMARK                         _______ _______ _______ _____ _____    ______ ____
ROOT
ATOM      1  C   UNL     1      30.038  23.521  27.206  0.00  0.00    +0.000 C 
ATOM      2  O   UNL     1      29.636  24.716  27.139  0.00  0.00    +0.000 OA
ATOM      3  N   UNL     1      29.869  22.709  26.076  0.00  0.00    +0.000 NA
ENDROOT
BRANCH   1  10
ATOM      4  C   UNL     1      34.080  22.015  29.599  0.00  0.00    +0.000 C 
ATOM      5  C   UNL     1      32.620  22.285  29.633  0.00  0.00    +0.000 A 
ATOM      6  C   UNL     1      31.863  22.085  30.765  0.00  0.00    +0.000 A 
ATOM      7  C   UNL     1      30.517  22.357  30.723  0.00  0.00    +0.000 A 
ATOM      8  C   UNL     1      29.741  22.124  31.973  0.00  0.00    +0.000 C 
ATOM      9  C   UNL     1      29.892  22.829  29.564  0.00  0.00    +0.000 A 
ATOM     10  C   UNL     1      30.658  23.026  28.438  0.00  0.00    +0.000 A 
ATOM     11  C   UNL     1      31.996  22.757  28.479  0.00  0.00    +0.000 A 
ENDBRANCH   1  10
BRANCH   3  12
ATOM     12  C   UNL     1      29.278  23.134  24.861  0.00  0.00    +0.000 A 
ATOM     13  C   UNL     1      27.919  23.053  24.656  0.00  0.00    +0.000 A 
ATOM     14  C   UNL     1      27.316  23.456  23.488  0.00  0.00    +0.000 A 
ATOM     15  C   UNL     1      28.098  23.967  22.472  0.00  0.00    +0.000 A 
ATOM     16  C   UNL     1      29.462  24.063  22.641  0.00  0.00    +0.000 A 
ATOM     17  C   UNL     1      30.046  23.644  23.839  0.00  0.00    +0.000 A 
ATOM     18  F   UNL     1      31.389  23.769  23.933  0.00  0.00    +0.000 F 
BRANCH  14  19
ATOM     19  N   UNL     1      25.911  23.371  23.281  0.00  0.00    +0.000 N 
ATOM     20  O   UNL     1      25.180  23.899  24.137  0.00  0.00    +0.000 OA
ATOM     21  O   UNL     1      25.348  22.749  22.212  0.00  0.00    +0.000 OA
ENDBRANCH  14  19
ENDBRANCH   3  12
TORSDOF 3
ENDMDL
MODEL 9
REMARK VINA RESULT:      -6.4      9.961     12.524
REMARK  Name = 
REMARK  3 active torsions:
REMARK  status: ('A' for Active; 'I' for Inactive)
REMARK    1  A    between atoms: C_7  and  C_8
REMARK    2  A    between atoms: N_10  and  C_11
REMARK    3  A    between atoms: C_13  and  N_14
REMARK                            x       y       z     vdW  Elec       q    Type
REMARK                         _______ _______ _______ _____ _____    ______ ____
ROOT
ATOM      1  C   UNL     1      29.542  26.337  20.603  0.00  0.00    +0.000 C 
ATOM      2  O   UNL     1      29.718  25.167  20.161  0.00  0.00    +0.000 OA
ATOM      3  N   UNL     1      29.048  26.477  21.906  0.00  0.00    +0.000 NA
ENDROOT
BRANCH   1  10
ATOM      4  C   UNL     1      29.334  31.207  19.846  0.00  0.00    +0.000 C 
ATOM      5  C   UNL     1      29.766  29.871  19.361  0.00  0.00    +0.000 A 
ATOM      6  C   UNL     1      30.434  29.705  18.169  0.00  0.00    +0.000 A 
ATOM      7  C   UNL     1      30.803  28.438  17.784  0.00  0.00    +0.000 A 
ATOM      8  C   UNL     1      31.522  28.310  16.486  0.00  0.00    +0.000 C 
ATOM      9  C   UNL     1      30.522  27.314  18.566  0.00  0.00    +0.000 A 
ATOM     10  C   UNL     1      29.854  27.491  19.757  0.00  0.00    +0.000 A 
ATOM     11  C   UNL     1      29.487  28.750  20.140  0.00  0.00    +0.000 A 
ENDBRANCH   1  10
BRANCH   3  12
ATOM     12  C   UNL     1      28.730  25.398  22.767  0.00  0.00    +0.000 A 
ATOM     13  C   UNL     1      27.500  24.780  22.721  0.00  0.00    +0.000 A 
ATOM     14  C   UNL     1      27.162  23.732  23.543  0.00  0.00    +0.000 A 
ATOM     15  C   UNL     1      28.089  23.271  24.457  0.00  0.00    +0.000 A 
ATOM     16  C   UNL     1      29.329  23.864  24.532  0.00  0.00    +0.000 A 
ATOM     17  C   UNL     1      29.644  24.928  23.683  0.00  0.00    +0.000 A 
ATOM     18  F   UNL     1      30.880  25.461  23.814  0.00  0.00    +0.000 F 
BRANCH  14  19
ATOM     19  N   UNL     1      25.890  23.096  23.492  0.00  0.00    +0.000 N 
ATOM     20  O   UNL     1      25.321  22.882  24.576  0.00  0.00    +0.000 OA
ATOM     21  O   UNL     1      25.286  22.724  22.333  0.00  0.00    +0.000 OA
ENDBRANCH  14  19
ENDBRANCH   3  12
TORSDOF 3
ENDMDL
MODEL 10
REMARK VINA RESULT:      -6.3     13.066     14.952
REMARK  Name = 
REMARK  3 active torsions:
REMARK  status: ('A' for Active; 'I' for Inactive)
REMARK    1  A    between atoms: C_7  and  C_8
REMARK    2  A    between atoms: N_10  and  C_11
REMARK    3  A    between atoms: C_13  and  N_14
REMARK                            x       y       z     vdW  Elec       q    Type
REMARK                         _______ _______ _______ _____ _____    ______ ____
ROOT
ATOM      1  C   UNL     1      31.570  24.079  24.700  0.00  0.00    +0.000 C 
ATOM      2  O   UNL     1      31.535  22.898  24.255  0.00  0.00    +0.000 OA
ATOM      3  N   UNL     1      30.358  24.674  25.075  0.00  0.00    +0.000 NA
ENDROOT
BRANCH   1  10
ATOM      4  C   UNL     1      34.045  28.260  25.553  0.00  0.00    +0.000 C 
ATOM      5  C   UNL     1      34.087  26.813  25.224  0.00  0.00    +0.000 A 
ATOM      6  C   UNL     1      35.273  26.141  25.027  0.00  0.00    +0.000 A 
ATOM      7  C   UNL     1      35.235  24.800  24.724  0.00  0.00    +0.000 A 
ATOM      8  C   UNL     1      36.543  24.118  24.519  0.00  0.00    +0.000 C 
ATOM      9  C   UNL     1      34.031  24.099  24.610  0.00  0.00    +0.000 A 
ATOM     10  C   UNL     1      32.852  24.781  24.811  0.00  0.00    +0.000 A 
ATOM     11  C   UNL     1      32.888  26.112  25.111  0.00  0.00    +0.000 A 
ENDBRANCH   1  10
BRANCH   3  12
ATOM     12  C   UNL     1      29.093  24.043  24.990  0.00  0.00    +0.000 A 
ATOM     13  C   UNL     1      28.359  24.058  23.825  0.00  0.00    +0.000 A 
ATOM     14  C   UNL     1      27.128  23.456  23.712  0.00  0.00    +0.000 A 
ATOM     15  C   UNL     1      26.596  22.806  24.808  0.00  0.00    +0.000 A 
ATOM     16  C   UNL     1      27.302  22.770  25.991  0.00  0.00    +0.000 A 
ATOM     17  C   UNL     1      28.550  23.392  26.075  0.00  0.00    +0.000 A 
ATOM     18  F   UNL     1      29.184  23.316  27.268  0.00  0.00    +0.000 F 
BRANCH  14  19
ATOM     19  N   UNL     1      26.374  23.474  22.505  0.00  0.00    +0.000 N 
ATOM     20  O   UNL     1      26.775  24.224  21.599  0.00  0.00    +0.000 OA
ATOM     21  O   UNL     1      25.259  22.722  22.309  0.00  0.00    +0.000 OA
ENDBRANCH  14  19
ENDBRANCH   3  12
TORSDOF 3
ENDMDL
