MODEL 1
REMARK VINA RESULT:      -6.3      0.000      0.000
REMARK  Name = 
REMARK  3 active torsions:
REMARK  status: ('A' for Active; 'I' for Inactive)
REMARK    1  A    between atoms: N_12  and  C_13
REMARK    2  A    between atoms: C_13  and  N_14
REMARK    3  A    between atoms: N_14  and  C_15
REMARK                            x       y       z     vdW  Elec       q    Type
REMARK                         _______ _______ _______ _____ _____    ______ ____
ROOT
ATOM      1  O   UNL     1      28.086  26.854  25.257  0.00  0.00    +0.000 OA
ATOM      2  C   UNL     1      28.277  25.666  24.841  0.00  0.00    +0.000 C 
ATOM      3  C   UNL     1      29.728  25.070  24.800  0.00  0.00    +0.000 C 
ATOM      4  C   UNL     1      29.499  23.970  26.093  0.00  0.00    +0.000 C 
ATOM      5  C   UNL     1      31.035  23.627  26.101  0.00  0.00    +0.000 C 
ATOM      6  C   UNL     1      31.326  22.987  25.088  0.00  0.00    +0.000 C 
ATOM      7  C   UNL     1      30.139  22.683  24.110  0.00  0.00    +0.000 C 
ATOM      8  C   UNL     1      29.034  22.685  25.309  0.00  0.00    +0.000 C 
ATOM      9  C   UNL     1      29.597  24.110  23.535  0.00  0.00    +0.000 C 
ATOM     10  C   UNL     1      28.044  23.897  23.465  0.00  0.00    +0.000 C 
ATOM     11  O   UNL     1      27.641  23.058  22.634  0.00  0.00    +0.000 OA
ATOM     12  N   UNL     1      27.401  24.717  24.381  0.00  0.00    +0.000 N 
ENDROOT
BRANCH  12  13
ATOM     13  C   UNL     1      26.018  24.568  24.760  0.00  0.00    +0.000 C 
BRANCH  13  14
ATOM     14  N   UNL     1      25.775  23.599  25.770  0.00  0.00    +0.000 NA
BRANCH  14  15
ATOM     15  C   UNL     1      25.767  23.877  27.156  0.00  0.00    +0.000 A 
ATOM     16  C   UNL     1      25.031  24.999  27.559  0.00  0.00    +0.000 A 
ATOM     17  C   UNL     1      25.024  25.292  28.895  0.00  0.00    +0.000 A 
ATOM     18  C   UNL     1      25.689  24.560  29.852  0.00  0.00    +0.000 A 
ATOM     19  O   UNL     1      25.680  24.857  31.201  0.00  0.00    +0.000 OA
ATOM     20  C   UNL     1      26.408  23.461  29.438  0.00  0.00    +0.000 A 
ATOM     21  C   UNL     1      26.430  23.147  28.109  0.00  0.00    +0.000 A 
ENDBRANCH  14  15
ENDBRANCH  13  14
ENDBRANCH  12  13
TORSDOF 3
ENDMDL
MODEL 2
REMARK VINA RESULT:      -6.1      2.324      3.403
REMARK  Name = 
REMARK  3 active torsions:
REMARK  status: ('A' for Active; 'I' for Inactive)
REMARK    1  A    between atoms: N_12  and  C_13
REMARK    2  A    between atoms: C_13  and  N_14
REMARK    3  A    between atoms: N_14  and  C_15
REMARK                            x       y       z     vdW  Elec       q    Type
REMARK                         _______ _______ _______ _____ _____    ______ ____
ROOT
ATOM      1  O   UNL     1      26.653  26.417  25.450  0.00  0.00    +0.000 OA
ATOM      2  C   UNL     1      26.840  25.483  24.607  0.00  0.00    +0.000 C 
ATOM      3  C   UNL     1      27.666  25.754  23.301  0.00  0.00    +0.000 C 
ATOM      4  C   UNL     1      29.033  24.831  23.766  0.00  0.00    +0.000 C 
ATOM      5  C   UNL     1      29.842  25.365  22.527  0.00  0.00    +0.000 C 
ATOM      6  C   UNL     1      29.380  24.887  21.488  0.00  0.00    +0.000 C 
ATOM      7  C   UNL     1      28.173  23.904  21.669  0.00  0.00    +0.000 C 
ATOM      8  C   UNL     1      28.666  23.429  23.148  0.00  0.00    +0.000 C 
ATOM      9  C   UNL     1      26.933  24.758  22.297  0.00  0.00    +0.000 C 
ATOM     10  C   UNL     1      26.272  23.741  23.294  0.00  0.00    +0.000 C 
ATOM     11  O   UNL     1      25.728  22.743  22.781  0.00  0.00    +0.000 OA
ATOM     12  N   UNL     1      26.432  24.173  24.602  0.00  0.00    +0.000 N 
ENDROOT
BRANCH  12  13
ATOM     13  C   UNL     1      26.190  23.345  25.757  0.00  0.00    +0.000 C 
BRANCH  13  14
ATOM     14  N   UNL     1      27.152  22.321  25.972  0.00  0.00    +0.000 NA
BRANCH  14  15
ATOM     15  C   UNL     1      28.269  22.445  26.829  0.00  0.00    +0.000 A 
ATOM     16  C   UNL     1      28.001  22.855  28.143  0.00  0.00    +0.000 A 
ATOM     17  C   UNL     1      29.072  22.995  28.983  0.00  0.00    +0.000 A 
ATOM     18  C   UNL     1      30.377  22.760  28.618  0.00  0.00    +0.000 A 
ATOM     19  O   UNL     1      31.457  22.901  29.467  0.00  0.00    +0.000 OA
ATOM     20  C   UNL     1      30.623  22.359  27.323  0.00  0.00    +0.000 A 
ATOM     21  C   UNL     1      29.571  22.212  26.466  0.00  0.00    +0.000 A 
ENDBRANCH  14  15
ENDBRANCH  13  14
ENDBRANCH  12  13
TORSDOF 3
ENDMDL
MODEL 3
REMARK VINA RESULT:      -6.1      2.086      5.350
REMARK  Name = 
REMARK  3 active torsions:
REMARK  status: ('A' for Active; 'I' for Inactive)
REMARK    1  A    between atoms: N_12  and  C_13
REMARK    2  A    between atoms: C_13  and  N_14
REMARK    3  A    between atoms: N_14  and  C_15
REMARK                            x       y       z     vdW  Elec       q    Type
REMARK                         _______ _______ _______ _____ _____    ______ ____
ROOT
ATOM      1  O   UNL     1      25.813  22.666  25.113  0.00  0.00    +0.000 OA
ATOM      2  C   UNL     1      26.609  23.187  25.958  0.00  0.00    +0.000 C 
ATOM      3  C   UNL     1      27.786  22.340  26.557  0.00  0.00    +0.000 C 
ATOM      4  C   UNL     1      29.035  23.169  25.727  0.00  0.00    +0.000 C 
ATOM      5  C   UNL     1      30.092  22.108  26.211  0.00  0.00    +0.000 C 
ATOM      6  C   UNL     1      30.279  22.228  27.425  0.00  0.00    +0.000 C 
ATOM      7  C   UNL     1      29.464  23.366  28.130  0.00  0.00    +0.000 C 
ATOM      8  C   UNL     1      29.404  24.281  26.781  0.00  0.00    +0.000 C 
ATOM      9  C   UNL     1      27.883  22.987  28.009  0.00  0.00    +0.000 C 
ATOM     10  C   UNL     1      27.201  24.381  27.775  0.00  0.00    +0.000 C 
ATOM     11  O   UNL     1      27.252  25.185  28.728  0.00  0.00    +0.000 OA
ATOM     12  N   UNL     1      26.655  24.445  26.501  0.00  0.00    +0.000 N 
ENDROOT
BRANCH  12  13
ATOM     13  C   UNL     1      26.209  25.667  25.879  0.00  0.00    +0.000 C 
BRANCH  13  14
ATOM     14  N   UNL     1      27.211  26.376  25.165  0.00  0.00    +0.000 NA
BRANCH  14  15
ATOM     15  C   UNL     1      27.801  25.927  23.962  0.00  0.00    +0.000 A 
ATOM     16  C   UNL     1      29.145  26.272  23.763  0.00  0.00    +0.000 A 
ATOM     17  C   UNL     1      29.728  25.858  22.597  0.00  0.00    +0.000 A 
ATOM     18  C   UNL     1      29.082  25.134  21.622  0.00  0.00    +0.000 A 
ATOM     19  O   UNL     1      29.673  24.717  20.446  0.00  0.00    +0.000 OA
ATOM     20  C   UNL     1      27.761  24.805  21.834  0.00  0.00    +0.000 A 
ATOM     21  C   UNL     1      27.156  25.206  22.990  0.00  0.00    +0.000 A 
ENDBRANCH  14  15
ENDBRANCH  13  14
ENDBRANCH  12  13
TORSDOF 3
ENDMDL
MODEL 4
REMARK VINA RESULT:      -6.0      1.604      2.896
REMARK  Name = 
REMARK  3 active torsions:
REMARK  status: ('A' for Active; 'I' for Inactive)
REMARK    1  A    between atoms: N_12  and  C_13
REMARK    2  A    between atoms: C_13  and  N_14
REMARK    3  A    between atoms: N_14  and  C_15
REMARK                            x       y       z     vdW  Elec       q    Type
REMARK                         _______ _______ _______ _____ _____    ______ ____
ROOT
ATOM      1  O   UNL     1      28.756  25.997  26.101  0.00  0.00    +0.000 OA
ATOM      2  C   UNL     1      28.394  25.375  25.051  0.00  0.00    +0.000 C 
ATOM      3  C   UNL     1      28.223  26.148  23.697  0.00  0.00    +0.000 C 
ATOM      4  C   UNL     1      29.599  25.468  22.935  0.00  0.00    +0.000 C 
ATOM      5  C   UNL     1      29.452  26.468  21.728  0.00  0.00    +0.000 C 
ATOM      6  C   UNL     1      28.453  26.179  21.065  0.00  0.00    +0.000 C 
ATOM      7  C   UNL     1      27.638  24.937  21.567  0.00  0.00    +0.000 C 
ATOM      8  C   UNL     1      28.954  24.224  22.214  0.00  0.00    +0.000 C 
ATOM      9  C   UNL     1      27.044  25.302  23.041  0.00  0.00    +0.000 C 
ATOM     10  C   UNL     1      27.165  23.943  23.818  0.00  0.00    +0.000 C 
ATOM     11  O   UNL     1      26.439  23.013  23.415  0.00  0.00    +0.000 OA
ATOM     12  N   UNL     1      28.097  24.052  24.840  0.00  0.00    +0.000 N 
ENDROOT
BRANCH  12  13
ATOM     13  C   UNL     1      28.641  22.924  25.555  0.00  0.00    +0.000 C 
BRANCH  13  14
ATOM     14  N   UNL     1      27.730  22.272  26.428  0.00  0.00    +0.000 NA
BRANCH  14  15
ATOM     15  C   UNL     1      27.223  22.839  27.618  0.00  0.00    +0.000 A 
ATOM     16  C   UNL     1      27.835  22.429  28.811  0.00  0.00    +0.000 A 
ATOM     17  C   UNL     1      27.347  22.957  29.975  0.00  0.00    +0.000 A 
ATOM     18  C   UNL     1      26.306  23.853  30.042  0.00  0.00    +0.000 A 
ATOM     19  O   UNL     1      25.815  24.385  31.218  0.00  0.00    +0.000 OA
ATOM     20  C   UNL     1      25.715  24.245  28.860  0.00  0.00    +0.000 A 
ATOM     21  C   UNL     1      26.184  23.733  27.685  0.00  0.00    +0.000 A 
ENDBRANCH  14  15
ENDBRANCH  13  14
ENDBRANCH  12  13
TORSDOF 3
ENDMDL
MODEL 5
REMARK VINA RESULT:      -5.8     14.525     17.180
REMARK  Name = 
REMARK  3 active torsions:
REMARK  status: ('A' for Active; 'I' for Inactive)
REMARK    1  A    between atoms: N_12  and  C_13
REMARK    2  A    between atoms: C_13  and  N_14
REMARK    3  A    between atoms: N_14  and  C_15
REMARK                            x       y       z     vdW  Elec       q    Type
REMARK                         _______ _______ _______ _____ _____    ______ ____
ROOT
ATOM      1  O   UNL     1      33.459  20.592  12.317  0.00  0.00    +0.000 OA
ATOM      2  C   UNL     1      32.469  20.899  11.578  0.00  0.00    +0.000 C 
ATOM      3  C   UNL     1      31.060  21.160  12.217  0.00  0.00    +0.000 C 
ATOM      4  C   UNL     1      31.057  22.852  11.943  0.00  0.00    +0.000 C 
ATOM      5  C   UNL     1      29.754  23.012  12.812  0.00  0.00    +0.000 C 
ATOM      6  C   UNL     1      28.793  22.516  12.219  0.00  0.00    +0.000 C 
ATOM      7  C   UNL     1      29.105  21.899  10.812  0.00  0.00    +0.000 C 
ATOM      8  C   UNL     1      30.345  22.923  10.539  0.00  0.00    +0.000 C 
ATOM      9  C   UNL     1      30.121  20.644  11.039  0.00  0.00    +0.000 C 
ATOM     10  C   UNL     1      31.086  20.741   9.806  0.00  0.00    +0.000 C 
ATOM     11  O   UNL     1      30.575  20.523   8.689  0.00  0.00    +0.000 OA
ATOM     12  N   UNL     1      32.370  21.063  10.220  0.00  0.00    +0.000 N 
ENDROOT
BRANCH  12  13
ATOM     13  C   UNL     1      33.417  21.495   9.328  0.00  0.00    +0.000 C 
BRANCH  13  14
ATOM     14  N   UNL     1      33.694  22.888   9.359  0.00  0.00    +0.000 NA
BRANCH  14  15
ATOM     15  C   UNL     1      34.867  23.455   9.905  0.00  0.00    +0.000 A 
ATOM     16  C   UNL     1      35.764  22.564  10.510  0.00  0.00    +0.000 A 
ATOM     17  C   UNL     1      36.899  23.097  11.057  0.00  0.00    +0.000 A 
ATOM     18  C   UNL     1      37.206  24.438  11.048  0.00  0.00    +0.000 A 
ATOM     19  O   UNL     1      38.353  24.975  11.601  0.00  0.00    +0.000 OA
ATOM     20  C   UNL     1      36.314  25.300  10.450  0.00  0.00    +0.000 A 
ATOM     21  C   UNL     1      35.174  24.792   9.897  0.00  0.00    +0.000 A 
ENDBRANCH  14  15
ENDBRANCH  13  14
ENDBRANCH  12  13
TORSDOF 3
ENDMDL
MODEL 6
REMARK VINA RESULT:      -5.6     31.083     32.327
REMARK  Name = 
REMARK  3 active torsions:
REMARK  status: ('A' for Active; 'I' for Inactive)
REMARK    1  A    between atoms: N_12  and  C_13
REMARK    2  A    between atoms: C_13  and  N_14
REMARK    3  A    between atoms: N_14  and  C_15
REMARK                            x       y       z     vdW  Elec       q    Type
REMARK                         _______ _______ _______ _____ _____    ______ ____
ROOT
ATOM      1  O   UNL     1      33.529  -8.850  32.616  0.00  0.00    +0.000 OA
ATOM      2  C   UNL     1      33.496  -7.709  32.053  0.00  0.00    +0.000 C 
ATOM      3  C   UNL     1      34.190  -7.497  30.662  0.00  0.00    +0.000 C 
ATOM      4  C   UNL     1      32.738  -7.344  29.766  0.00  0.00    +0.000 C 
ATOM      5  C   UNL     1      33.543  -7.377  28.414  0.00  0.00    +0.000 C 
ATOM      6  C   UNL     1      34.193  -6.336  28.289  0.00  0.00    +0.000 C 
ATOM      7  C   UNL     1      34.040  -5.294  29.450  0.00  0.00    +0.000 C 
ATOM      8  C   UNL     1      32.526  -5.784  29.809  0.00  0.00    +0.000 C 
ATOM      9  C   UNL     1      34.639  -5.975  30.805  0.00  0.00    +0.000 C 
ATOM     10  C   UNL     1      33.661  -5.465  31.921  0.00  0.00    +0.000 C 
ATOM     11  O   UNL     1      33.686  -4.240  32.156  0.00  0.00    +0.000 OA
ATOM     12  N   UNL     1      32.932  -6.522  32.445  0.00  0.00    +0.000 N 
ENDROOT
BRANCH  12  13
ATOM     13  C   UNL     1      31.766  -6.359  33.278  0.00  0.00    +0.000 C 
BRANCH  13  14
ATOM     14  N   UNL     1      30.531  -6.304  32.577  0.00  0.00    +0.000 NA
BRANCH  14  15
ATOM     15  C   UNL     1      29.849  -7.434  32.074  0.00  0.00    +0.000 A 
ATOM     16  C   UNL     1      29.255  -7.291  30.813  0.00  0.00    +0.000 A 
ATOM     17  C   UNL     1      28.578  -8.370  30.316  0.00  0.00    +0.000 A 
ATOM     18  C   UNL     1      28.447  -9.572  30.974  0.00  0.00    +0.000 A 
ATOM     19  O   UNL     1      27.764 -10.661  30.471  0.00  0.00    +0.000 OA
ATOM     20  C   UNL     1      29.037  -9.695  32.213  0.00  0.00    +0.000 A 
ATOM     21  C   UNL     1      29.719  -8.632  32.730  0.00  0.00    +0.000 A 
ENDBRANCH  14  15
ENDBRANCH  13  14
ENDBRANCH  12  13
TORSDOF 3
ENDMDL
MODEL 7
REMARK VINA RESULT:      -5.5     19.610     22.700
REMARK  Name = 
REMARK  3 active torsions:
REMARK  status: ('A' for Active; 'I' for Inactive)
REMARK    1  A    between atoms: N_12  and  C_13
REMARK    2  A    between atoms: C_13  and  N_14
REMARK    3  A    between atoms: N_14  and  C_15
REMARK                            x       y       z     vdW  Elec       q    Type
REMARK                         _______ _______ _______ _____ _____    ______ ____
ROOT
ATOM      1  O   UNL     1      15.119   9.951  40.129  0.00  0.00    +0.000 OA
ATOM      2  C   UNL     1      16.300   9.555  40.391  0.00  0.00    +0.000 C 
ATOM      3  C   UNL     1      16.603   8.823  41.746  0.00  0.00    +0.000 C 
ATOM      4  C   UNL     1      16.851   7.275  41.054  0.00  0.00    +0.000 C 
ATOM      5  C   UNL     1      16.904   6.620  42.484  0.00  0.00    +0.000 C 
ATOM      6  C   UNL     1      17.939   6.963  43.062  0.00  0.00    +0.000 C 
ATOM      7  C   UNL     1      18.893   7.904  42.249  0.00  0.00    +0.000 C 
ATOM      8  C   UNL     1      18.408   7.304  40.813  0.00  0.00    +0.000 C 
ATOM      9  C   UNL     1      18.101   9.306  41.993  0.00  0.00    +0.000 C 
ATOM     10  C   UNL     1      18.544   9.704  40.541  0.00  0.00    +0.000 C 
ATOM     11  O   UNL     1      19.747  10.000  40.395  0.00  0.00    +0.000 OA
ATOM     12  N   UNL     1      17.464   9.643  39.672  0.00  0.00    +0.000 N 
ENDROOT
BRANCH  12  13
ATOM     13  C   UNL     1      17.587   9.676  38.235  0.00  0.00    +0.000 C 
BRANCH  13  14
ATOM     14  N   UNL     1      17.227  10.912  37.633  0.00  0.00    +0.000 NA
BRANCH  14  15
ATOM     15  C   UNL     1      16.813  11.052  36.289  0.00  0.00    +0.000 A 
ATOM     16  C   UNL     1      15.694  11.865  36.065  0.00  0.00    +0.000 A 
ATOM     17  C   UNL     1      15.270  12.001  34.772  0.00  0.00    +0.000 A 
ATOM     18  C   UNL     1      15.870  11.393  33.693  0.00  0.00    +0.000 A 
ATOM     19  O   UNL     1      15.441  11.531  32.388  0.00  0.00    +0.000 OA
ATOM     20  C   UNL     1      16.969  10.597  33.931  0.00  0.00    +0.000 A 
ATOM     21  C   UNL     1      17.411  10.446  35.213  0.00  0.00    +0.000 A 
ENDBRANCH  14  15
ENDBRANCH  13  14
ENDBRANCH  12  13
TORSDOF 3
ENDMDL
MODEL 8
REMARK VINA RESULT:      -5.5     12.989     15.268
REMARK  Name = 
REMARK  3 active torsions:
REMARK  status: ('A' for Active; 'I' for Inactive)
REMARK    1  A    between atoms: N_12  and  C_13
REMARK    2  A    between atoms: C_13  and  N_14
REMARK    3  A    between atoms: N_14  and  C_15
REMARK                            x       y       z     vdW  Elec       q    Type
REMARK                         _______ _______ _______ _____ _____    ______ ____
ROOT
ATOM      1  O   UNL     1      20.050  23.479  39.491  0.00  0.00    +0.000 OA
ATOM      2  C   UNL     1      20.200  22.259  39.160  0.00  0.00    +0.000 C 
ATOM      3  C   UNL     1      19.716  21.117  40.122  0.00  0.00    +0.000 C 
ATOM      4  C   UNL     1      18.393  20.623  39.151  0.00  0.00    +0.000 C 
ATOM      5  C   UNL     1      17.877  19.678  40.298  0.00  0.00    +0.000 C 
ATOM      6  C   UNL     1      18.646  18.722  40.430  0.00  0.00    +0.000 C 
ATOM      7  C   UNL     1      19.871  18.694  39.453  0.00  0.00    +0.000 C 
ATOM      8  C   UNL     1      19.069  19.496  38.282  0.00  0.00    +0.000 C 
ATOM      9  C   UNL     1      20.796  19.995  39.785  0.00  0.00    +0.000 C 
ATOM     10  C   UNL     1      21.289  20.452  38.367  0.00  0.00    +0.000 C 
ATOM     11  O   UNL     1      22.060  19.671  37.775  0.00  0.00    +0.000 OA
ATOM     12  N   UNL     1      20.745  21.686  38.040  0.00  0.00    +0.000 N 
ENDROOT
BRANCH  12  13
ATOM     13  C   UNL     1      20.773  22.250  36.713  0.00  0.00    +0.000 C 
BRANCH  13  14
ATOM     14  N   UNL     1      20.319  21.382  35.684  0.00  0.00    +0.000 NA
BRANCH  14  15
ATOM     15  C   UNL     1      19.054  21.477  35.062  0.00  0.00    +0.000 A 
ATOM     16  C   UNL     1      18.099  22.270  35.715  0.00  0.00    +0.000 A 
ATOM     17  C   UNL     1      16.864  22.362  35.136  0.00  0.00    +0.000 A 
ATOM     18  C   UNL     1      16.508  21.731  33.966  0.00  0.00    +0.000 A 
ATOM     19  O   UNL     1      15.261  21.825  33.382  0.00  0.00    +0.000 OA
ATOM     20  C   UNL     1      17.458  20.955  33.338  0.00  0.00    +0.000 A 
ATOM     21  C   UNL     1      18.699  20.848  33.896  0.00  0.00    +0.000 A 
ENDBRANCH  14  15
ENDBRANCH  13  14
ENDBRANCH  12  13
TORSDOF 3
ENDMDL
MODEL 9
REMARK VINA RESULT:      -5.5     21.185     22.846
REMARK  Name = 
REMARK  3 active torsions:
REMARK  status: ('A' for Active; 'I' for Inactive)
REMARK    1  A    between atoms: N_12  and  C_13
REMARK    2  A    between atoms: C_13  and  N_14
REMARK    3  A    between atoms: N_14  and  C_15
REMARK                            x       y       z     vdW  Elec       q    Type
REMARK                         _______ _______ _______ _____ _____    ______ ____
ROOT
ATOM      1  O   UNL     1      26.898   3.481  14.598  0.00  0.00    +0.000 OA
ATOM      2  C   UNL     1      26.649   4.068  15.700  0.00  0.00    +0.000 C 
ATOM      3  C   UNL     1      27.728   4.999  16.357  0.00  0.00    +0.000 C 
ATOM      4  C   UNL     1      26.901   6.468  16.045  0.00  0.00    +0.000 C 
ATOM      5  C   UNL     1      28.152   7.297  16.519  0.00  0.00    +0.000 C 
ATOM      6  C   UNL     1      28.296   7.178  17.738  0.00  0.00    +0.000 C 
ATOM      7  C   UNL     1      27.232   6.285  18.465  0.00  0.00    +0.000 C 
ATOM      8  C   UNL     1      26.069   6.626  17.374  0.00  0.00    +0.000 C 
ATOM      9  C   UNL     1      27.394   4.765  17.897  0.00  0.00    +0.000 C 
ATOM     10  C   UNL     1      25.912   4.255  17.821  0.00  0.00    +0.000 C 
ATOM     11  O   UNL     1      25.322   4.113  18.911  0.00  0.00    +0.000 OA
ATOM     12  N   UNL     1      25.536   4.055  16.501  0.00  0.00    +0.000 N 
ENDROOT
BRANCH  12  13
ATOM     13  C   UNL     1      24.173   3.859  16.074  0.00  0.00    +0.000 C 
BRANCH  13  14
ATOM     14  N   UNL     1      23.670   2.543  16.261  0.00  0.00    +0.000 NA
BRANCH  14  15
ATOM     15  C   UNL     1      22.301   2.228  16.419  0.00  0.00    +0.000 A 
ATOM     16  C   UNL     1      21.710   2.617  17.629  0.00  0.00    +0.000 A 
ATOM     17  C   UNL     1      20.390   2.307  17.805  0.00  0.00    +0.000 A 
ATOM     18  C   UNL     1      19.619   1.646  16.877  0.00  0.00    +0.000 A 
ATOM     19  O   UNL     1      18.286   1.335  17.057  0.00  0.00    +0.000 OA
ATOM     20  C   UNL     1      20.216   1.271  15.693  0.00  0.00    +0.000 A 
ATOM     21  C   UNL     1      21.533   1.569  15.493  0.00  0.00    +0.000 A 
ENDBRANCH  14  15
ENDBRANCH  13  14
ENDBRANCH  12  13
TORSDOF 3
ENDMDL
MODEL 10
REMARK VINA RESULT:      -5.4      2.702      4.719
REMARK  Name = 
REMARK  3 active torsions:
REMARK  status: ('A' for Active; 'I' for Inactive)
REMARK    1  A    between atoms: N_12  and  C_13
REMARK    2  A    between atoms: C_13  and  N_14
REMARK    3  A    between atoms: N_14  and  C_15
REMARK                            x       y       z     vdW  Elec       q    Type
REMARK                         _______ _______ _______ _____ _____    ______ ____
ROOT
ATOM      1  O   UNL     1      28.881  25.867  26.392  0.00  0.00    +0.000 OA
ATOM      2  C   UNL     1      28.369  25.117  25.501  0.00  0.00    +0.000 C 
ATOM      3  C   UNL     1      28.197  25.642  24.033  0.00  0.00    +0.000 C 
ATOM      4  C   UNL     1      29.419  24.652  23.351  0.00  0.00    +0.000 C 
ATOM      5  C   UNL     1      29.309  25.422  21.983  0.00  0.00    +0.000 C 
ATOM      6  C   UNL     1      28.236  25.154  21.437  0.00  0.00    +0.000 C 
ATOM      7  C   UNL     1      27.313  24.148  22.207  0.00  0.00    +0.000 C 
ATOM      8  C   UNL     1      28.573  23.396  22.917  0.00  0.00    +0.000 C 
ATOM      9  C   UNL     1      26.877  24.857  23.610  0.00  0.00    +0.000 C 
ATOM     10  C   UNL     1      26.885  23.662  24.628  0.00  0.00    +0.000 C 
ATOM     11  O   UNL     1      26.021  22.780  24.448  0.00  0.00    +0.000 OA
ATOM     12  N   UNL     1      27.895  23.831  25.564  0.00  0.00    +0.000 N 
ENDROOT
BRANCH  12  13
ATOM     13  C   UNL     1      28.346  22.792  26.456  0.00  0.00    +0.000 C 
BRANCH  13  14
ATOM     14  N   UNL     1      29.662  22.317  26.206  0.00  0.00    +0.000 NA
BRANCH  14  15
ATOM     15  C   UNL     1      30.804  22.715  26.935  0.00  0.00    +0.000 A 
ATOM     16  C   UNL     1      31.606  23.701  26.344  0.00  0.00    +0.000 A 
ATOM     17  C   UNL     1      32.724  24.089  27.029  0.00  0.00    +0.000 A 
ATOM     18  C   UNL     1      33.103  23.574  28.247  0.00  0.00    +0.000 A 
ATOM     19  O   UNL     1      34.233  23.967  28.937  0.00  0.00    +0.000 OA
ATOM     20  C   UNL     1      32.305  22.605  28.813  0.00  0.00    +0.000 A 
ATOM     21  C   UNL     1      31.182  22.201  28.149  0.00  0.00    +0.000 A 
ENDBRANCH  14  15
ENDBRANCH  13  14
ENDBRANCH  12  13
TORSDOF 3
ENDMDL
