MODEL 1
REMARK VINA RESULT:      -7.7      0.000      0.000
REMARK  Name = 
REMARK  8 active torsions:
REMARK  status: ('A' for Active; 'I' for Inactive)
REMARK    1  A    between atoms: O_2  and  C_3
REMARK    2  A    between atoms: C_5  and  N_6
REMARK    3  A    between atoms: C_7  and  C_9
REMARK    4  A    between atoms: C_9  and  S_10
REMARK    5  A    between atoms: S_10  and  C_11
REMARK    6  A    between atoms: C_20  and  C_21
REMARK    7  A    between atoms: C_21  and  C_22
REMARK    8  A    between atoms: C_29  and  O_30
REMARK                            x       y       z     vdW  Elec       q    Type
REMARK                         _______ _______ _______ _____ _____    ______ ____
ROOT
ATOM      1  C   UNL     1      36.487  -2.439  17.451  0.00  0.00    +0.000 A 
ATOM      2  N   UNL     1      35.170  -2.569  17.125  0.00  0.00    +0.000 NA
ATOM      3  C   UNL     1      34.821  -3.457  16.205  0.00  0.00    +0.000 A 
ATOM      4  C   UNL     1      33.470  -3.560  15.901  0.00  0.00    +0.000 A 
ATOM      5  C   UNL     1      33.021  -4.454  14.960  0.00  0.00    +0.000 A 
ATOM      6  C   UNL     1      33.947  -5.246  14.325  0.00  0.00    +0.000 A 
ATOM      7  C   UNL     1      35.286  -5.142  14.629  0.00  0.00    +0.000 A 
ATOM      8  C   UNL     1      35.758  -4.244  15.577  0.00  0.00    +0.000 A 
ATOM      9  C   UNL     1      37.097  -4.137  15.882  0.00  0.00    +0.000 A 
ATOM     10  C   UNL     1      37.455  -3.200  16.851  0.00  0.00    +0.000 A 
ENDROOT
BRANCH   1  11
ATOM     11  S   UNL     1      36.870  -1.226  18.705  0.00  0.00    +0.000 S 
BRANCH  11  12
ATOM     12  C   UNL     1      35.610   0.051  18.830  0.00  0.00    +0.000 C 
BRANCH  12  14
ATOM     13  N   UNL     1      36.821   1.161  16.955  0.00  0.00    +0.000 NA
ATOM     14  C   UNL     1      35.603   0.846  17.589  0.00  0.00    +0.000 C 
ATOM     15  O   UNL     1      34.534   1.251  17.084  0.00  0.00    +0.000 OA
BRANCH  13  18
ATOM     16  C   UNL     1      36.783   3.962  14.533  0.00  0.00    +0.000 A 
ATOM     17  C   UNL     1      36.805   3.290  15.726  0.00  0.00    +0.000 A 
ATOM     18  C   UNL     1      36.800   1.927  15.765  0.00  0.00    +0.000 A 
ATOM     19  C   UNL     1      36.771   1.238  14.549  0.00  0.00    +0.000 A 
ATOM     20  C   UNL     1      36.748   1.882  13.334  0.00  0.00    +0.000 A 
ATOM     21  C   UNL     1      36.755   3.261  13.349  0.00  0.00    +0.000 A 
BRANCH  16  23
ATOM     22  C   UNL     1      35.656   6.044  14.063  0.00  0.00    +0.000 C 
ATOM     23  O   UNL     1      36.789   5.345  14.492  0.00  0.00    +0.000 OA
ENDBRANCH  16  23
BRANCH  20  24
ATOM     24  O   UNL     1      36.720   1.182  12.128  0.00  0.00    +0.000 OA
ATOM     25  C   UNL     1      37.823   0.401  11.709  0.00  0.00    +0.000 C 
ENDBRANCH  20  24
ENDBRANCH  13  18
ENDBRANCH  12  14
ENDBRANCH  11  12
ENDBRANCH   1  11
BRANCH  10  26
ATOM     26  C   UNL     1      38.881  -3.007  17.241  0.00  0.00    +0.000 C 
BRANCH  26  27
ATOM     27  C   UNL     1      39.578  -2.426  16.066  0.00  0.00    +0.000 A 
ATOM     28  C   UNL     1      40.523  -3.097  15.324  0.00  0.00    +0.000 A 
ATOM     29  C   UNL     1      41.161  -2.565  14.248  0.00  0.00    +0.000 A 
ATOM     30  C   UNL     1      40.879  -1.277  13.838  0.00  0.00    +0.000 A 
ATOM     31  C   UNL     1      39.936  -0.575  14.561  0.00  0.00    +0.000 A 
ATOM     32  C   UNL     1      39.292  -1.121  15.651  0.00  0.00    +0.000 A 
ENDBRANCH  26  27
ENDBRANCH  10  26
TORSDOF 8
ENDMDL
MODEL 2
REMARK VINA RESULT:      -7.6      4.182      5.896
REMARK  Name = 
REMARK  8 active torsions:
REMARK  status: ('A' for Active; 'I' for Inactive)
REMARK    1  A    between atoms: O_2  and  C_3
REMARK    2  A    between atoms: C_5  and  N_6
REMARK    3  A    between atoms: C_7  and  C_9
REMARK    4  A    between atoms: C_9  and  S_10
REMARK    5  A    between atoms: S_10  and  C_11
REMARK    6  A    between atoms: C_20  and  C_21
REMARK    7  A    between atoms: C_21  and  C_22
REMARK    8  A    between atoms: C_29  and  O_30
REMARK                            x       y       z     vdW  Elec       q    Type
REMARK                         _______ _______ _______ _____ _____    ______ ____
ROOT
ATOM      1  C   UNL     1      37.650   1.046  14.992  0.00  0.00    +0.000 A 
ATOM      2  N   UNL     1      36.794   0.976  16.050  0.00  0.00    +0.000 NA
ATOM      3  C   UNL     1      36.085  -0.130  16.230  0.00  0.00    +0.000 A 
ATOM      4  C   UNL     1      35.225  -0.163  17.320  0.00  0.00    +0.000 A 
ATOM      5  C   UNL     1      34.454  -1.269  17.581  0.00  0.00    +0.000 A 
ATOM      6  C   UNL     1      34.556  -2.345  16.733  0.00  0.00    +0.000 A 
ATOM      7  C   UNL     1      35.410  -2.309  15.653  0.00  0.00    +0.000 A 
ATOM      8  C   UNL     1      36.197  -1.200  15.374  0.00  0.00    +0.000 A 
ATOM      9  C   UNL     1      37.052  -1.161  14.294  0.00  0.00    +0.000 A 
ATOM     10  C   UNL     1      37.793   0.006  14.112  0.00  0.00    +0.000 A 
ENDROOT
BRANCH   1  11
ATOM     11  S   UNL     1      38.572   2.567  14.826  0.00  0.00    +0.000 S 
BRANCH  11  12
ATOM     12  C   UNL     1      37.584   4.014  15.234  0.00  0.00    +0.000 C 
BRANCH  12  14
ATOM     13  N   UNL     1      38.591   5.827  16.618  0.00  0.00    +0.000 NA
ATOM     14  C   UNL     1      38.019   4.542  16.540  0.00  0.00    +0.000 C 
ATOM     15  O   UNL     1      37.889   3.872  17.586  0.00  0.00    +0.000 OA
BRANCH  13  18
ATOM     16  C   UNL     1      40.469   6.445  19.749  0.00  0.00    +0.000 A 
ATOM     17  C   UNL     1      40.134   5.920  18.529  0.00  0.00    +0.000 A 
ATOM     18  C   UNL     1      39.006   6.321  17.878  0.00  0.00    +0.000 A 
ATOM     19  C   UNL     1      38.201   7.284  18.495  0.00  0.00    +0.000 A 
ATOM     20  C   UNL     1      38.509   7.830  19.719  0.00  0.00    +0.000 A 
ATOM     21  C   UNL     1      39.661   7.392  20.336  0.00  0.00    +0.000 A 
BRANCH  16  23
ATOM     22  C   UNL     1      42.588   6.976  20.777  0.00  0.00    +0.000 C 
ATOM     23  O   UNL     1      41.615   6.040  20.410  0.00  0.00    +0.000 OA
ENDBRANCH  16  23
BRANCH  20  24
ATOM     24  O   UNL     1      37.697   8.791  20.323  0.00  0.00    +0.000 OA
ATOM     25  C   UNL     1      38.238  10.005  20.809  0.00  0.00    +0.000 C 
ENDBRANCH  20  24
ENDBRANCH  13  18
ENDBRANCH  12  14
ENDBRANCH  11  12
ENDBRANCH   1  11
BRANCH  10  26
ATOM     26  C   UNL     1      38.738   0.143  12.966  0.00  0.00    +0.000 C 
BRANCH  26  27
ATOM     27  C   UNL     1      39.773  -0.908  13.129  0.00  0.00    +0.000 A 
ATOM     28  C   UNL     1      40.723  -0.904  14.124  0.00  0.00    +0.000 A 
ATOM     29  C   UNL     1      41.671  -1.866  14.273  0.00  0.00    +0.000 A 
ATOM     30  C   UNL     1      41.726  -2.931  13.395  0.00  0.00    +0.000 A 
ATOM     31  C   UNL     1      40.788  -2.966  12.383  0.00  0.00    +0.000 A 
ATOM     32  C   UNL     1      39.828  -1.986  12.239  0.00  0.00    +0.000 A 
ENDBRANCH  26  27
ENDBRANCH  10  26
TORSDOF 8
ENDMDL
MODEL 3
REMARK VINA RESULT:      -7.5      0.957      2.355
REMARK  Name = 
REMARK  8 active torsions:
REMARK  status: ('A' for Active; 'I' for Inactive)
REMARK    1  A    between atoms: O_2  and  C_3
REMARK    2  A    between atoms: C_5  and  N_6
REMARK    3  A    between atoms: C_7  and  C_9
REMARK    4  A    between atoms: C_9  and  S_10
REMARK    5  A    between atoms: S_10  and  C_11
REMARK    6  A    between atoms: C_20  and  C_21
REMARK    7  A    between atoms: C_21  and  C_22
REMARK    8  A    between atoms: C_29  and  O_30
REMARK                            x       y       z     vdW  Elec       q    Type
REMARK                         _______ _______ _______ _____ _____    ______ ____
ROOT
ATOM      1  C   UNL     1      36.407  -2.340  17.370  0.00  0.00    +0.000 A 
ATOM      2  N   UNL     1      35.096  -2.517  17.044  0.00  0.00    +0.000 NA
ATOM      3  C   UNL     1      34.775  -3.454  16.162  0.00  0.00    +0.000 A 
ATOM      4  C   UNL     1      33.429  -3.605  15.857  0.00  0.00    +0.000 A 
ATOM      5  C   UNL     1      33.008  -4.550  14.955  0.00  0.00    +0.000 A 
ATOM      6  C   UNL     1      33.957  -5.346  14.360  0.00  0.00    +0.000 A 
ATOM      7  C   UNL     1      35.291  -5.194  14.665  0.00  0.00    +0.000 A 
ATOM      8  C   UNL     1      35.735  -4.244  15.575  0.00  0.00    +0.000 A 
ATOM      9  C   UNL     1      37.069  -4.090  15.882  0.00  0.00    +0.000 A 
ATOM     10  C   UNL     1      37.398  -3.102  16.810  0.00  0.00    +0.000 A 
ENDROOT
BRANCH   1  11
ATOM     11  S   UNL     1      36.753  -1.063  18.571  0.00  0.00    +0.000 S 
BRANCH  11  12
ATOM     12  C   UNL     1      35.573   0.292  18.488  0.00  0.00    +0.000 C 
BRANCH  12  14
ATOM     13  N   UNL     1      35.330   1.204  16.181  0.00  0.00    +0.000 NA
ATOM     14  C   UNL     1      35.986   1.228  17.427  0.00  0.00    +0.000 C 
ATOM     15  O   UNL     1      36.911   2.048  17.610  0.00  0.00    +0.000 OA
BRANCH  13  18
ATOM     16  C   UNL     1      37.022   2.757  13.275  0.00  0.00    +0.000 A 
ATOM     17  C   UNL     1      36.679   1.828  14.223  0.00  0.00    +0.000 A 
ATOM     18  C   UNL     1      35.739   2.107  15.170  0.00  0.00    +0.000 A 
ATOM     19  C   UNL     1      35.137   3.369  15.144  0.00  0.00    +0.000 A 
ATOM     20  C   UNL     1      35.460   4.323  14.208  0.00  0.00    +0.000 A 
ATOM     21  C   UNL     1      36.415   3.991  13.271  0.00  0.00    +0.000 A 
BRANCH  16  23
ATOM     22  C   UNL     1      37.679   1.602  11.260  0.00  0.00    +0.000 C 
ATOM     23  O   UNL     1      37.975   2.474  12.313  0.00  0.00    +0.000 OA
ENDBRANCH  16  23
BRANCH  20  24
ATOM     24  O   UNL     1      34.851   5.578  14.193  0.00  0.00    +0.000 OA
ATOM     25  C   UNL     1      34.733   6.320  12.994  0.00  0.00    +0.000 C 
ENDBRANCH  20  24
ENDBRANCH  13  18
ENDBRANCH  12  14
ENDBRANCH  11  12
ENDBRANCH   1  11
BRANCH  10  26
ATOM     26  C   UNL     1      38.817  -2.856  17.197  0.00  0.00    +0.000 C 
BRANCH  26  27
ATOM     27  C   UNL     1      39.484  -2.231  16.028  0.00  0.00    +0.000 A 
ATOM     28  C   UNL     1      39.178  -0.978  15.548  0.00  0.00    +0.000 A 
ATOM     29  C   UNL     1      39.789  -0.406  14.477  0.00  0.00    +0.000 A 
ATOM     30  C   UNL     1      40.781  -1.084  13.797  0.00  0.00    +0.000 A 
ATOM     31  C   UNL     1      41.112  -2.344  14.251  0.00  0.00    +0.000 A 
ATOM     32  C   UNL     1      40.488  -2.919  15.339  0.00  0.00    +0.000 A 
ENDBRANCH  26  27
ENDBRANCH  10  26
TORSDOF 8
ENDMDL
MODEL 4
REMARK VINA RESULT:      -7.4      4.253      6.950
REMARK  Name = 
REMARK  8 active torsions:
REMARK  status: ('A' for Active; 'I' for Inactive)
REMARK    1  A    between atoms: O_2  and  C_3
REMARK    2  A    between atoms: C_5  and  N_6
REMARK    3  A    between atoms: C_7  and  C_9
REMARK    4  A    between atoms: C_9  and  S_10
REMARK    5  A    between atoms: S_10  and  C_11
REMARK    6  A    between atoms: C_20  and  C_21
REMARK    7  A    between atoms: C_21  and  C_22
REMARK    8  A    between atoms: C_29  and  O_30
REMARK                            x       y       z     vdW  Elec       q    Type
REMARK                         _______ _______ _______ _____ _____    ______ ____
ROOT
ATOM      1  C   UNL     1      38.502   1.347  14.483  0.00  0.00    +0.000 A 
ATOM      2  N   UNL     1      39.849   1.206  14.330  0.00  0.00    +0.000 NA
ATOM      3  C   UNL     1      40.377  -0.009  14.384  0.00  0.00    +0.000 A 
ATOM      4  C   UNL     1      41.753  -0.111  14.224  0.00  0.00    +0.000 A 
ATOM      5  C   UNL     1      42.382  -1.331  14.265  0.00  0.00    +0.000 A 
ATOM      6  C   UNL     1      41.613  -2.451  14.471  0.00  0.00    +0.000 A 
ATOM      7  C   UNL     1      40.249  -2.346  14.629  0.00  0.00    +0.000 A 
ATOM      8  C   UNL     1      39.596  -1.121  14.590  0.00  0.00    +0.000 A 
ATOM      9  C   UNL     1      38.232  -1.013  14.748  0.00  0.00    +0.000 A 
ATOM     10  C   UNL     1      37.684   0.268  14.690  0.00  0.00    +0.000 A 
ENDROOT
BRANCH   1  11
ATOM     11  S   UNL     1      37.871   3.016  14.389  0.00  0.00    +0.000 S 
BRANCH  11  12
ATOM     12  C   UNL     1      39.159   4.249  14.626  0.00  0.00    +0.000 C 
BRANCH  12  14
ATOM     13  N   UNL     1      39.683   5.991  16.330  0.00  0.00    +0.000 NA
ATOM     14  C   UNL     1      39.099   4.750  16.011  0.00  0.00    +0.000 C 
ATOM     15  O   UNL     1      38.537   4.094  16.914  0.00  0.00    +0.000 OA
BRANCH  13  18
ATOM     16  C   UNL     1      38.640   7.670  19.463  0.00  0.00    +0.000 A 
ATOM     17  C   UNL     1      38.630   7.258  18.156  0.00  0.00    +0.000 A 
ATOM     18  C   UNL     1      39.620   6.459  17.665  0.00  0.00    +0.000 A 
ATOM     19  C   UNL     1      40.644   6.075  18.537  0.00  0.00    +0.000 A 
ATOM     20  C   UNL     1      40.684   6.473  19.852  0.00  0.00    +0.000 A 
ATOM     21  C   UNL     1      39.659   7.279  20.300  0.00  0.00    +0.000 A 
BRANCH  16  23
ATOM     22  C   UNL     1      37.952   9.657  20.647  0.00  0.00    +0.000 C 
ATOM     23  O   UNL     1      37.635   8.479  19.962  0.00  0.00    +0.000 OA
ENDBRANCH  16  23
BRANCH  20  24
ATOM     24  O   UNL     1      41.712   6.082  20.711  0.00  0.00    +0.000 OA
ATOM     25  C   UNL     1      42.859   6.890  20.894  0.00  0.00    +0.000 C 
ENDBRANCH  20  24
ENDBRANCH  13  18
ENDBRANCH  12  14
ENDBRANCH  11  12
ENDBRANCH   1  11
BRANCH  10  26
ATOM     26  C   UNL     1      36.219   0.484  14.860  0.00  0.00    +0.000 C 
BRANCH  26  27
ATOM     27  C   UNL     1      35.879   0.088  16.249  0.00  0.00    +0.000 A 
ATOM     28  C   UNL     1      35.151  -1.034  16.572  0.00  0.00    +0.000 A 
ATOM     29  C   UNL     1      34.839  -1.396  17.845  0.00  0.00    +0.000 A 
ATOM     30  C   UNL     1      35.255  -0.624  18.910  0.00  0.00    +0.000 A 
ATOM     31  C   UNL     1      35.987   0.511  18.623  0.00  0.00    +0.000 A 
ATOM     32  C   UNL     1      36.300   0.872  17.328  0.00  0.00    +0.000 A 
ENDBRANCH  26  27
ENDBRANCH  10  26
TORSDOF 8
ENDMDL
MODEL 5
REMARK VINA RESULT:      -7.4      4.196      7.120
REMARK  Name = 
REMARK  8 active torsions:
REMARK  status: ('A' for Active; 'I' for Inactive)
REMARK    1  A    between atoms: O_2  and  C_3
REMARK    2  A    between atoms: C_5  and  N_6
REMARK    3  A    between atoms: C_7  and  C_9
REMARK    4  A    between atoms: C_9  and  S_10
REMARK    5  A    between atoms: S_10  and  C_11
REMARK    6  A    between atoms: C_20  and  C_21
REMARK    7  A    between atoms: C_21  and  C_22
REMARK    8  A    between atoms: C_29  and  O_30
REMARK                            x       y       z     vdW  Elec       q    Type
REMARK                         _______ _______ _______ _____ _____    ______ ____
ROOT
ATOM      1  C   UNL     1      38.299   1.375  14.612  0.00  0.00    +0.000 A 
ATOM      2  N   UNL     1      39.646   1.294  14.417  0.00  0.00    +0.000 NA
ATOM      3  C   UNL     1      40.228   0.104  14.447  0.00  0.00    +0.000 A 
ATOM      4  C   UNL     1      41.601   0.063  14.242  0.00  0.00    +0.000 A 
ATOM      5  C   UNL     1      42.285  -1.128  14.256  0.00  0.00    +0.000 A 
ATOM      6  C   UNL     1      41.572  -2.282  14.477  0.00  0.00    +0.000 A 
ATOM      7  C   UNL     1      40.210  -2.238  14.678  0.00  0.00    +0.000 A 
ATOM      8  C   UNL     1      39.503  -1.043  14.668  0.00  0.00    +0.000 A 
ATOM      9  C   UNL     1      38.141  -0.997  14.870  0.00  0.00    +0.000 A 
ATOM     10  C   UNL     1      37.536   0.260  14.838  0.00  0.00    +0.000 A 
ENDROOT
BRANCH   1  11
ATOM     11  S   UNL     1      37.593   3.015  14.550  0.00  0.00    +0.000 S 
BRANCH  11  12
ATOM     12  C   UNL     1      38.842   4.303  14.678  0.00  0.00    +0.000 C 
BRANCH  12  14
ATOM     13  N   UNL     1      39.500   6.005  16.377  0.00  0.00    +0.000 NA
ATOM     14  C   UNL     1      38.931   4.751  16.080  0.00  0.00    +0.000 C 
ATOM     15  O   UNL     1      38.511   4.039  17.017  0.00  0.00    +0.000 OA
BRANCH  13  18
ATOM     16  C   UNL     1      40.574   6.484  19.889  0.00  0.00    +0.000 A 
ATOM     17  C   UNL     1      40.562   6.038  18.594  0.00  0.00    +0.000 A 
ATOM     18  C   UNL     1      39.582   6.422  17.727  0.00  0.00    +0.000 A 
ATOM     19  C   UNL     1      38.589   7.284  18.203  0.00  0.00    +0.000 A 
ATOM     20  C   UNL     1      38.571   7.749  19.497  0.00  0.00    +0.000 A 
ATOM     21  C   UNL     1      39.585   7.332  20.333  0.00  0.00    +0.000 A 
BRANCH  16  23
ATOM     22  C   UNL     1      42.876   6.567  20.608  0.00  0.00    +0.000 C 
ATOM     23  O   UNL     1      41.568   6.096  20.768  0.00  0.00    +0.000 OA
ENDBRANCH  16  23
BRANCH  20  24
ATOM     24  O   UNL     1      37.574   8.609  19.958  0.00  0.00    +0.000 OA
ATOM     25  C   UNL     1      37.849   9.972  20.222  0.00  0.00    +0.000 C 
ENDBRANCH  20  24
ENDBRANCH  13  18
ENDBRANCH  12  14
ENDBRANCH  11  12
ENDBRANCH   1  11
BRANCH  10  26
ATOM     26  C   UNL     1      36.069   0.410  15.055  0.00  0.00    +0.000 C 
BRANCH  26  27
ATOM     27  C   UNL     1      35.802   0.070  16.475  0.00  0.00    +0.000 A 
ATOM     28  C   UNL     1      36.269   0.803  17.541  0.00  0.00    +0.000 A 
ATOM     29  C   UNL     1      36.025   0.491  18.842  0.00  0.00    +0.000 A 
ATOM     30  C   UNL     1      35.271  -0.620  19.161  0.00  0.00    +0.000 A 
ATOM     31  C   UNL     1      34.788  -1.380  18.115  0.00  0.00    +0.000 A 
ATOM     32  C   UNL     1      35.039  -1.057  16.798  0.00  0.00    +0.000 A 
ENDBRANCH  26  27
ENDBRANCH  10  26
TORSDOF 8
ENDMDL
MODEL 6
REMARK VINA RESULT:      -7.4      3.089      8.493
REMARK  Name = 
REMARK  8 active torsions:
REMARK  status: ('A' for Active; 'I' for Inactive)
REMARK    1  A    between atoms: O_2  and  C_3
REMARK    2  A    between atoms: C_5  and  N_6
REMARK    3  A    between atoms: C_7  and  C_9
REMARK    4  A    between atoms: C_9  and  S_10
REMARK    5  A    between atoms: S_10  and  C_11
REMARK    6  A    between atoms: C_20  and  C_21
REMARK    7  A    between atoms: C_21  and  C_22
REMARK    8  A    between atoms: C_29  and  O_30
REMARK                            x       y       z     vdW  Elec       q    Type
REMARK                         _______ _______ _______ _____ _____    ______ ____
ROOT
ATOM      1  C   UNL     1      36.563   3.487  15.684  0.00  0.00    +0.000 A 
ATOM      2  N   UNL     1      37.089   3.594  16.937  0.00  0.00    +0.000 NA
ATOM      3  C   UNL     1      38.064   4.466  17.151  0.00  0.00    +0.000 A 
ATOM      4  C   UNL     1      38.573   4.546  18.440  0.00  0.00    +0.000 A 
ATOM      5  C   UNL     1      39.583   5.424  18.751  0.00  0.00    +0.000 A 
ATOM      6  C   UNL     1      40.079   6.223  17.749  0.00  0.00    +0.000 A 
ATOM      7  C   UNL     1      39.571   6.141  16.471  0.00  0.00    +0.000 A 
ATOM      8  C   UNL     1      38.550   5.261  16.140  0.00  0.00    +0.000 A 
ATOM      9  C   UNL     1      38.040   5.178  14.862  0.00  0.00    +0.000 A 
ATOM     10  C   UNL     1      37.016   4.257  14.645  0.00  0.00    +0.000 A 
ENDROOT
BRANCH   1  11
ATOM     11  S   UNL     1      35.250   2.293  15.483  0.00  0.00    +0.000 S 
BRANCH  11  12
ATOM     12  C   UNL     1      35.142   1.153  16.870  0.00  0.00    +0.000 C 
BRANCH  12  14
ATOM     13  N   UNL     1      37.296  -0.097  16.984  0.00  0.00    +0.000 NA
ATOM     14  C   UNL     1      35.949  -0.044  16.574  0.00  0.00    +0.000 C 
ATOM     15  O   UNL     1      35.463  -1.021  15.964  0.00  0.00    +0.000 OA
BRANCH  13  18
ATOM     16  C   UNL     1      39.440  -2.609  15.308  0.00  0.00    +0.000 A 
ATOM     17  C   UNL     1      38.719  -1.463  15.516  0.00  0.00    +0.000 A 
ATOM     18  C   UNL     1      38.060  -1.252  16.692  0.00  0.00    +0.000 A 
ATOM     19  C   UNL     1      38.143  -2.242  17.675  0.00  0.00    +0.000 A 
ATOM     20  C   UNL     1      38.857  -3.404  17.496  0.00  0.00    +0.000 A 
ATOM     21  C   UNL     1      39.506  -3.569  16.291  0.00  0.00    +0.000 A 
BRANCH  16  23
ATOM     22  C   UNL     1      41.348  -2.216  13.882  0.00  0.00    +0.000 C 
ATOM     23  O   UNL     1      40.109  -2.823  14.116  0.00  0.00    +0.000 OA
ENDBRANCH  16  23
BRANCH  20  24
ATOM     24  O   UNL     1      38.931  -4.384  18.487  0.00  0.00    +0.000 OA
ATOM     25  C   UNL     1      38.956  -4.038  19.858  0.00  0.00    +0.000 C 
ENDBRANCH  20  24
ENDBRANCH  13  18
ENDBRANCH  12  14
ENDBRANCH  11  12
ENDBRANCH   1  11
BRANCH  10  26
ATOM     26  C   UNL     1      36.409   4.090  13.294  0.00  0.00    +0.000 C 
BRANCH  26  27
ATOM     27  C   UNL     1      35.592   5.301  13.032  0.00  0.00    +0.000 A 
ATOM     28  C   UNL     1      34.597   5.752  13.868  0.00  0.00    +0.000 A 
ATOM     29  C   UNL     1      33.848   6.862  13.628  0.00  0.00    +0.000 A 
ATOM     30  C   UNL     1      34.062   7.612  12.490  0.00  0.00    +0.000 A 
ATOM     31  C   UNL     1      35.053   7.188  11.627  0.00  0.00    +0.000 A 
ATOM     32  C   UNL     1      35.808   6.061  11.878  0.00  0.00    +0.000 A 
ENDBRANCH  26  27
ENDBRANCH  10  26
TORSDOF 8
ENDMDL
MODEL 7
REMARK VINA RESULT:      -7.4      3.554      7.852
REMARK  Name = 
REMARK  8 active torsions:
REMARK  status: ('A' for Active; 'I' for Inactive)
REMARK    1  A    between atoms: O_2  and  C_3
REMARK    2  A    between atoms: C_5  and  N_6
REMARK    3  A    between atoms: C_7  and  C_9
REMARK    4  A    between atoms: C_9  and  S_10
REMARK    5  A    between atoms: S_10  and  C_11
REMARK    6  A    between atoms: C_20  and  C_21
REMARK    7  A    between atoms: C_21  and  C_22
REMARK    8  A    between atoms: C_29  and  O_30
REMARK                            x       y       z     vdW  Elec       q    Type
REMARK                         _______ _______ _______ _____ _____    ______ ____
ROOT
ATOM      1  C   UNL     1      38.106   4.399  16.089  0.00  0.00    +0.000 A 
ATOM      2  N   UNL     1      38.162   4.814  17.386  0.00  0.00    +0.000 NA
ATOM      3  C   UNL     1      39.236   5.468  17.805  0.00  0.00    +0.000 A 
ATOM      4  C   UNL     1      39.255   5.874  19.132  0.00  0.00    +0.000 A 
ATOM      5  C   UNL     1      40.328   6.557  19.650  0.00  0.00    +0.000 A 
ATOM      6  C   UNL     1      41.386   6.830  18.816  0.00  0.00    +0.000 A 
ATOM      7  C   UNL     1      41.363   6.426  17.499  0.00  0.00    +0.000 A 
ATOM      8  C   UNL     1      40.287   5.734  16.960  0.00  0.00    +0.000 A 
ATOM      9  C   UNL     1      40.263   5.329  15.643  0.00  0.00    +0.000 A 
ATOM     10  C   UNL     1      39.129   4.641  15.211  0.00  0.00    +0.000 A 
ENDROOT
BRANCH   1  11
ATOM     11  S   UNL     1      36.621   3.532  15.604  0.00  0.00    +0.000 S 
BRANCH  11  12
ATOM     12  C   UNL     1      36.071   2.364  16.857  0.00  0.00    +0.000 C 
BRANCH  12  14
ATOM     13  N   UNL     1      36.733   0.021  17.391  0.00  0.00    +0.000 NA
ATOM     14  C   UNL     1      36.414   0.997  16.426  0.00  0.00    +0.000 C 
ATOM     15  O   UNL     1      36.428   0.682  15.217  0.00  0.00    +0.000 OA
BRANCH  13  18
ATOM     16  C   UNL     1      38.576  -3.017  16.347  0.00  0.00    +0.000 A 
ATOM     17  C   UNL     1      38.336  -1.734  16.762  0.00  0.00    +0.000 A 
ATOM     18  C   UNL     1      37.063  -1.288  16.963  0.00  0.00    +0.000 A 
ATOM     19  C   UNL     1      36.012  -2.180  16.731  0.00  0.00    +0.000 A 
ATOM     20  C   UNL     1      36.219  -3.473  16.312  0.00  0.00    +0.000 A 
ATOM     21  C   UNL     1      37.524  -3.877  16.125  0.00  0.00    +0.000 A 
BRANCH  16  23
ATOM     22  C   UNL     1      40.668  -2.901  15.149  0.00  0.00    +0.000 C 
ATOM     23  O   UNL     1      39.867  -3.472  16.144  0.00  0.00    +0.000 OA
ENDBRANCH  16  23
BRANCH  20  24
ATOM     24  O   UNL     1      35.161  -4.353  16.084  0.00  0.00    +0.000 OA
ATOM     25  C   UNL     1      35.189  -5.269  15.006  0.00  0.00    +0.000 C 
ENDBRANCH  20  24
ENDBRANCH  13  18
ENDBRANCH  12  14
ENDBRANCH  11  12
ENDBRANCH   1  11
BRANCH  10  26
ATOM     26  C   UNL     1      39.017   4.155  13.806  0.00  0.00    +0.000 C 
BRANCH  26  27
ATOM     27  C   UNL     1      39.899   2.968  13.684  0.00  0.00    +0.000 A 
ATOM     28  C   UNL     1      39.681   1.778  14.340  0.00  0.00    +0.000 A 
ATOM     29  C   UNL     1      40.490   0.691  14.229  0.00  0.00    +0.000 A 
ATOM     30  C   UNL     1      41.610   0.736  13.424  0.00  0.00    +0.000 A 
ATOM     31  C   UNL     1      41.861   1.915  12.753  0.00  0.00    +0.000 A 
ATOM     32  C   UNL     1      41.035   3.015  12.869  0.00  0.00    +0.000 A 
ENDBRANCH  26  27
ENDBRANCH  10  26
TORSDOF 8
ENDMDL
MODEL 8
REMARK VINA RESULT:      -7.2      2.991      4.837
REMARK  Name = 
REMARK  8 active torsions:
REMARK  status: ('A' for Active; 'I' for Inactive)
REMARK    1  A    between atoms: O_2  and  C_3
REMARK    2  A    between atoms: C_5  and  N_6
REMARK    3  A    between atoms: C_7  and  C_9
REMARK    4  A    between atoms: C_9  and  S_10
REMARK    5  A    between atoms: S_10  and  C_11
REMARK    6  A    between atoms: C_20  and  C_21
REMARK    7  A    between atoms: C_21  and  C_22
REMARK    8  A    between atoms: C_29  and  O_30
REMARK                            x       y       z     vdW  Elec       q    Type
REMARK                         _______ _______ _______ _____ _____    ______ ____
ROOT
ATOM      1  C   UNL     1      37.561  -0.610  15.639  0.00  0.00    +0.000 A 
ATOM      2  N   UNL     1      37.066  -0.508  16.905  0.00  0.00    +0.000 NA
ATOM      3  C   UNL     1      37.462  -1.381  17.821  0.00  0.00    +0.000 A 
ATOM      4  C   UNL     1      36.936  -1.244  19.098  0.00  0.00    +0.000 A 
ATOM      5  C   UNL     1      37.292  -2.104  20.108  0.00  0.00    +0.000 A 
ATOM      6  C   UNL     1      38.185  -3.107  19.820  0.00  0.00    +0.000 A 
ATOM      7  C   UNL     1      38.706  -3.240  18.552  0.00  0.00    +0.000 A 
ATOM      8  C   UNL     1      38.357  -2.380  17.519  0.00  0.00    +0.000 A 
ATOM      9  C   UNL     1      38.876  -2.511  16.250  0.00  0.00    +0.000 A 
ATOM     10  C   UNL     1      38.454  -1.589  15.292  0.00  0.00    +0.000 A 
ENDROOT
BRANCH   1  11
ATOM     11  S   UNL     1      36.982   0.608  14.468  0.00  0.00    +0.000 S 
BRANCH  11  12
ATOM     12  C   UNL     1      35.879   1.813  15.222  0.00  0.00    +0.000 C 
BRANCH  12  14
ATOM     13  N   UNL     1      37.886   2.943  16.177  0.00  0.00    +0.000 NA
ATOM     14  C   UNL     1      36.639   3.038  15.528  0.00  0.00    +0.000 C 
ATOM     15  O   UNL     1      36.201   4.167  15.220  0.00  0.00    +0.000 OA
BRANCH  13  18
ATOM     16  C   UNL     1      40.020   5.959  15.916  0.00  0.00    +0.000 A 
ATOM     17  C   UNL     1      39.352   4.817  15.558  0.00  0.00    +0.000 A 
ATOM     18  C   UNL     1      38.604   4.128  16.467  0.00  0.00    +0.000 A 
ATOM     19  C   UNL     1      38.542   4.622  17.773  0.00  0.00    +0.000 A 
ATOM     20  C   UNL     1      39.202   5.764  18.164  0.00  0.00    +0.000 A 
ATOM     21  C   UNL     1      39.943   6.425  17.208  0.00  0.00    +0.000 A 
BRANCH  16  23
ATOM     22  C   UNL     1      41.620   7.695  15.414  0.00  0.00    +0.000 C 
ATOM     23  O   UNL     1      40.778   6.659  14.995  0.00  0.00    +0.000 OA
ENDBRANCH  16  23
BRANCH  20  24
ATOM     24  O   UNL     1      39.131   6.246  19.472  0.00  0.00    +0.000 OA
ATOM     25  C   UNL     1      40.184   7.009  20.028  0.00  0.00    +0.000 C 
ENDBRANCH  20  24
ENDBRANCH  13  18
ENDBRANCH  12  14
ENDBRANCH  11  12
ENDBRANCH   1  11
BRANCH  10  26
ATOM     26  C   UNL     1      38.955  -1.658  13.889  0.00  0.00    +0.000 C 
BRANCH  26  27
ATOM     27  C   UNL     1      40.406  -1.349  13.931  0.00  0.00    +0.000 A 
ATOM     28  C   UNL     1      40.918  -0.076  14.032  0.00  0.00    +0.000 A 
ATOM     29  C   UNL     1      42.247   0.207  14.070  0.00  0.00    +0.000 A 
ATOM     30  C   UNL     1      43.177  -0.811  14.003  0.00  0.00    +0.000 A 
ATOM     31  C   UNL     1      42.698  -2.101  13.899  0.00  0.00    +0.000 A 
ATOM     32  C   UNL     1      41.348  -2.381  13.862  0.00  0.00    +0.000 A 
ENDBRANCH  26  27
ENDBRANCH  10  26
TORSDOF 8
ENDMDL
MODEL 9
REMARK VINA RESULT:      -7.2      3.849      5.445
REMARK  Name = 
REMARK  8 active torsions:
REMARK  status: ('A' for Active; 'I' for Inactive)
REMARK    1  A    between atoms: O_2  and  C_3
REMARK    2  A    between atoms: C_5  and  N_6
REMARK    3  A    between atoms: C_7  and  C_9
REMARK    4  A    between atoms: C_9  and  S_10
REMARK    5  A    between atoms: S_10  and  C_11
REMARK    6  A    between atoms: C_20  and  C_21
REMARK    7  A    between atoms: C_21  and  C_22
REMARK    8  A    between atoms: C_29  and  O_30
REMARK                            x       y       z     vdW  Elec       q    Type
REMARK                         _______ _______ _______ _____ _____    ______ ____
ROOT
ATOM      1  C   UNL     1      36.886   1.266  14.479  0.00  0.00    +0.000 A 
ATOM      2  N   UNL     1      36.027   1.170  15.532  0.00  0.00    +0.000 NA
ATOM      3  C   UNL     1      35.621  -0.031  15.922  0.00  0.00    +0.000 A 
ATOM      4  C   UNL     1      34.747  -0.087  16.999  0.00  0.00    +0.000 A 
ATOM      5  C   UNL     1      34.277  -1.289  17.469  0.00  0.00    +0.000 A 
ATOM      6  C   UNL     1      34.696  -2.438  16.842  0.00  0.00    +0.000 A 
ATOM      7  C   UNL     1      35.564  -2.378  15.774  0.00  0.00    +0.000 A 
ATOM      8  C   UNL     1      36.049  -1.173  15.287  0.00  0.00    +0.000 A 
ATOM      9  C   UNL     1      36.917  -1.111  14.218  0.00  0.00    +0.000 A 
ATOM     10  C   UNL     1      37.338   0.156  13.814  0.00  0.00    +0.000 A 
ENDROOT
BRANCH   1  11
ATOM     11  S   UNL     1      37.389   2.919  14.023  0.00  0.00    +0.000 S 
BRANCH  11  12
ATOM     12  C   UNL     1      39.007   3.348  14.681  0.00  0.00    +0.000 C 
BRANCH  12  14
ATOM     13  N   UNL     1      39.456   5.330  16.125  0.00  0.00    +0.000 NA
ATOM     14  C   UNL     1      38.834   4.078  15.950  0.00  0.00    +0.000 C 
ATOM     15  O   UNL     1      38.142   3.609  16.879  0.00  0.00    +0.000 OA
BRANCH  13  18
ATOM     16  C   UNL     1      38.150   7.498  18.829  0.00  0.00    +0.000 A 
ATOM     17  C   UNL     1      38.248   6.866  17.618  0.00  0.00    +0.000 A 
ATOM     18  C   UNL     1      39.283   6.019  17.349  0.00  0.00    +0.000 A 
ATOM     19  C   UNL     1      40.240   5.818  18.349  0.00  0.00    +0.000 A 
ATOM     20  C   UNL     1      40.171   6.437  19.575  0.00  0.00    +0.000 A 
ATOM     21  C   UNL     1      39.104   7.283  19.797  0.00  0.00    +0.000 A 
BRANCH  16  23
ATOM     22  C   UNL     1      36.855   9.458  18.276  0.00  0.00    +0.000 C 
ATOM     23  O   UNL     1      37.100   8.356  19.103  0.00  0.00    +0.000 OA
ENDBRANCH  16  23
BRANCH  20  24
ATOM     24  O   UNL     1      41.132   6.226  20.563  0.00  0.00    +0.000 OA
ATOM     25  C   UNL     1      42.493   6.545  20.340  0.00  0.00    +0.000 C 
ENDBRANCH  20  24
ENDBRANCH  13  18
ENDBRANCH  12  14
ENDBRANCH  11  12
ENDBRANCH   1  11
BRANCH  10  26
ATOM     26  C   UNL     1      38.270   0.323  12.662  0.00  0.00    +0.000 C 
BRANCH  26  27
ATOM     27  C   UNL     1      39.493  -0.456  12.977  0.00  0.00    +0.000 A 
ATOM     28  C   UNL     1      40.341  -0.168  14.021  0.00  0.00    +0.000 A 
ATOM     29  C   UNL     1      41.462  -0.881  14.309  0.00  0.00    +0.000 A 
ATOM     30  C   UNL     1      41.812  -1.969  13.535  0.00  0.00    +0.000 A 
ATOM     31  C   UNL     1      40.984  -2.287  12.477  0.00  0.00    +0.000 A 
ATOM     32  C   UNL     1      39.848  -1.558  12.191  0.00  0.00    +0.000 A 
ENDBRANCH  26  27
ENDBRANCH  10  26
TORSDOF 8
ENDMDL
MODEL 10
REMARK VINA RESULT:      -7.2      3.312      7.828
REMARK  Name = 
REMARK  8 active torsions:
REMARK  status: ('A' for Active; 'I' for Inactive)
REMARK    1  A    between atoms: O_2  and  C_3
REMARK    2  A    between atoms: C_5  and  N_6
REMARK    3  A    between atoms: C_7  and  C_9
REMARK    4  A    between atoms: C_9  and  S_10
REMARK    5  A    between atoms: S_10  and  C_11
REMARK    6  A    between atoms: C_20  and  C_21
REMARK    7  A    between atoms: C_21  and  C_22
REMARK    8  A    between atoms: C_29  and  O_30
REMARK                            x       y       z     vdW  Elec       q    Type
REMARK                         _______ _______ _______ _____ _____    ______ ____
ROOT
ATOM      1  C   UNL     1      37.698   4.011  14.286  0.00  0.00    +0.000 A 
ATOM      2  N   UNL     1      38.831   4.680  14.644  0.00  0.00    +0.000 NA
ATOM      3  C   UNL     1      39.043   4.941  15.926  0.00  0.00    +0.000 A 
ATOM      4  C   UNL     1      40.208   5.623  16.251  0.00  0.00    +0.000 A 
ATOM      5  C   UNL     1      40.508   5.934  17.555  0.00  0.00    +0.000 A 
ATOM      6  C   UNL     1      39.622   5.551  18.532  0.00  0.00    +0.000 A 
ATOM      7  C   UNL     1      38.467   4.874  18.207  0.00  0.00    +0.000 A 
ATOM      8  C   UNL     1      38.149   4.551  16.895  0.00  0.00    +0.000 A 
ATOM      9  C   UNL     1      36.995   3.874  16.566  0.00  0.00    +0.000 A 
ATOM     10  C   UNL     1      36.778   3.604  15.215  0.00  0.00    +0.000 A 
ENDROOT
BRANCH   1  11
ATOM     11  S   UNL     1      37.492   3.694  12.540  0.00  0.00    +0.000 S 
BRANCH  11  12
ATOM     12  C   UNL     1      38.957   2.958  11.800  0.00  0.00    +0.000 C 
BRANCH  12  14
ATOM     13  N   UNL     1      40.211   1.384  13.270  0.00  0.00    +0.000 NA
ATOM     14  C   UNL     1      39.157   1.611  12.363  0.00  0.00    +0.000 C 
ATOM     15  O   UNL     1      38.408   0.660  12.054  0.00  0.00    +0.000 OA
BRANCH  13  18
ATOM     16  C   UNL     1      39.952  -1.680  15.336  0.00  0.00    +0.000 A 
ATOM     17  C   UNL     1      39.719  -0.409  14.879  0.00  0.00    +0.000 A 
ATOM     18  C   UNL     1      40.394   0.085  13.802  0.00  0.00    +0.000 A 
ATOM     19  C   UNL     1      41.331  -0.746  13.181  0.00  0.00    +0.000 A 
ATOM     20  C   UNL     1      41.590  -2.025  13.615  0.00  0.00    +0.000 A 
ATOM     21  C   UNL     1      40.880  -2.477  14.707  0.00  0.00    +0.000 A 
BRANCH  16  23
ATOM     22  C   UNL     1      39.064  -3.560  16.562  0.00  0.00    +0.000 C 
ATOM     23  O   UNL     1      39.267  -2.182  16.427  0.00  0.00    +0.000 OA
ENDBRANCH  16  23
BRANCH  20  24
ATOM     24  O   UNL     1      42.528  -2.843  12.985  0.00  0.00    +0.000 OA
ATOM     25  C   UNL     1      42.575  -2.950  11.574  0.00  0.00    +0.000 C 
ENDBRANCH  20  24
ENDBRANCH  13  18
ENDBRANCH  12  14
ENDBRANCH  11  12
ENDBRANCH   1  11
BRANCH  10  26
ATOM     26  C   UNL     1      35.553   2.884  14.764  0.00  0.00    +0.000 C 
BRANCH  26  27
ATOM     27  C   UNL     1      35.549   1.565  15.444  0.00  0.00    +0.000 A 
ATOM     28  C   UNL     1      34.917   1.319  16.641  0.00  0.00    +0.000 A 
ATOM     29  C   UNL     1      34.915   0.111  17.265  0.00  0.00    +0.000 A 
ATOM     30  C   UNL     1      35.573  -0.964  16.702  0.00  0.00    +0.000 A 
ATOM     31  C   UNL     1      36.219  -0.753  15.500  0.00  0.00    +0.000 A 
ATOM     32  C   UNL     1      36.217   0.476  14.873  0.00  0.00    +0.000 A 
ENDBRANCH  26  27
ENDBRANCH  10  26
TORSDOF 8
ENDMDL
