MODEL 1
REMARK VINA RESULT:      -6.7      0.000      0.000
REMARK  Name = 
REMARK  3 active torsions:
REMARK  status: ('A' for Active; 'I' for Inactive)
REMARK    1  A    between atoms: C_2  and  C_3
REMARK    2  A    between atoms: C_6  and  N_7
REMARK    3  A    between atoms: C_8  and  C_10
REMARK                            x       y       z     vdW  Elec       q    Type
REMARK                         _______ _______ _______ _____ _____    ______ ____
ROOT
ATOM      1  N   UNL     1      19.575  11.402  37.988  0.00  0.00    +0.000 NA
ATOM      2  C   UNL     1      20.367  10.449  37.316  0.00  0.00    +0.000 C 
ATOM      3  O   UNL     1      19.790   9.702  36.485  0.00  0.00    +0.000 OA
ENDROOT
BRANCH   2   4
ATOM      4  C   UNL     1      21.817  10.275  37.528  0.00  0.00    +0.000 C 
ATOM      5  C   UNL     1      22.412  11.662  37.797  0.00  0.00    +0.000 C 
ATOM      6  C   UNL     1      23.909  11.587  37.970  0.00  0.00    +0.000 C 
ATOM      7  C   UNL     1      24.484  11.007  36.699  0.00  0.00    +0.000 C 
ATOM      8  C   UNL     1      23.929   9.587  36.525  0.00  0.00    +0.000 C 
ATOM      9  C   UNL     1      24.241   8.751  37.750  0.00  0.00    +0.000 C 
ATOM     10  C   UNL     1      23.579   9.354  38.987  0.00  0.00    +0.000 C 
ATOM     11  C   UNL     1      24.198  10.727  39.178  0.00  0.00    +0.000 C 
ATOM     12  C   UNL     1      22.100   9.435  38.727  0.00  0.00    +0.000 C 
ATOM     13  C   UNL     1      22.418   9.659  36.294  0.00  0.00    +0.000 C 
ENDBRANCH   2   4
BRANCH   1  17
ATOM     14  C   UNL     1      15.468  11.775  37.246  0.00  0.00    +0.000 A 
ATOM     15  C   UNL     1      16.323  12.716  36.712  0.00  0.00    +0.000 A 
ATOM     16  C   UNL     1      17.668  12.562  36.976  0.00  0.00    +0.000 A 
ATOM     17  C   UNL     1      18.159  11.523  37.738  0.00  0.00    +0.000 A 
ATOM     18  C   UNL     1      17.264  10.608  38.249  0.00  0.00    +0.000 A 
ATOM     19  C   UNL     1      15.908  10.710  38.018  0.00  0.00    +0.000 A 
BRANCH  14  21
ATOM     20  N   UNL     1      12.912  11.960  36.825  0.00  0.00    +0.000 NA
ATOM     21  C   UNL     1      14.060  11.872  37.013  0.00  0.00    +0.000 C 
ENDBRANCH  14  21
ENDBRANCH   1  17
TORSDOF 3
ENDMDL
MODEL 2
REMARK VINA RESULT:      -6.5      0.447      2.020
REMARK  Name = 
REMARK  3 active torsions:
REMARK  status: ('A' for Active; 'I' for Inactive)
REMARK    1  A    between atoms: C_2  and  C_3
REMARK    2  A    between atoms: C_6  and  N_7
REMARK    3  A    between atoms: C_8  and  C_10
REMARK                            x       y       z     vdW  Elec       q    Type
REMARK                         _______ _______ _______ _____ _____    ______ ____
ROOT
ATOM      1  N   UNL     1      19.607  11.260  38.133  0.00  0.00    +0.000 NA
ATOM      2  C   UNL     1      20.444  10.446  37.342  0.00  0.00    +0.000 C 
ATOM      3  O   UNL     1      19.891   9.706  36.489  0.00  0.00    +0.000 OA
ENDROOT
BRANCH   2   4
ATOM      4  C   UNL     1      21.915  10.409  37.455  0.00  0.00    +0.000 C 
ATOM      5  C   UNL     1      22.269   9.369  38.524  0.00  0.00    +0.000 C 
ATOM      6  C   UNL     1      23.759   9.304  38.749  0.00  0.00    +0.000 C 
ATOM      7  C   UNL     1      24.213  10.679  39.182  0.00  0.00    +0.000 C 
ATOM      8  C   UNL     1      23.921  11.663  38.042  0.00  0.00    +0.000 C 
ATOM      9  C   UNL     1      24.589  11.195  36.765  0.00  0.00    +0.000 C 
ATOM     10  C   UNL     1      24.041   9.832  36.346  0.00  0.00    +0.000 C 
ATOM     11  C   UNL     1      24.407   8.864  37.457  0.00  0.00    +0.000 C 
ATOM     12  C   UNL     1      22.552   9.964  36.182  0.00  0.00    +0.000 C 
ATOM     13  C   UNL     1      22.407  11.776  37.846  0.00  0.00    +0.000 C 
ENDBRANCH   2   4
BRANCH   1  17
ATOM     14  C   UNL     1      15.440  11.216  37.690  0.00  0.00    +0.000 A 
ATOM     15  C   UNL     1      16.021  10.316  38.559  0.00  0.00    +0.000 A 
ATOM     16  C   UNL     1      17.395  10.358  38.680  0.00  0.00    +0.000 A 
ATOM     17  C   UNL     1      18.173  11.251  37.974  0.00  0.00    +0.000 A 
ATOM     18  C   UNL     1      17.545  12.132  37.119  0.00  0.00    +0.000 A 
ATOM     19  C   UNL     1      16.176  12.136  36.957  0.00  0.00    +0.000 A 
BRANCH  14  21
ATOM     20  N   UNL     1      12.864  11.231  37.366  0.00  0.00    +0.000 NA
ATOM     21  C   UNL     1      14.021  11.229  37.515  0.00  0.00    +0.000 C 
ENDBRANCH  14  21
ENDBRANCH   1  17
TORSDOF 3
ENDMDL
MODEL 3
REMARK VINA RESULT:      -6.2     15.061     16.283
REMARK  Name = 
REMARK  3 active torsions:
REMARK  status: ('A' for Active; 'I' for Inactive)
REMARK    1  A    between atoms: C_2  and  C_3
REMARK    2  A    between atoms: C_6  and  N_7
REMARK    3  A    between atoms: C_8  and  C_10
REMARK                            x       y       z     vdW  Elec       q    Type
REMARK                         _______ _______ _______ _____ _____    ______ ____
ROOT
ATOM      1  N   UNL     1      34.137   6.820  35.831  0.00  0.00    +0.000 NA
ATOM      2  C   UNL     1      35.341   7.523  35.625  0.00  0.00    +0.000 C 
ATOM      3  O   UNL     1      36.246   6.940  34.976  0.00  0.00    +0.000 OA
ENDROOT
BRANCH   2   4
ATOM      4  C   UNL     1      35.601   8.889  36.120  0.00  0.00    +0.000 C 
ATOM      5  C   UNL     1      36.166   9.703  34.951  0.00  0.00    +0.000 C 
ATOM      6  C   UNL     1      36.517  11.105  35.382  0.00  0.00    +0.000 C 
ATOM      7  C   UNL     1      37.539  10.997  36.490  0.00  0.00    +0.000 C 
ATOM      8  C   UNL     1      36.895  10.256  37.668  0.00  0.00    +0.000 C 
ATOM      9  C   UNL     1      35.628  10.967  38.101  0.00  0.00    +0.000 C 
ATOM     10  C   UNL     1      34.612  10.986  36.961  0.00  0.00    +0.000 C 
ATOM     11  C   UNL     1      35.246  11.785  35.837  0.00  0.00    +0.000 C 
ATOM     12  C   UNL     1      34.344   9.562  36.557  0.00  0.00    +0.000 C 
ATOM     13  C   UNL     1      36.587   8.815  37.254  0.00  0.00    +0.000 C 
ENDBRANCH   2   4
BRANCH   1  17
ATOM     14  C   UNL     1      33.564   2.950  34.328  0.00  0.00    +0.000 A 
ATOM     15  C   UNL     1      33.141   4.022  33.569  0.00  0.00    +0.000 A 
ATOM     16  C   UNL     1      33.346   5.281  34.095  0.00  0.00    +0.000 A 
ATOM     17  C   UNL     1      33.943   5.484  35.321  0.00  0.00    +0.000 A 
ATOM     18  C   UNL     1      34.348   4.380  36.041  0.00  0.00    +0.000 A 
ATOM     19  C   UNL     1      34.170   3.097  35.566  0.00  0.00    +0.000 A 
BRANCH  14  21
ATOM     20  N   UNL     1      33.245   0.527  33.449  0.00  0.00    +0.000 NA
ATOM     21  C   UNL     1      33.383   1.617  33.845  0.00  0.00    +0.000 C 
ENDBRANCH  14  21
ENDBRANCH   1  17
TORSDOF 3
ENDMDL
MODEL 4
REMARK VINA RESULT:      -6.1      4.462      5.860
REMARK  Name = 
REMARK  3 active torsions:
REMARK  status: ('A' for Active; 'I' for Inactive)
REMARK    1  A    between atoms: C_2  and  C_3
REMARK    2  A    between atoms: C_6  and  N_7
REMARK    3  A    between atoms: C_8  and  C_10
REMARK                            x       y       z     vdW  Elec       q    Type
REMARK                         _______ _______ _______ _____ _____    ______ ____
ROOT
ATOM      1  N   UNL     1      17.932   9.572  38.137  0.00  0.00    +0.000 NA
ATOM      2  C   UNL     1      17.074   9.691  39.249  0.00  0.00    +0.000 C 
ATOM      3  O   UNL     1      15.964  10.253  39.065  0.00  0.00    +0.000 OA
ENDROOT
BRANCH   2   4
ATOM      4  C   UNL     1      17.396   9.203  40.604  0.00  0.00    +0.000 C 
ATOM      5  C   UNL     1      16.228   9.583  41.520  0.00  0.00    +0.000 C 
ATOM      6  C   UNL     1      16.498   9.171  42.946  0.00  0.00    +0.000 C 
ATOM      7  C   UNL     1      17.762   9.870  43.389  0.00  0.00    +0.000 C 
ATOM      8  C   UNL     1      18.916   9.386  42.501  0.00  0.00    +0.000 C 
ATOM      9  C   UNL     1      19.023   7.876  42.562  0.00  0.00    +0.000 C 
ATOM     10  C   UNL     1      17.741   7.230  42.042  0.00  0.00    +0.000 C 
ATOM     11  C   UNL     1      16.631   7.666  42.980  0.00  0.00    +0.000 C 
ATOM     12  C   UNL     1      17.515   7.717  40.637  0.00  0.00    +0.000 C 
ATOM     13  C   UNL     1      18.676   9.849  41.062  0.00  0.00    +0.000 C 
ENDBRANCH   2   4
BRANCH   1  17
ATOM     14  C   UNL     1      16.850  10.997  34.347  0.00  0.00    +0.000 A 
ATOM     15  C   UNL     1      17.165   9.661  34.484  0.00  0.00    +0.000 A 
ATOM     16  C   UNL     1      17.516   9.226  35.746  0.00  0.00    +0.000 A 
ATOM     17  C   UNL     1      17.558  10.071  36.835  0.00  0.00    +0.000 A 
ATOM     18  C   UNL     1      17.235  11.398  36.646  0.00  0.00    +0.000 A 
ATOM     19  C   UNL     1      16.876  11.889  35.409  0.00  0.00    +0.000 A 
BRANCH  14  21
ATOM     20  N   UNL     1      16.179  11.935  32.020  0.00  0.00    +0.000 NA
ATOM     21  C   UNL     1      16.477  11.516  33.068  0.00  0.00    +0.000 C 
ENDBRANCH  14  21
ENDBRANCH   1  17
TORSDOF 3
ENDMDL
MODEL 5
REMARK VINA RESULT:      -6.0     17.695     19.038
REMARK  Name = 
REMARK  3 active torsions:
REMARK  status: ('A' for Active; 'I' for Inactive)
REMARK    1  A    between atoms: C_2  and  C_3
REMARK    2  A    between atoms: C_6  and  N_7
REMARK    3  A    between atoms: C_8  and  C_10
REMARK                            x       y       z     vdW  Elec       q    Type
REMARK                         _______ _______ _______ _____ _____    ______ ____
ROOT
ATOM      1  N   UNL     1      30.394  22.060  27.281  0.00  0.00    +0.000 NA
ATOM      2  C   UNL     1      30.845  23.022  28.207  0.00  0.00    +0.000 C 
ATOM      3  O   UNL     1      30.539  24.222  27.988  0.00  0.00    +0.000 OA
ENDROOT
BRANCH   2   4
ATOM      4  C   UNL     1      31.649  22.710  29.405  0.00  0.00    +0.000 C 
ATOM      5  C   UNL     1      32.532  23.929  29.697  0.00  0.00    +0.000 C 
ATOM      6  C   UNL     1      33.435  23.676  30.879  0.00  0.00    +0.000 C 
ATOM      7  C   UNL     1      34.289  22.474  30.549  0.00  0.00    +0.000 C 
ATOM      8  C   UNL     1      33.364  21.265  30.358  0.00  0.00    +0.000 C 
ATOM      9  C   UNL     1      32.509  21.062  31.593  0.00  0.00    +0.000 C 
ATOM     10  C   UNL     1      31.624  22.283  31.834  0.00  0.00    +0.000 C 
ATOM     11  C   UNL     1      32.563  23.448  32.091  0.00  0.00    +0.000 C 
ATOM     12  C   UNL     1      30.787  22.497  30.603  0.00  0.00    +0.000 C 
ATOM     13  C   UNL     1      32.484  21.490  29.127  0.00  0.00    +0.000 C 
ENDBRANCH   2   4
BRANCH   1  17
ATOM     14  C   UNL     1      28.098  23.129  23.942  0.00  0.00    +0.000 A 
ATOM     15  C   UNL     1      27.459  22.942  25.150  0.00  0.00    +0.000 A 
ATOM     16  C   UNL     1      28.245  22.591  26.228  0.00  0.00    +0.000 A 
ATOM     17  C   UNL     1      29.611  22.428  26.126  0.00  0.00    +0.000 A 
ATOM     18  C   UNL     1      30.203  22.627  24.897  0.00  0.00    +0.000 A 
ATOM     19  C   UNL     1      29.468  22.980  23.785  0.00  0.00    +0.000 A 
BRANCH  14  21
ATOM     20  N   UNL     1      26.723  23.795  21.842  0.00  0.00    +0.000 NA
ATOM     21  C   UNL     1      27.345  23.495  22.783  0.00  0.00    +0.000 C 
ENDBRANCH  14  21
ENDBRANCH   1  17
TORSDOF 3
ENDMDL
MODEL 6
REMARK VINA RESULT:      -6.0     21.703     23.851
REMARK  Name = 
REMARK  3 active torsions:
REMARK  status: ('A' for Active; 'I' for Inactive)
REMARK    1  A    between atoms: C_2  and  C_3
REMARK    2  A    between atoms: C_6  and  N_7
REMARK    3  A    between atoms: C_8  and  C_10
REMARK                            x       y       z     vdW  Elec       q    Type
REMARK                         _______ _______ _______ _____ _____    ______ ____
ROOT
ATOM      1  N   UNL     1      21.636  -7.663  24.211  0.00  0.00    +0.000 NA
ATOM      2  C   UNL     1      21.217  -8.296  25.399  0.00  0.00    +0.000 C 
ATOM      3  O   UNL     1      22.095  -8.888  26.078  0.00  0.00    +0.000 OA
ENDROOT
BRANCH   2   4
ATOM      4  C   UNL     1      19.826  -8.306  25.890  0.00  0.00    +0.000 C 
ATOM      5  C   UNL     1      19.846  -8.857  27.320  0.00  0.00    +0.000 C 
ATOM      6  C   UNL     1      18.451  -8.958  27.885  0.00  0.00    +0.000 C 
ATOM      7  C   UNL     1      17.660  -9.874  26.980  0.00  0.00    +0.000 C 
ATOM      8  C   UNL     1      17.592  -9.233  25.588  0.00  0.00    +0.000 C 
ATOM      9  C   UNL     1      17.000  -7.841  25.683  0.00  0.00    +0.000 C 
ATOM     10  C   UNL     1      17.878  -6.948  26.557  0.00  0.00    +0.000 C 
ATOM     11  C   UNL     1      17.869  -7.565  27.944  0.00  0.00    +0.000 C 
ATOM     12  C   UNL     1      19.258  -6.929  25.958  0.00  0.00    +0.000 C 
ATOM     13  C   UNL     1      18.998  -9.178  24.986  0.00  0.00    +0.000 C 
ENDBRANCH   2   4
BRANCH   1  17
ATOM     14  C   UNL     1      25.642  -7.714  22.983  0.00  0.00    +0.000 A 
ATOM     15  C   UNL     1      25.203  -6.661  23.758  0.00  0.00    +0.000 A 
ATOM     16  C   UNL     1      23.879  -6.676  24.145  0.00  0.00    +0.000 A 
ATOM     17  C   UNL     1      23.014  -7.688  23.784  0.00  0.00    +0.000 A 
ATOM     18  C   UNL     1      23.501  -8.719  23.009  0.00  0.00    +0.000 A 
ATOM     19  C   UNL     1      24.815  -8.757  22.593  0.00  0.00    +0.000 A 
BRANCH  14  21
ATOM     20  N   UNL     1      28.115  -7.809  22.197  0.00  0.00    +0.000 NA
ATOM     21  C   UNL     1      27.003  -7.763  22.547  0.00  0.00    +0.000 C 
ENDBRANCH  14  21
ENDBRANCH   1  17
TORSDOF 3
ENDMDL
MODEL 7
REMARK VINA RESULT:      -5.9     21.101     22.194
REMARK  Name = 
REMARK  3 active torsions:
REMARK  status: ('A' for Active; 'I' for Inactive)
REMARK    1  A    between atoms: C_2  and  C_3
REMARK    2  A    between atoms: C_6  and  N_7
REMARK    3  A    between atoms: C_8  and  C_10
REMARK                            x       y       z     vdW  Elec       q    Type
REMARK                         _______ _______ _______ _____ _____    ______ ____
ROOT
ATOM      1  N   UNL     1      24.217   3.588  16.346  0.00  0.00    +0.000 NA
ATOM      2  C   UNL     1      24.651   4.473  17.355  0.00  0.00    +0.000 C 
ATOM      3  O   UNL     1      23.857   4.704  18.301  0.00  0.00    +0.000 OA
ENDROOT
BRANCH   2   4
ATOM      4  C   UNL     1      25.969   5.137  17.365  0.00  0.00    +0.000 C 
ATOM      5  C   UNL     1      26.564   4.958  18.767  0.00  0.00    +0.000 C 
ATOM      6  C   UNL     1      27.893   5.659  18.888  0.00  0.00    +0.000 C 
ATOM      7  C   UNL     1      27.662   7.124  18.598  0.00  0.00    +0.000 C 
ATOM      8  C   UNL     1      27.156   7.255  17.156  0.00  0.00    +0.000 C 
ATOM      9  C   UNL     1      28.139   6.612  16.198  0.00  0.00    +0.000 C 
ATOM     10  C   UNL     1      28.279   5.122  16.501  0.00  0.00    +0.000 C 
ATOM     11  C   UNL     1      28.848   5.022  17.905  0.00  0.00    +0.000 C 
ATOM     12  C   UNL     1      26.913   4.500  16.403  0.00  0.00    +0.000 C 
ATOM     13  C   UNL     1      25.781   6.594  17.040  0.00  0.00    +0.000 C 
ENDBRANCH   2   4
BRANCH   1  17
ATOM     14  C   UNL     1      20.437   1.785  16.504  0.00  0.00    +0.000 A 
ATOM     15  C   UNL     1      21.169   1.886  17.669  0.00  0.00    +0.000 A 
ATOM     16  C   UNL     1      22.409   2.485  17.580  0.00  0.00    +0.000 A 
ATOM     17  C   UNL     1      22.914   2.968  16.392  0.00  0.00    +0.000 A 
ATOM     18  C   UNL     1      22.143   2.845  15.255  0.00  0.00    +0.000 A 
ATOM     19  C   UNL     1      20.897   2.255  15.283  0.00  0.00    +0.000 A 
BRANCH  14  21
ATOM     20  N   UNL     1      18.087   0.680  16.546  0.00  0.00    +0.000 NA
ATOM     21  C   UNL     1      19.144   1.176  16.523  0.00  0.00    +0.000 C 
ENDBRANCH  14  21
ENDBRANCH   1  17
TORSDOF 3
ENDMDL
MODEL 8
REMARK VINA RESULT:      -5.9     17.663     19.885
REMARK  Name = 
REMARK  3 active torsions:
REMARK  status: ('A' for Active; 'I' for Inactive)
REMARK    1  A    between atoms: C_2  and  C_3
REMARK    2  A    between atoms: C_6  and  N_7
REMARK    3  A    between atoms: C_8  and  C_10
REMARK                            x       y       z     vdW  Elec       q    Type
REMARK                         _______ _______ _______ _____ _____    ______ ____
ROOT
ATOM      1  N   UNL     1      29.556  23.642  27.066  0.00  0.00    +0.000 NA
ATOM      2  C   UNL     1      28.464  22.962  26.489  0.00  0.00    +0.000 C 
ATOM      3  O   UNL     1      28.188  21.822  26.942  0.00  0.00    +0.000 OA
ENDROOT
BRANCH   2   4
ATOM      4  C   UNL     1      27.634  23.500  25.393  0.00  0.00    +0.000 C 
ATOM      5  C   UNL     1      27.554  25.020  25.581  0.00  0.00    +0.000 C 
ATOM      6  C   UNL     1      26.673  25.652  24.533  0.00  0.00    +0.000 C 
ATOM      7  C   UNL     1      25.300  25.033  24.660  0.00  0.00    +0.000 C 
ATOM      8  C   UNL     1      25.422  23.531  24.373  0.00  0.00    +0.000 C 
ATOM      9  C   UNL     1      26.046  23.310  23.009  0.00  0.00    +0.000 C 
ATOM     10  C   UNL     1      27.453  23.900  22.966  0.00  0.00    +0.000 C 
ATOM     11  C   UNL     1      27.297  25.395  23.181  0.00  0.00    +0.000 C 
ATOM     12  C   UNL     1      28.258  23.255  24.061  0.00  0.00    +0.000 C 
ATOM     13  C   UNL     1      26.269  22.873  25.464  0.00  0.00    +0.000 C 
ENDBRANCH   2   4
BRANCH   1  17
ATOM     14  C   UNL     1      31.789  21.966  30.191  0.00  0.00    +0.000 A 
ATOM     15  C   UNL     1      30.702  22.755  30.506  0.00  0.00    +0.000 A 
ATOM     16  C   UNL     1      29.990  23.290  29.453  0.00  0.00    +0.000 A 
ATOM     17  C   UNL     1      30.330  23.061  28.136  0.00  0.00    +0.000 A 
ATOM     18  C   UNL     1      31.425  22.264  27.873  0.00  0.00    +0.000 A 
ATOM     19  C   UNL     1      32.174  21.702  28.885  0.00  0.00    +0.000 A 
BRANCH  14  21
ATOM     20  N   UNL     1      33.214  20.892  32.077  0.00  0.00    +0.000 NA
ATOM     21  C   UNL     1      32.572  21.378  31.232  0.00  0.00    +0.000 C 
ENDBRANCH  14  21
ENDBRANCH   1  17
TORSDOF 3
ENDMDL
MODEL 9
REMARK VINA RESULT:      -5.9     15.371     18.783
REMARK  Name = 
REMARK  3 active torsions:
REMARK  status: ('A' for Active; 'I' for Inactive)
REMARK    1  A    between atoms: C_2  and  C_3
REMARK    2  A    between atoms: C_6  and  N_7
REMARK    3  A    between atoms: C_8  and  C_10
REMARK                            x       y       z     vdW  Elec       q    Type
REMARK                         _______ _______ _______ _____ _____    ______ ____
ROOT
ATOM      1  N   UNL     1      34.166  -0.454  34.470  0.00  0.00    +0.000 NA
ATOM      2  C   UNL     1      33.092  -1.345  34.665  0.00  0.00    +0.000 C 
ATOM      3  O   UNL     1      31.959  -0.846  34.882  0.00  0.00    +0.000 OA
ENDROOT
BRANCH   2   4
ATOM      4  C   UNL     1      33.215  -2.816  34.631  0.00  0.00    +0.000 C 
ATOM      5  C   UNL     1      33.460  -3.224  33.174  0.00  0.00    +0.000 C 
ATOM      6  C   UNL     1      33.542  -4.723  33.035  0.00  0.00    +0.000 C 
ATOM      7  C   UNL     1      32.235  -5.298  33.530  0.00  0.00    +0.000 C 
ATOM      8  C   UNL     1      32.084  -4.940  35.014  0.00  0.00    +0.000 C 
ATOM      9  C   UNL     1      33.282  -5.439  35.796  0.00  0.00    +0.000 C 
ATOM     10  C   UNL     1      34.561  -4.774  35.291  0.00  0.00    +0.000 C 
ATOM     11  C   UNL     1      34.725  -5.203  33.845  0.00  0.00    +0.000 C 
ATOM     12  C   UNL     1      34.389  -3.285  35.421  0.00  0.00    +0.000 C 
ATOM     13  C   UNL     1      31.944  -3.423  35.158  0.00  0.00    +0.000 C 
ENDBRANCH   2   4
BRANCH   1  17
ATOM     14  C   UNL     1      33.624   3.700  34.577  0.00  0.00    +0.000 A 
ATOM     15  C   UNL     1      33.494   3.049  33.368  0.00  0.00    +0.000 A 
ATOM     16  C   UNL     1      33.679   1.682  33.370  0.00  0.00    +0.000 A 
ATOM     17  C   UNL     1      33.981   0.977  34.515  0.00  0.00    +0.000 A 
ATOM     18  C   UNL     1      34.100   1.674  35.699  0.00  0.00    +0.000 A 
ATOM     19  C   UNL     1      33.926   3.040  35.759  0.00  0.00    +0.000 A 
BRANCH  14  21
ATOM     20  N   UNL     1      33.294   6.273  34.701  0.00  0.00    +0.000 NA
ATOM     21  C   UNL     1      33.446   5.117  34.649  0.00  0.00    +0.000 C 
ENDBRANCH  14  21
ENDBRANCH   1  17
TORSDOF 3
ENDMDL
MODEL 10
REMARK VINA RESULT:      -5.8     19.188     20.447
REMARK  Name = 
REMARK  3 active torsions:
REMARK  status: ('A' for Active; 'I' for Inactive)
REMARK    1  A    between atoms: C_2  and  C_3
REMARK    2  A    between atoms: C_6  and  N_7
REMARK    3  A    between atoms: C_8  and  C_10
REMARK                            x       y       z     vdW  Elec       q    Type
REMARK                         _______ _______ _______ _____ _____    ______ ____
ROOT
ATOM      1  N   UNL     1      25.413  26.320  25.054  0.00  0.00    +0.000 NA
ATOM      2  C   UNL     1      25.900  25.141  24.454  0.00  0.00    +0.000 C 
ATOM      3  O   UNL     1      25.143  24.137  24.455  0.00  0.00    +0.000 OA
ENDROOT
BRANCH   2   4
ATOM      4  C   UNL     1      27.232  25.015  23.831  0.00  0.00    +0.000 C 
ATOM      5  C   UNL     1      28.265  24.956  24.962  0.00  0.00    +0.000 C 
ATOM      6  C   UNL     1      29.669  24.884  24.414  0.00  0.00    +0.000 C 
ATOM      7  C   UNL     1      29.889  26.114  23.565  0.00  0.00    +0.000 C 
ATOM      8  C   UNL     1      28.893  26.078  22.399  0.00  0.00    +0.000 C 
ATOM      9  C   UNL     1      29.050  24.787  21.620  0.00  0.00    +0.000 C 
ATOM     10  C   UNL     1      28.752  23.586  22.515  0.00  0.00    +0.000 C 
ATOM     11  C   UNL     1      29.794  23.605  23.618  0.00  0.00    +0.000 C 
ATOM     12  C   UNL     1      27.357  23.748  23.055  0.00  0.00    +0.000 C 
ATOM     13  C   UNL     1      27.469  26.207  22.944  0.00  0.00    +0.000 C 
ENDBRANCH   2   4
BRANCH   1  17
ATOM     14  C   UNL     1      21.606  26.488  26.799  0.00  0.00    +0.000 A 
ATOM     15  C   UNL     1      22.666  26.056  27.569  0.00  0.00    +0.000 A 
ATOM     16  C   UNL     1      23.905  26.014  26.962  0.00  0.00    +0.000 A 
ATOM     17  C   UNL     1      24.099  26.381  25.647  0.00  0.00    +0.000 A 
ATOM     18  C   UNL     1      23.007  26.807  24.920  0.00  0.00    +0.000 A 
ATOM     19  C   UNL     1      21.745  26.870  25.473  0.00  0.00    +0.000 A 
BRANCH  14  21
ATOM     20  N   UNL     1      19.222  26.605  27.822  0.00  0.00    +0.000 NA
ATOM     21  C   UNL     1      20.294  26.557  27.363  0.00  0.00    +0.000 C 
ENDBRANCH  14  21
ENDBRANCH   1  17
TORSDOF 3
ENDMDL
