MODEL 1
REMARK VINA RESULT:      -6.2      0.000      0.000
REMARK  Name = 
REMARK  4 active torsions:
REMARK  status: ('A' for Active; 'I' for Inactive)
REMARK    1  A    between atoms: C_2  and  C_3
REMARK    2  A    between atoms: C_3  and  N_4
REMARK    3  A    between atoms: C_8  and  C_9
REMARK    4  A    between atoms: C_12  and  O_13
REMARK                            x       y       z     vdW  Elec       q    Type
REMARK                         _______ _______ _______ _____ _____    ______ ____
ROOT
ATOM      1  N   UNL     1      14.473  12.924  32.544  0.00  0.00    +0.000 NA
ATOM      2  C   UNL     1      15.091  12.401  33.699  0.00  0.00    +0.000 C 
ATOM      3  N   UNL     1      16.131  11.654  33.591  0.00  0.00    +0.000 NA
ATOM      4  N   UNL     1      16.795  11.103  34.659  0.00  0.00    +0.000 NA
ATOM      5  C   UNL     1      16.528  11.208  36.020  0.00  0.00    +0.000 C 
ATOM      6  C   UNL     1      15.516  11.912  36.477  0.00  0.00    +0.000 C 
ATOM      7  S   UNL     1      14.459  12.753  35.329  0.00  0.00    +0.000 S 
ENDROOT
BRANCH   5   8
ATOM      8  C   UNL     1      17.389  10.519  37.015  0.00  0.00    +0.000 A 
ATOM      9  C   UNL     1      16.883  10.321  38.276  0.00  0.00    +0.000 A 
ATOM     10  C   UNL     1      17.587   9.698  39.275  0.00  0.00    +0.000 A 
ATOM     11  C   UNL     1      18.844   9.264  38.978  0.00  0.00    +0.000 A 
ATOM     12  C   UNL     1      19.390   9.447  37.714  0.00  0.00    +0.000 A 
ATOM     13  C   UNL     1      18.640  10.086  36.723  0.00  0.00    +0.000 A 
BRANCH  11  14
ATOM     14  O   UNL     1      19.575   8.634  39.961  0.00  0.00    +0.000 OA
ATOM     15  C   UNL     1      18.966   7.793  40.907  0.00  0.00    +0.000 C 
ENDBRANCH  11  14
ENDBRANCH   5   8
BRANCH   1  16
ATOM     16  C   UNL     1      14.762  12.421  31.216  0.00  0.00    +0.000 C 
BRANCH  16  18
ATOM     17  C   UNL     1      16.651  13.670  30.262  0.00  0.00    +0.000 C 
ATOM     18  C   UNL     1      15.357  13.435  30.342  0.00  0.00    +0.000 C 
ENDBRANCH  16  18
ENDBRANCH   1  16
TORSDOF 4
ENDMDL
MODEL 2
REMARK VINA RESULT:      -6.0     19.489     21.108
REMARK  Name = 
REMARK  4 active torsions:
REMARK  status: ('A' for Active; 'I' for Inactive)
REMARK    1  A    between atoms: C_2  and  C_3
REMARK    2  A    between atoms: C_3  and  N_4
REMARK    3  A    between atoms: C_8  and  C_9
REMARK    4  A    between atoms: C_12  and  O_13
REMARK                            x       y       z     vdW  Elec       q    Type
REMARK                         _______ _______ _______ _____ _____    ______ ____
ROOT
ATOM      1  N   UNL     1      33.004  -4.421  33.527  0.00  0.00    +0.000 NA
ATOM      2  C   UNL     1      33.056  -3.055  33.871  0.00  0.00    +0.000 C 
ATOM      3  N   UNL     1      33.753  -2.239  33.164  0.00  0.00    +0.000 NA
ATOM      4  N   UNL     1      33.860  -0.896  33.425  0.00  0.00    +0.000 NA
ATOM      5  C   UNL     1      33.287  -0.140  34.442  0.00  0.00    +0.000 C 
ATOM      6  C   UNL     1      32.505  -0.680  35.350  0.00  0.00    +0.000 C 
ATOM      7  S   UNL     1      32.170  -2.419  35.281  0.00  0.00    +0.000 S 
ENDROOT
BRANCH   5   8
ATOM      8  C   UNL     1      33.542   1.320  34.536  0.00  0.00    +0.000 A 
ATOM      9  C   UNL     1      33.479   2.060  33.382  0.00  0.00    +0.000 A 
ATOM     10  C   UNL     1      33.697   3.414  33.349  0.00  0.00    +0.000 A 
ATOM     11  C   UNL     1      33.986   4.031  34.529  0.00  0.00    +0.000 A 
ATOM     12  C   UNL     1      34.059   3.314  35.717  0.00  0.00    +0.000 A 
ATOM     13  C   UNL     1      33.831   1.936  35.709  0.00  0.00    +0.000 A 
BRANCH  11  14
ATOM     14  O   UNL     1      34.209   5.390  34.527  0.00  0.00    +0.000 OA
ATOM     15  C   UNL     1      35.398   5.943  35.029  0.00  0.00    +0.000 C 
ENDBRANCH  11  14
ENDBRANCH   5   8
BRANCH   1  16
ATOM     16  C   UNL     1      33.937  -5.022  32.595  0.00  0.00    +0.000 C 
BRANCH  16  18
ATOM     17  C   UNL     1      34.058  -5.597  30.209  0.00  0.00    +0.000 C 
ATOM     18  C   UNL     1      33.365  -5.207  31.259  0.00  0.00    +0.000 C 
ENDBRANCH  16  18
ENDBRANCH   1  16
TORSDOF 4
ENDMDL
MODEL 3
REMARK VINA RESULT:      -5.6      1.761      2.596
REMARK  Name = 
REMARK  4 active torsions:
REMARK  status: ('A' for Active; 'I' for Inactive)
REMARK    1  A    between atoms: C_2  and  C_3
REMARK    2  A    between atoms: C_3  and  N_4
REMARK    3  A    between atoms: C_8  and  C_9
REMARK    4  A    between atoms: C_12  and  O_13
REMARK                            x       y       z     vdW  Elec       q    Type
REMARK                         _______ _______ _______ _____ _____    ______ ____
ROOT
ATOM      1  N   UNL     1      15.565  11.796  33.715  0.00  0.00    +0.000 NA
ATOM      2  C   UNL     1      15.767  11.443  35.065  0.00  0.00    +0.000 C 
ATOM      3  N   UNL     1      16.802  10.762  35.406  0.00  0.00    +0.000 NA
ATOM      4  N   UNL     1      17.077  10.375  36.694  0.00  0.00    +0.000 NA
ATOM      5  C   UNL     1      16.360  10.605  37.862  0.00  0.00    +0.000 C 
ATOM      6  C   UNL     1      15.233  11.283  37.863  0.00  0.00    +0.000 C 
ATOM      7  S   UNL     1      14.607  11.922  36.332  0.00  0.00    +0.000 S 
ENDROOT
BRANCH   5   8
ATOM      8  C   UNL     1      16.849  10.088  39.166  0.00  0.00    +0.000 A 
ATOM      9  C   UNL     1      18.204   9.943  39.333  0.00  0.00    +0.000 A 
ATOM     10  C   UNL     1      18.768   9.474  40.492  0.00  0.00    +0.000 A 
ATOM     11  C   UNL     1      17.924   9.144  41.511  0.00  0.00    +0.000 A 
ATOM     12  C   UNL     1      16.548   9.276  41.377  0.00  0.00    +0.000 A 
ATOM     13  C   UNL     1      16.012   9.758  40.181  0.00  0.00    +0.000 A 
BRANCH  11  14
ATOM     14  O   UNL     1      18.462   8.671  42.687  0.00  0.00    +0.000 OA
ATOM     15  C   UNL     1      18.508   7.298  42.977  0.00  0.00    +0.000 C 
ENDBRANCH  11  14
ENDBRANCH   5   8
BRANCH   1  16
ATOM     16  C   UNL     1      16.303  11.174  32.634  0.00  0.00    +0.000 C 
BRANCH  16  18
ATOM     17  C   UNL     1      14.640  11.398  30.838  0.00  0.00    +0.000 C 
ATOM     18  C   UNL     1      15.431  10.650  31.579  0.00  0.00    +0.000 C 
ENDBRANCH  16  18
ENDBRANCH   1  16
TORSDOF 4
ENDMDL
MODEL 4
REMARK VINA RESULT:      -5.4     21.282     24.360
REMARK  Name = 
REMARK  4 active torsions:
REMARK  status: ('A' for Active; 'I' for Inactive)
REMARK    1  A    between atoms: C_2  and  C_3
REMARK    2  A    between atoms: C_3  and  N_4
REMARK    3  A    between atoms: C_8  and  C_9
REMARK    4  A    between atoms: C_12  and  O_13
REMARK                            x       y       z     vdW  Elec       q    Type
REMARK                         _______ _______ _______ _____ _____    ______ ____
ROOT
ATOM      1  N   UNL     1      30.566  28.337  17.556  0.00  0.00    +0.000 NA
ATOM      2  C   UNL     1      30.119  27.687  18.724  0.00  0.00    +0.000 C 
ATOM      3  N   UNL     1      30.218  26.411  18.831  0.00  0.00    +0.000 NA
ATOM      4  N   UNL     1      29.809  25.698  19.930  0.00  0.00    +0.000 NA
ATOM      5  C   UNL     1      29.229  26.144  21.112  0.00  0.00    +0.000 C 
ATOM      6  C   UNL     1      28.986  27.418  21.328  0.00  0.00    +0.000 C 
ATOM      7  S   UNL     1      29.407  28.603  20.079  0.00  0.00    +0.000 S 
ENDROOT
BRANCH   5   8
ATOM      8  C   UNL     1      28.861  25.185  22.184  0.00  0.00    +0.000 A 
ATOM      9  C   UNL     1      27.527  24.940  22.398  0.00  0.00    +0.000 A 
ATOM     10  C   UNL     1      27.070  24.075  23.360  0.00  0.00    +0.000 A 
ATOM     11  C   UNL     1      28.003  23.440  24.125  0.00  0.00    +0.000 A 
ATOM     12  C   UNL     1      29.361  23.664  23.939  0.00  0.00    +0.000 A 
ATOM     13  C   UNL     1      29.786  24.552  22.948  0.00  0.00    +0.000 A 
BRANCH  11  14
ATOM     14  O   UNL     1      27.574  22.565  25.099  0.00  0.00    +0.000 OA
ATOM     15  C   UNL     1      26.747  22.983  26.153  0.00  0.00    +0.000 C 
ENDBRANCH  11  14
ENDBRANCH   5   8
BRANCH   1  16
ATOM     16  C   UNL     1      30.857  27.616  16.332  0.00  0.00    +0.000 C 
BRANCH  16  18
ATOM     17  C   UNL     1      28.955  26.427  15.328  0.00  0.00    +0.000 C 
ATOM     18  C   UNL     1      29.695  27.510  15.446  0.00  0.00    +0.000 C 
ENDBRANCH  16  18
ENDBRANCH   1  16
TORSDOF 4
ENDMDL
MODEL 5
REMARK VINA RESULT:      -5.2     19.400     20.687
REMARK  Name = 
REMARK  4 active torsions:
REMARK  status: ('A' for Active; 'I' for Inactive)
REMARK    1  A    between atoms: C_2  and  C_3
REMARK    2  A    between atoms: C_3  and  N_4
REMARK    3  A    between atoms: C_8  and  C_9
REMARK    4  A    between atoms: C_12  and  O_13
REMARK                            x       y       z     vdW  Elec       q    Type
REMARK                         _______ _______ _______ _____ _____    ______ ____
ROOT
ATOM      1  N   UNL     1      34.296   4.599  35.497  0.00  0.00    +0.000 NA
ATOM      2  C   UNL     1      34.005   3.279  35.096  0.00  0.00    +0.000 C 
ATOM      3  N   UNL     1      33.994   2.330  35.963  0.00  0.00    +0.000 NA
ATOM      4  N   UNL     1      33.722   1.019  35.662  0.00  0.00    +0.000 NA
ATOM      5  C   UNL     1      33.414   0.434  34.439  0.00  0.00    +0.000 C 
ATOM      6  C   UNL     1      33.344   1.138  33.331  0.00  0.00    +0.000 C 
ATOM      7  S   UNL     1      33.649   2.884  33.395  0.00  0.00    +0.000 S 
ENDROOT
BRANCH   5   8
ATOM      8  C   UNL     1      33.152  -1.025  34.341  0.00  0.00    +0.000 A 
ATOM      9  C   UNL     1      32.220  -1.569  35.189  0.00  0.00    +0.000 A 
ATOM     10  C   UNL     1      31.898  -2.903  35.189  0.00  0.00    +0.000 A 
ATOM     11  C   UNL     1      32.545  -3.703  34.296  0.00  0.00    +0.000 A 
ATOM     12  C   UNL     1      33.494  -3.188  33.422  0.00  0.00    +0.000 A 
ATOM     13  C   UNL     1      33.794  -1.825  33.453  0.00  0.00    +0.000 A 
BRANCH  11  14
ATOM     14  O   UNL     1      32.241  -5.047  34.272  0.00  0.00    +0.000 OA
ATOM     15  C   UNL     1      33.090  -5.984  33.665  0.00  0.00    +0.000 C 
ENDBRANCH  11  14
ENDBRANCH   5   8
BRANCH   1  16
ATOM     16  C   UNL     1      34.884   4.906  36.785  0.00  0.00    +0.000 C 
BRANCH  16  18
ATOM     17  C   UNL     1      37.282   5.198  36.335  0.00  0.00    +0.000 C 
ATOM     18  C   UNL     1      36.112   5.698  36.675  0.00  0.00    +0.000 C 
ENDBRANCH  16  18
ENDBRANCH   1  16
TORSDOF 4
ENDMDL
MODEL 6
REMARK VINA RESULT:      -5.2     19.389     21.130
REMARK  Name = 
REMARK  4 active torsions:
REMARK  status: ('A' for Active; 'I' for Inactive)
REMARK    1  A    between atoms: C_2  and  C_3
REMARK    2  A    between atoms: C_3  and  N_4
REMARK    3  A    between atoms: C_8  and  C_9
REMARK    4  A    between atoms: C_12  and  O_13
REMARK                            x       y       z     vdW  Elec       q    Type
REMARK                         _______ _______ _______ _____ _____    ______ ____
ROOT
ATOM      1  N   UNL     1      32.498  21.501  31.598  0.00  0.00    +0.000 NA
ATOM      2  C   UNL     1      31.769  21.823  30.435  0.00  0.00    +0.000 C 
ATOM      3  N   UNL     1      32.217  21.486  29.279  0.00  0.00    +0.000 NA
ATOM      4  N   UNL     1      31.576  21.759  28.097  0.00  0.00    +0.000 NA
ATOM      5  C   UNL     1      30.372  22.417  27.871  0.00  0.00    +0.000 C 
ATOM      6  C   UNL     1      29.648  22.896  28.858  0.00  0.00    +0.000 C 
ATOM      7  S   UNL     1      30.219  22.700  30.525  0.00  0.00    +0.000 S 
ENDROOT
BRANCH   5   8
ATOM      8  C   UNL     1      29.857  22.603  26.491  0.00  0.00    +0.000 A 
ATOM      9  C   UNL     1      28.502  22.741  26.322  0.00  0.00    +0.000 A 
ATOM     10  C   UNL     1      27.915  22.917  25.095  0.00  0.00    +0.000 A 
ATOM     11  C   UNL     1      28.736  22.955  24.008  0.00  0.00    +0.000 A 
ATOM     12  C   UNL     1      30.112  22.818  24.139  0.00  0.00    +0.000 A 
ATOM     13  C   UNL     1      30.672  22.641  25.407  0.00  0.00    +0.000 A 
BRANCH  11  14
ATOM     14  O   UNL     1      28.175  23.132  22.762  0.00  0.00    +0.000 OA
ATOM     15  C   UNL     1      28.627  24.130  21.885  0.00  0.00    +0.000 C 
ENDBRANCH  11  14
ENDBRANCH   5   8
BRANCH   1  16
ATOM     16  C   UNL     1      33.882  21.075  31.551  0.00  0.00    +0.000 C 
BRANCH  16  18
ATOM     17  C   UNL     1      35.175  23.139  31.227  0.00  0.00    +0.000 C 
ATOM     18  C   UNL     1      34.813  22.122  31.981  0.00  0.00    +0.000 C 
ENDBRANCH  16  18
ENDBRANCH   1  16
TORSDOF 4
ENDMDL
MODEL 7
REMARK VINA RESULT:      -5.1      8.629     12.291
REMARK  Name = 
REMARK  4 active torsions:
REMARK  status: ('A' for Active; 'I' for Inactive)
REMARK    1  A    between atoms: C_2  and  C_3
REMARK    2  A    between atoms: C_3  and  N_4
REMARK    3  A    between atoms: C_8  and  C_9
REMARK    4  A    between atoms: C_12  and  O_13
REMARK                            x       y       z     vdW  Elec       q    Type
REMARK                         _______ _______ _______ _____ _____    ______ ____
ROOT
ATOM      1  N   UNL     1      23.115  -0.268  40.858  0.00  0.00    +0.000 NA
ATOM      2  C   UNL     1      22.327   0.894  40.987  0.00  0.00    +0.000 C 
ATOM      3  N   UNL     1      21.118   0.904  40.553  0.00  0.00    +0.000 NA
ATOM      4  N   UNL     1      20.281   1.988  40.637  0.00  0.00    +0.000 NA
ATOM      5  C   UNL     1      20.514   3.251  41.170  0.00  0.00    +0.000 C 
ATOM      6  C   UNL     1      21.671   3.575  41.704  0.00  0.00    +0.000 C 
ATOM      7  S   UNL     1      22.973   2.372  41.745  0.00  0.00    +0.000 S 
ENDROOT
BRANCH   5   8
ATOM      8  C   UNL     1      19.451   4.288  41.155  0.00  0.00    +0.000 A 
ATOM      9  C   UNL     1      19.479   5.224  40.151  0.00  0.00    +0.000 A 
ATOM     10  C   UNL     1      18.551   6.227  40.038  0.00  0.00    +0.000 A 
ATOM     11  C   UNL     1      17.564   6.276  40.977  0.00  0.00    +0.000 A 
ATOM     12  C   UNL     1      17.504   5.346  42.008  0.00  0.00    +0.000 A 
ATOM     13  C   UNL     1      18.468   4.339  42.088  0.00  0.00    +0.000 A 
BRANCH  11  14
ATOM     14  O   UNL     1      16.616   7.272  40.888  0.00  0.00    +0.000 OA
ATOM     15  C   UNL     1      16.975   8.628  40.845  0.00  0.00    +0.000 C 
ENDBRANCH  11  14
ENDBRANCH   5   8
BRANCH   1  16
ATOM     16  C   UNL     1      22.742  -1.365  39.987  0.00  0.00    +0.000 C 
BRANCH  16  18
ATOM     17  C   UNL     1      24.478  -2.593  38.756  0.00  0.00    +0.000 C 
ATOM     18  C   UNL     1      23.796  -2.375  39.861  0.00  0.00    +0.000 C 
ENDBRANCH  16  18
ENDBRANCH   1  16
TORSDOF 4
ENDMDL
MODEL 8
REMARK VINA RESULT:      -4.9     20.127     22.450
REMARK  Name = 
REMARK  4 active torsions:
REMARK  status: ('A' for Active; 'I' for Inactive)
REMARK    1  A    between atoms: C_2  and  C_3
REMARK    2  A    between atoms: C_3  and  N_4
REMARK    3  A    between atoms: C_8  and  C_9
REMARK    4  A    between atoms: C_12  and  O_13
REMARK                            x       y       z     vdW  Elec       q    Type
REMARK                         _______ _______ _______ _____ _____    ______ ____
ROOT
ATOM      1  N   UNL     1      33.128  -6.849  34.185  0.00  0.00    +0.000 NA
ATOM      2  C   UNL     1      33.123  -5.439  34.213  0.00  0.00    +0.000 C 
ATOM      3  N   UNL     1      33.521  -4.773  33.189  0.00  0.00    +0.000 NA
ATOM      4  N   UNL     1      33.550  -3.402  33.129  0.00  0.00    +0.000 NA
ATOM      5  C   UNL     1      33.185  -2.463  34.087  0.00  0.00    +0.000 C 
ATOM      6  C   UNL     1      32.728  -2.819  35.268  0.00  0.00    +0.000 C 
ATOM      7  S   UNL     1      32.572  -4.543  35.652  0.00  0.00    +0.000 S 
ENDROOT
BRANCH   5   8
ATOM      8  C   UNL     1      33.300  -1.010  33.806  0.00  0.00    +0.000 A 
ATOM      9  C   UNL     1      34.214  -0.606  32.865  0.00  0.00    +0.000 A 
ATOM     10  C   UNL     1      34.407   0.709  32.525  0.00  0.00    +0.000 A 
ATOM     11  C   UNL     1      33.643   1.639  33.164  0.00  0.00    +0.000 A 
ATOM     12  C   UNL     1      32.708   1.269  34.122  0.00  0.00    +0.000 A 
ATOM     13  C   UNL     1      32.541  -0.081  34.440  0.00  0.00    +0.000 A 
BRANCH  11  14
ATOM     14  O   UNL     1      33.814   2.968  32.842  0.00  0.00    +0.000 OA
ATOM     15  C   UNL     1      33.683   3.982  33.804  0.00  0.00    +0.000 C 
ENDBRANCH  11  14
ENDBRANCH   5   8
BRANCH   1  16
ATOM     16  C   UNL     1      33.844  -7.601  33.174  0.00  0.00    +0.000 C 
BRANCH  16  18
ATOM     17  C   UNL     1      33.303  -8.478  30.943  0.00  0.00    +0.000 C 
ATOM     18  C   UNL     1      32.954  -8.215  32.186  0.00  0.00    +0.000 C 
ENDBRANCH  16  18
ENDBRANCH   1  16
TORSDOF 4
ENDMDL
MODEL 9
REMARK VINA RESULT:      -4.9     21.340     24.384
REMARK  Name = 
REMARK  4 active torsions:
REMARK  status: ('A' for Active; 'I' for Inactive)
REMARK    1  A    between atoms: C_2  and  C_3
REMARK    2  A    between atoms: C_3  and  N_4
REMARK    3  A    between atoms: C_8  and  C_9
REMARK    4  A    between atoms: C_12  and  O_13
REMARK                            x       y       z     vdW  Elec       q    Type
REMARK                         _______ _______ _______ _____ _____    ______ ____
ROOT
ATOM      1  N   UNL     1      30.126  28.365  17.691  0.00  0.00    +0.000 NA
ATOM      2  C   UNL     1      29.634  27.673  18.816  0.00  0.00    +0.000 C 
ATOM      3  N   UNL     1      30.205  26.591  19.208  0.00  0.00    +0.000 NA
ATOM      4  N   UNL     1      29.794  25.854  20.290  0.00  0.00    +0.000 NA
ATOM      5  C   UNL     1      28.737  26.076  21.166  0.00  0.00    +0.000 C 
ATOM      6  C   UNL     1      27.940  27.115  21.042  0.00  0.00    +0.000 C 
ATOM      7  S   UNL     1      28.218  28.266  19.723  0.00  0.00    +0.000 S 
ENDROOT
BRANCH   5   8
ATOM      8  C   UNL     1      28.470  25.137  22.285  0.00  0.00    +0.000 A 
ATOM      9  C   UNL     1      29.537  24.475  22.838  0.00  0.00    +0.000 A 
ATOM     10  C   UNL     1      29.410  23.584  23.874  0.00  0.00    +0.000 A 
ATOM     11  C   UNL     1      28.155  23.364  24.359  0.00  0.00    +0.000 A 
ATOM     12  C   UNL     1      27.051  24.015  23.824  0.00  0.00    +0.000 A 
ATOM     13  C   UNL     1      27.222  24.915  22.770  0.00  0.00    +0.000 A 
BRANCH  11  14
ATOM     14  O   UNL     1      27.997  22.475  25.400  0.00  0.00    +0.000 OA
ATOM     15  C   UNL     1      28.911  22.414  26.463  0.00  0.00    +0.000 C 
ENDBRANCH  11  14
ENDBRANCH   5   8
BRANCH   1  16
ATOM     16  C   UNL     1      31.061  27.765  16.760  0.00  0.00    +0.000 C 
BRANCH  16  18
ATOM     17  C   UNL     1      32.880  28.942  17.918  0.00  0.00    +0.000 C 
ATOM     18  C   UNL     1      32.400  28.352  16.843  0.00  0.00    +0.000 C 
ENDBRANCH  16  18
ENDBRANCH   1  16
TORSDOF 4
ENDMDL
MODEL 10
REMARK VINA RESULT:      -4.8     21.260     21.856
REMARK  Name = 
REMARK  4 active torsions:
REMARK  status: ('A' for Active; 'I' for Inactive)
REMARK    1  A    between atoms: C_2  and  C_3
REMARK    2  A    between atoms: C_3  and  N_4
REMARK    3  A    between atoms: C_8  and  C_9
REMARK    4  A    between atoms: C_12  and  O_13
REMARK                            x       y       z     vdW  Elec       q    Type
REMARK                         _______ _______ _______ _____ _____    ______ ____
ROOT
ATOM      1  N   UNL     1      21.279  -6.166  24.837  0.00  0.00    +0.000 NA
ATOM      2  C   UNL     1      20.370  -6.822  25.692  0.00  0.00    +0.000 C 
ATOM      3  N   UNL     1      20.602  -8.026  26.076  0.00  0.00    +0.000 NA
ATOM      4  N   UNL     1      19.774  -8.740  26.906  0.00  0.00    +0.000 NA
ATOM      5  C   UNL     1      18.570  -8.367  27.494  0.00  0.00    +0.000 C 
ATOM      6  C   UNL     1      18.043  -7.178  27.302  0.00  0.00    +0.000 C 
ATOM      7  S   UNL     1      18.887  -6.015  26.264  0.00  0.00    +0.000 S 
ENDROOT
BRANCH   5   8
ATOM      8  C   UNL     1      17.831  -9.311  28.370  0.00  0.00    +0.000 A 
ATOM      9  C   UNL     1      18.108  -9.293  29.715  0.00  0.00    +0.000 A 
ATOM     10  C   UNL     1      17.488 -10.120  30.617  0.00  0.00    +0.000 A 
ATOM     11  C   UNL     1      16.557 -10.989  30.133  0.00  0.00    +0.000 A 
ATOM     12  C   UNL     1      16.251 -11.037  28.779  0.00  0.00    +0.000 A 
ATOM     13  C   UNL     1      16.904 -10.179  27.892  0.00  0.00    +0.000 A 
BRANCH  11  14
ATOM     14  O   UNL     1      15.918 -11.831  31.017  0.00  0.00    +0.000 OA
ATOM     15  C   UNL     1      14.833 -11.397  31.794  0.00  0.00    +0.000 C 
ENDBRANCH  11  14
ENDBRANCH   5   8
BRANCH   1  16
ATOM     16  C   UNL     1      22.315  -6.877  24.115  0.00  0.00    +0.000 C 
BRANCH  16  18
ATOM     17  C   UNL     1      24.740  -6.740  23.742  0.00  0.00    +0.000 C 
ATOM     18  C   UNL     1      23.656  -6.349  24.380  0.00  0.00    +0.000 C 
ENDBRANCH  16  18
ENDBRANCH   1  16
TORSDOF 4
ENDMDL
