MODEL 1
REMARK VINA RESULT:      -7.9      0.000      0.000
REMARK  Name = 
REMARK  3 active torsions:
REMARK  status: ('A' for Active; 'I' for Inactive)
REMARK    1  A    between atoms: C_2  and  N_3
REMARK    2  A    between atoms: N_3  and  N_4
REMARK    3  A    between atoms: C_5  and  C_7
REMARK                            x       y       z     vdW  Elec       q    Type
REMARK                         _______ _______ _______ _____ _____    ______ ____
ROOT
ATOM      1  C   UNL     1      16.362  10.930  34.630  0.00  0.00    +0.000 A 
ATOM      2  C   UNL     1      16.553  11.092  33.262  0.00  0.00    +0.000 A 
ATOM      3  C   UNL     1      15.768  11.958  32.534  0.00  0.00    +0.000 A 
ATOM      4  C   UNL     1      15.951  12.144  31.170  0.00  0.00    +0.000 A 
ATOM      5  C   UNL     1      15.184  13.016  30.427  0.00  0.00    +0.000 A 
ATOM      6  C   UNL     1      14.195  13.713  31.131  0.00  0.00    +0.000 A 
ATOM      7  C   UNL     1      14.009  13.531  32.490  0.00  0.00    +0.000 A 
ATOM      8  C   UNL     1      14.790  12.654  33.207  0.00  0.00    +0.000 A 
ATOM      9  C   UNL     1      14.600  12.487  34.584  0.00  0.00    +0.000 A 
ATOM     10  C   UNL     1      15.385  11.620  35.312  0.00  0.00    +0.000 A 
ATOM     11  O   UNL     1      15.178  11.470  36.674  0.00  0.00    +0.000 OA
ENDROOT
BRANCH   1  13
ATOM     12  N   UNL     1      18.146  10.614  36.348  0.00  0.00    +0.000 NA
ATOM     13  C   UNL     1      17.250  10.040  35.372  0.00  0.00    +0.000 C 
ATOM     14  O   UNL     1      17.249   8.795  35.185  0.00  0.00    +0.000 OA
BRANCH  12  15
ATOM     15  N   UNL     1      18.981   9.699  37.071  0.00  0.00    +0.000 NA
BRANCH  15  17
ATOM     16  C   UNL     1      19.766  10.846  39.114  0.00  0.00    +0.000 C 
ATOM     17  C   UNL     1      20.084  10.262  37.796  0.00  0.00    +0.000 C 
ATOM     18  C   UNL     1      21.301  10.264  37.347  0.00  0.00    +0.000 C 
ATOM     19  C   UNL     1      22.751  10.588  37.477  0.00  0.00    +0.000 C 
ATOM     20  C   UNL     1      22.290   9.923  36.269  0.00  0.00    +0.000 C 
ENDBRANCH  15  17
ENDBRANCH  12  15
ENDBRANCH   1  13
TORSDOF 3
ENDMDL
MODEL 2
REMARK VINA RESULT:      -7.6      1.409      2.213
REMARK  Name = 
REMARK  3 active torsions:
REMARK  status: ('A' for Active; 'I' for Inactive)
REMARK    1  A    between atoms: C_2  and  N_3
REMARK    2  A    between atoms: N_3  and  N_4
REMARK    3  A    between atoms: C_5  and  C_7
REMARK                            x       y       z     vdW  Elec       q    Type
REMARK                         _______ _______ _______ _____ _____    ______ ____
ROOT
ATOM      1  C   UNL     1      16.099  11.318  34.820  0.00  0.00    +0.000 A 
ATOM      2  C   UNL     1      16.227  11.364  33.436  0.00  0.00    +0.000 A 
ATOM      3  C   UNL     1      15.438  12.199  32.677  0.00  0.00    +0.000 A 
ATOM      4  C   UNL     1      15.561  12.269  31.295  0.00  0.00    +0.000 A 
ATOM      5  C   UNL     1      14.788  13.108  30.521  0.00  0.00    +0.000 A 
ATOM      6  C   UNL     1      13.859  13.896  31.210  0.00  0.00    +0.000 A 
ATOM      7  C   UNL     1      13.734  13.829  32.587  0.00  0.00    +0.000 A 
ATOM      8  C   UNL     1      14.519  12.983  33.336  0.00  0.00    +0.000 A 
ATOM      9  C   UNL     1      14.390  12.933  34.730  0.00  0.00    +0.000 A 
ATOM     10  C   UNL     1      15.181  12.097  35.488  0.00  0.00    +0.000 A 
ATOM     11  O   UNL     1      15.035  12.062  36.865  0.00  0.00    +0.000 OA
ENDROOT
BRANCH   1  13
ATOM     12  N   UNL     1      17.889  11.067  36.541  0.00  0.00    +0.000 NA
ATOM     13  C   UNL     1      16.991  10.456  35.589  0.00  0.00    +0.000 C 
ATOM     14  O   UNL     1      16.992   9.205  35.447  0.00  0.00    +0.000 OA
BRANCH  12  15
ATOM     15  N   UNL     1      18.728  10.179  37.294  0.00  0.00    +0.000 NA
BRANCH  15  17
ATOM     16  C   UNL     1      19.904  11.568  38.965  0.00  0.00    +0.000 C 
ATOM     17  C   UNL     1      18.931  10.496  38.679  0.00  0.00    +0.000 C 
ATOM     18  C   UNL     1      18.302   9.898  39.642  0.00  0.00    +0.000 C 
ATOM     19  C   UNL     1      17.999   9.693  41.088  0.00  0.00    +0.000 C 
ATOM     20  C   UNL     1      17.314   8.866  40.108  0.00  0.00    +0.000 C 
ENDBRANCH  15  17
ENDBRANCH  12  15
ENDBRANCH   1  13
TORSDOF 3
ENDMDL
MODEL 3
REMARK VINA RESULT:      -7.1      2.080      7.360
REMARK  Name = 
REMARK  3 active torsions:
REMARK  status: ('A' for Active; 'I' for Inactive)
REMARK    1  A    between atoms: C_2  and  N_3
REMARK    2  A    between atoms: N_3  and  N_4
REMARK    3  A    between atoms: C_5  and  C_7
REMARK                            x       y       z     vdW  Elec       q    Type
REMARK                         _______ _______ _______ _____ _____    ______ ____
ROOT
ATOM      1  C   UNL     1      16.899  11.293  37.257  0.00  0.00    +0.000 A 
ATOM      2  C   UNL     1      18.272  11.132  37.109  0.00  0.00    +0.000 A 
ATOM      3  C   UNL     1      19.001  10.383  38.006  0.00  0.00    +0.000 A 
ATOM      4  C   UNL     1      20.370  10.200  37.868  0.00  0.00    +0.000 A 
ATOM      5  C   UNL     1      21.113   9.443  38.749  0.00  0.00    +0.000 A 
ATOM      6  C   UNL     1      20.404   8.862  39.807  0.00  0.00    +0.000 A 
ATOM      7  C   UNL     1      19.039   9.043  39.948  0.00  0.00    +0.000 A 
ATOM      8  C   UNL     1      18.322   9.803  39.053  0.00  0.00    +0.000 A 
ATOM      9  C   UNL     1      16.939   9.968  39.201  0.00  0.00    +0.000 A 
ATOM     10  C   UNL     1      16.211  10.718  38.302  0.00  0.00    +0.000 A 
ATOM     11  O   UNL     1      14.845  10.870  38.469  0.00  0.00    +0.000 OA
ENDROOT
BRANCH   1  13
ATOM     12  N   UNL     1      15.685  11.364  35.078  0.00  0.00    +0.000 NA
ATOM     13  C   UNL     1      16.159  12.053  36.255  0.00  0.00    +0.000 C 
ATOM     14  O   UNL     1      15.924  13.282  36.393  0.00  0.00    +0.000 OA
BRANCH  12  15
ATOM     15  N   UNL     1      14.940  12.145  34.132  0.00  0.00    +0.000 NA
BRANCH  15  17
ATOM     16  C   UNL     1      16.239  10.906  32.435  0.00  0.00    +0.000 C 
ATOM     17  C   UNL     1      15.276  11.979  32.747  0.00  0.00    +0.000 C 
ATOM     18  C   UNL     1      14.770  12.710  31.802  0.00  0.00    +0.000 C 
ATOM     19  C   UNL     1      14.626  13.092  30.367  0.00  0.00    +0.000 C 
ATOM     20  C   UNL     1      13.869  13.830  31.365  0.00  0.00    +0.000 C 
ENDBRANCH  15  17
ENDBRANCH  12  15
ENDBRANCH   1  13
TORSDOF 3
ENDMDL
MODEL 4
REMARK VINA RESULT:      -7.0     19.369     21.924
REMARK  Name = 
REMARK  3 active torsions:
REMARK  status: ('A' for Active; 'I' for Inactive)
REMARK    1  A    between atoms: C_2  and  N_3
REMARK    2  A    between atoms: N_3  and  N_4
REMARK    3  A    between atoms: C_5  and  C_7
REMARK                            x       y       z     vdW  Elec       q    Type
REMARK                         _______ _______ _______ _____ _____    ______ ____
ROOT
ATOM      1  C   UNL     1      33.860  -1.885  34.469  0.00  0.00    +0.000 A 
ATOM      2  C   UNL     1      33.967  -1.009  33.394  0.00  0.00    +0.000 A 
ATOM      3  C   UNL     1      33.859   0.352  33.573  0.00  0.00    +0.000 A 
ATOM      4  C   UNL     1      33.977   1.243  32.515  0.00  0.00    +0.000 A 
ATOM      5  C   UNL     1      33.885   2.609  32.678  0.00  0.00    +0.000 A 
ATOM      6  C   UNL     1      33.662   3.056  33.986  0.00  0.00    +0.000 A 
ATOM      7  C   UNL     1      33.545   2.171  35.043  0.00  0.00    +0.000 A 
ATOM      8  C   UNL     1      33.641   0.812  34.852  0.00  0.00    +0.000 A 
ATOM      9  C   UNL     1      33.532  -0.073  35.932  0.00  0.00    +0.000 A 
ATOM     10  C   UNL     1      33.640  -1.434  35.751  0.00  0.00    +0.000 A 
ATOM     11  O   UNL     1      33.526  -2.291  36.834  0.00  0.00    +0.000 OA
ENDROOT
BRANCH   1  13
ATOM     12  N   UNL     1      33.371  -3.918  33.105  0.00  0.00    +0.000 NA
ATOM     13  C   UNL     1      34.030  -3.317  34.240  0.00  0.00    +0.000 C 
ATOM     14  O   UNL     1      34.736  -4.031  35.000  0.00  0.00    +0.000 OA
BRANCH  12  15
ATOM     15  N   UNL     1      33.587  -5.322  32.905  0.00  0.00    +0.000 NA
BRANCH  15  17
ATOM     16  C   UNL     1      35.783  -6.108  32.088  0.00  0.00    +0.000 C 
ATOM     17  C   UNL     1      34.398  -5.700  31.782  0.00  0.00    +0.000 C 
ATOM     18  C   UNL     1      33.961  -5.699  30.561  0.00  0.00    +0.000 C 
ATOM     19  C   UNL     1      34.145  -5.926  29.098  0.00  0.00    +0.000 C 
ATOM     20  C   UNL     1      32.856  -5.453  29.574  0.00  0.00    +0.000 C 
ENDBRANCH  15  17
ENDBRANCH  12  15
ENDBRANCH   1  13
TORSDOF 3
ENDMDL
MODEL 5
REMARK VINA RESULT:      -7.0     19.376     21.111
REMARK  Name = 
REMARK  3 active torsions:
REMARK  status: ('A' for Active; 'I' for Inactive)
REMARK    1  A    between atoms: C_2  and  N_3
REMARK    2  A    between atoms: N_3  and  N_4
REMARK    3  A    between atoms: C_5  and  C_7
REMARK                            x       y       z     vdW  Elec       q    Type
REMARK                         _______ _______ _______ _____ _____    ______ ____
ROOT
ATOM      1  C   UNL     1      28.677  23.197  24.351  0.00  0.00    +0.000 A 
ATOM      2  C   UNL     1      27.551  23.489  25.113  0.00  0.00    +0.000 A 
ATOM      3  C   UNL     1      27.529  23.250  26.469  0.00  0.00    +0.000 A 
ATOM      4  C   UNL     1      26.420  23.546  27.249  0.00  0.00    +0.000 A 
ATOM      5  C   UNL     1      26.385  23.325  28.610  0.00  0.00    +0.000 A 
ATOM      6  C   UNL     1      27.544  22.777  29.171  0.00  0.00    +0.000 A 
ATOM      7  C   UNL     1      28.651  22.480  28.397  0.00  0.00    +0.000 A 
ATOM      8  C   UNL     1      28.659  22.711  27.040  0.00  0.00    +0.000 A 
ATOM      9  C   UNL     1      29.791  22.417  26.270  0.00  0.00    +0.000 A 
ATOM     10  C   UNL     1      29.812  22.656  24.913  0.00  0.00    +0.000 A 
ATOM     11  O   UNL     1      30.942  22.356  24.171  0.00  0.00    +0.000 OA
ENDROOT
BRANCH   1  13
ATOM     12  N   UNL     1      29.668  24.431  22.421  0.00  0.00    +0.000 NA
ATOM     13  C   UNL     1      28.674  23.514  22.926  0.00  0.00    +0.000 C 
ATOM     14  O   UNL     1      27.836  23.007  22.135  0.00  0.00    +0.000 OA
BRANCH  12  15
ATOM     15  N   UNL     1      29.644  24.693  21.011  0.00  0.00    +0.000 NA
BRANCH  15  17
ATOM     16  C   UNL     1      30.006  26.572  19.447  0.00  0.00    +0.000 C 
ATOM     17  C   UNL     1      29.273  26.018  20.603  0.00  0.00    +0.000 C 
ATOM     18  C   UNL     1      28.347  26.708  21.193  0.00  0.00    +0.000 C 
ATOM     19  C   UNL     1      27.513  27.936  21.340  0.00  0.00    +0.000 C 
ATOM     20  C   UNL     1      27.305  26.836  22.268  0.00  0.00    +0.000 C 
ENDBRANCH  15  17
ENDBRANCH  12  15
ENDBRANCH   1  13
TORSDOF 3
ENDMDL
MODEL 6
REMARK VINA RESULT:      -7.0     28.108     30.082
REMARK  Name = 
REMARK  3 active torsions:
REMARK  status: ('A' for Active; 'I' for Inactive)
REMARK    1  A    between atoms: C_2  and  N_3
REMARK    2  A    between atoms: N_3  and  N_4
REMARK    3  A    between atoms: C_5  and  C_7
REMARK                            x       y       z     vdW  Elec       q    Type
REMARK                         _______ _______ _______ _____ _____    ______ ____
ROOT
ATOM      1  C   UNL     1      31.116  22.035  11.471  0.00  0.00    +0.000 A 
ATOM      2  C   UNL     1      30.575  22.774  12.518  0.00  0.00    +0.000 A 
ATOM      3  C   UNL     1      29.219  22.990  12.608  0.00  0.00    +0.000 A 
ATOM      4  C   UNL     1      28.658  23.713  13.652  0.00  0.00    +0.000 A 
ATOM      5  C   UNL     1      27.301  23.928  13.766  0.00  0.00    +0.000 A 
ATOM      6  C   UNL     1      26.506  23.372  12.756  0.00  0.00    +0.000 A 
ATOM      7  C   UNL     1      27.062  22.651  11.714  0.00  0.00    +0.000 A 
ATOM      8  C   UNL     1      28.420  22.451  11.626  0.00  0.00    +0.000 A 
ATOM      9  C   UNL     1      28.968  21.709  10.572  0.00  0.00    +0.000 A 
ATOM     10  C   UNL     1      30.326  21.493  10.483  0.00  0.00    +0.000 A 
ATOM     11  O   UNL     1      30.846  20.758   9.430  0.00  0.00    +0.000 OA
ENDROOT
BRANCH   1  13
ATOM     12  N   UNL     1      33.394  22.683  10.680  0.00  0.00    +0.000 NA
ATOM     13  C   UNL     1      32.555  21.788  11.443  0.00  0.00    +0.000 C 
ATOM     14  O   UNL     1      33.076  20.826  12.066  0.00  0.00    +0.000 OA
BRANCH  12  15
ATOM     15  N   UNL     1      34.804  22.418  10.702  0.00  0.00    +0.000 NA
BRANCH  15  17
ATOM     16  C   UNL     1      35.144  24.644   9.687  0.00  0.00    +0.000 C 
ATOM     17  C   UNL     1      35.678  23.539  10.506  0.00  0.00    +0.000 C 
ATOM     18  C   UNL     1      36.869  23.606  11.015  0.00  0.00    +0.000 C 
ATOM     19  C   UNL     1      38.164  24.309  11.243  0.00  0.00    +0.000 C 
ATOM     20  C   UNL     1      37.971  22.995  11.832  0.00  0.00    +0.000 C 
ENDBRANCH  15  17
ENDBRANCH  12  15
ENDBRANCH   1  13
TORSDOF 3
ENDMDL
MODEL 7
REMARK VINA RESULT:      -6.9     21.173     22.506
REMARK  Name = 
REMARK  3 active torsions:
REMARK  status: ('A' for Active; 'I' for Inactive)
REMARK    1  A    between atoms: C_2  and  N_3
REMARK    2  A    between atoms: N_3  and  N_4
REMARK    3  A    between atoms: C_5  and  C_7
REMARK                            x       y       z     vdW  Elec       q    Type
REMARK                         _______ _______ _______ _____ _____    ______ ____
ROOT
ATOM      1  C   UNL     1      21.970  -7.402  24.510  0.00  0.00    +0.000 A 
ATOM      2  C   UNL     1      21.188  -6.316  24.886  0.00  0.00    +0.000 A 
ATOM      3  C   UNL     1      20.130  -6.469  25.753  0.00  0.00    +0.000 A 
ATOM      4  C   UNL     1      19.345  -5.394  26.151  0.00  0.00    +0.000 A 
ATOM      5  C   UNL     1      18.290  -5.526  27.029  0.00  0.00    +0.000 A 
ATOM      6  C   UNL     1      18.047  -6.821  27.504  0.00  0.00    +0.000 A 
ATOM      7  C   UNL     1      18.827  -7.894  27.109  0.00  0.00    +0.000 A 
ATOM      8  C   UNL     1      19.875  -7.733  26.232  0.00  0.00    +0.000 A 
ATOM      9  C   UNL     1      20.663  -8.826  25.850  0.00  0.00    +0.000 A 
ATOM     10  C   UNL     1      21.722  -8.671  24.982  0.00  0.00    +0.000 A 
ATOM     11  O   UNL     1      22.487  -9.767  24.616  0.00  0.00    +0.000 OA
ENDROOT
BRANCH   1  13
ATOM     12  N   UNL     1      24.396  -6.890  24.220  0.00  0.00    +0.000 NA
ATOM     13  C   UNL     1      23.113  -7.185  23.627  0.00  0.00    +0.000 C 
ATOM     14  O   UNL     1      23.007  -7.254  22.375  0.00  0.00    +0.000 OA
BRANCH  12  15
ATOM     15  N   UNL     1      25.496  -6.710  23.316  0.00  0.00    +0.000 NA
BRANCH  15  17
ATOM     16  C   UNL     1      25.962  -9.095  23.767  0.00  0.00    +0.000 C 
ATOM     17  C   UNL     1      26.386  -7.824  23.148  0.00  0.00    +0.000 C 
ATOM     18  C   UNL     1      27.499  -7.747  22.487  0.00  0.00    +0.000 C 
ATOM     19  C   UNL     1      28.752  -8.350  21.946  0.00  0.00    +0.000 C 
ATOM     20  C   UNL     1      28.485  -6.944  21.688  0.00  0.00    +0.000 C 
ENDBRANCH  15  17
ENDBRANCH  12  15
ENDBRANCH   1  13
TORSDOF 3
ENDMDL
MODEL 8
REMARK VINA RESULT:      -6.8     20.060     23.156
REMARK  Name = 
REMARK  3 active torsions:
REMARK  status: ('A' for Active; 'I' for Inactive)
REMARK    1  A    between atoms: C_2  and  N_3
REMARK    2  A    between atoms: N_3  and  N_4
REMARK    3  A    between atoms: C_5  and  C_7
REMARK                            x       y       z     vdW  Elec       q    Type
REMARK                         _______ _______ _______ _____ _____    ______ ____
ROOT
ATOM      1  C   UNL     1      33.766  -4.748  32.586  0.00  0.00    +0.000 A 
ATOM      2  C   UNL     1      33.290  -4.772  31.279  0.00  0.00    +0.000 A 
ATOM      3  C   UNL     1      33.768  -5.685  30.366  0.00  0.00    +0.000 A 
ATOM      4  C   UNL     1      33.297  -5.733  29.061  0.00  0.00    +0.000 A 
ATOM      5  C   UNL     1      33.754  -6.649  28.137  0.00  0.00    +0.000 A 
ATOM      6  C   UNL     1      34.734  -7.539  28.590  0.00  0.00    +0.000 A 
ATOM      7  C   UNL     1      35.207  -7.494  29.890  0.00  0.00    +0.000 A 
ATOM      8  C   UNL     1      34.732  -6.570  30.792  0.00  0.00    +0.000 A 
ATOM      9  C   UNL     1      35.210  -6.542  32.108  0.00  0.00    +0.000 A 
ATOM     10  C   UNL     1      34.731  -5.628  33.021  0.00  0.00    +0.000 A 
ATOM     11  O   UNL     1      35.220  -5.618  34.317  0.00  0.00    +0.000 OA
ENDROOT
BRANCH   1  13
ATOM     12  N   UNL     1      33.575  -2.407  33.431  0.00  0.00    +0.000 NA
ATOM     13  C   UNL     1      33.195  -3.796  33.534  0.00  0.00    +0.000 C 
ATOM     14  O   UNL     1      32.384  -4.155  34.428  0.00  0.00    +0.000 OA
BRANCH  12  15
ATOM     15  N   UNL     1      32.969  -1.504  34.367  0.00  0.00    +0.000 NA
BRANCH  15  17
ATOM     16  C   UNL     1      33.832   0.452  33.127  0.00  0.00    +0.000 C 
ATOM     17  C   UNL     1      33.505  -0.173  34.423  0.00  0.00    +0.000 C 
ATOM     18  C   UNL     1      33.693   0.468  35.535  0.00  0.00    +0.000 C 
ATOM     19  C   UNL     1      34.124   1.672  36.302  0.00  0.00    +0.000 C 
ATOM     20  C   UNL     1      33.627   0.519  37.035  0.00  0.00    +0.000 C 
ENDBRANCH  15  17
ENDBRANCH  12  15
ENDBRANCH   1  13
TORSDOF 3
ENDMDL
MODEL 9
REMARK VINA RESULT:      -6.7     21.439     23.198
REMARK  Name = 
REMARK  3 active torsions:
REMARK  status: ('A' for Active; 'I' for Inactive)
REMARK    1  A    between atoms: C_2  and  N_3
REMARK    2  A    between atoms: N_3  and  N_4
REMARK    3  A    between atoms: C_5  and  C_7
REMARK                            x       y       z     vdW  Elec       q    Type
REMARK                         _______ _______ _______ _____ _____    ______ ____
ROOT
ATOM      1  C   UNL     1      29.419  24.335  22.995  0.00  0.00    +0.000 A 
ATOM      2  C   UNL     1      30.518  24.587  23.807  0.00  0.00    +0.000 A 
ATOM      3  C   UNL     1      30.697  23.908  24.992  0.00  0.00    +0.000 A 
ATOM      4  C   UNL     1      31.795  24.136  25.810  0.00  0.00    +0.000 A 
ATOM      5  C   UNL     1      31.997  23.457  26.993  0.00  0.00    +0.000 A 
ATOM      6  C   UNL     1      31.021  22.512  27.331  0.00  0.00    +0.000 A 
ATOM      7  C   UNL     1      29.925  22.282  26.518  0.00  0.00    +0.000 A 
ATOM      8  C   UNL     1      29.749  22.974  25.342  0.00  0.00    +0.000 A 
ATOM      9  C   UNL     1      28.641  22.724  24.522  0.00  0.00    +0.000 A 
ATOM     10  C   UNL     1      28.463  23.404  23.337  0.00  0.00    +0.000 A 
ATOM     11  O   UNL     1      27.359  23.142  22.543  0.00  0.00    +0.000 OA
ENDROOT
BRANCH   1  13
ATOM     12  N   UNL     1      28.659  26.338  21.714  0.00  0.00    +0.000 NA
ATOM     13  C   UNL     1      29.296  25.042  21.724  0.00  0.00    +0.000 C 
ATOM     14  O   UNL     1      29.731  24.554  20.648  0.00  0.00    +0.000 OA
BRANCH  12  15
ATOM     15  N   UNL     1      28.583  27.008  20.447  0.00  0.00    +0.000 NA
BRANCH  15  17
ATOM     16  C   UNL     1      29.401  29.215  21.197  0.00  0.00    +0.000 C 
ATOM     17  C   UNL     1      29.490  28.099  20.235  0.00  0.00    +0.000 C 
ATOM     18  C   UNL     1      30.354  28.125  19.268  0.00  0.00    +0.000 C 
ATOM     19  C   UNL     1      31.460  28.778  18.509  0.00  0.00    +0.000 C 
ATOM     20  C   UNL     1      30.974  27.484  18.059  0.00  0.00    +0.000 C 
ENDBRANCH  15  17
ENDBRANCH  12  15
ENDBRANCH   1  13
TORSDOF 3
ENDMDL
MODEL 10
REMARK VINA RESULT:      -6.7     21.706     23.764
REMARK  Name = 
REMARK  3 active torsions:
REMARK  status: ('A' for Active; 'I' for Inactive)
REMARK    1  A    between atoms: C_2  and  N_3
REMARK    2  A    between atoms: N_3  and  N_4
REMARK    3  A    between atoms: C_5  and  C_7
REMARK                            x       y       z     vdW  Elec       q    Type
REMARK                         _______ _______ _______ _____ _____    ______ ____
ROOT
ATOM      1  C   UNL     1      24.676  -7.916  23.598  0.00  0.00    +0.000 A 
ATOM      2  C   UNL     1      25.703  -7.259  22.929  0.00  0.00    +0.000 A 
ATOM      3  C   UNL     1      26.960  -7.813  22.839  0.00  0.00    +0.000 A 
ATOM      4  C   UNL     1      27.995  -7.179  22.164  0.00  0.00    +0.000 A 
ATOM      5  C   UNL     1      29.256  -7.725  22.052  0.00  0.00    +0.000 A 
ATOM      6  C   UNL     1      29.441  -8.971  22.665  0.00  0.00    +0.000 A 
ATOM      7  C   UNL     1      28.412  -9.605  23.338  0.00  0.00    +0.000 A 
ATOM      8  C   UNL     1      27.162  -9.037  23.434  0.00  0.00    +0.000 A 
ATOM      9  C   UNL     1      26.126  -9.696  24.108  0.00  0.00    +0.000 A 
ATOM     10  C   UNL     1      24.869  -9.140  24.198  0.00  0.00    +0.000 A 
ATOM     11  O   UNL     1      23.860  -9.808  24.872  0.00  0.00    +0.000 OA
ENDROOT
BRANCH   1  13
ATOM     12  N   UNL     1      22.857  -6.778  24.875  0.00  0.00    +0.000 NA
ATOM     13  C   UNL     1      23.346  -7.314  23.626  0.00  0.00    +0.000 C 
ATOM     14  O   UNL     1      22.624  -7.250  22.596  0.00  0.00    +0.000 OA
BRANCH  12  15
ATOM     15  N   UNL     1      21.556  -6.173  24.850  0.00  0.00    +0.000 NA
BRANCH  15  17
ATOM     16  C   UNL     1      20.642  -8.277  25.768  0.00  0.00    +0.000 C 
ATOM     17  C   UNL     1      20.529  -6.813  25.622  0.00  0.00    +0.000 C 
ATOM     18  C   UNL     1      19.553  -6.164  26.177  0.00  0.00    +0.000 C 
ATOM     19  C   UNL     1      18.311  -6.109  27.002  0.00  0.00    +0.000 C 
ATOM     20  C   UNL     1      18.841  -4.871  26.453  0.00  0.00    +0.000 C 
ENDBRANCH  15  17
ENDBRANCH  12  15
ENDBRANCH   1  13
TORSDOF 3
ENDMDL
