MODEL 1
REMARK VINA RESULT:      -6.1      0.000      0.000
REMARK  Name = 
REMARK  4 active torsions:
REMARK  status: ('A' for Active; 'I' for Inactive)
REMARK    1  A    between atoms: S_2  and  C_3
REMARK    2  A    between atoms: C_8  and  C_9
REMARK    3  A    between atoms: C_9  and  S_10
REMARK    4  A    between atoms: S_10  and  C_11
REMARK                            x       y       z     vdW  Elec       q    Type
REMARK                         _______ _______ _______ _____ _____    ______ ____
ROOT
ATOM      1  C   UNL     1      16.088  11.371  33.687  0.00  0.00    +0.000 A 
ATOM      2  N   UNL     1      15.257  11.959  34.572  0.00  0.00    +0.000 NA
ATOM      3  C   UNL     1      15.318  11.696  35.905  0.00  0.00    +0.000 A 
ATOM      4  N   UNL     1      14.434  12.326  36.829  0.00  0.00    +0.000 NA
ATOM      5  N   UNL     1      16.260  10.808  36.299  0.00  0.00    +0.000 NA
ATOM      6  C   UNL     1      17.098  10.207  35.452  0.00  0.00    +0.000 A 
ATOM      7  N   UNL     1      17.006  10.492  34.152  0.00  0.00    +0.000 NA
ENDROOT
BRANCH   1   9
ATOM      8  C   UNL     1      14.466  10.939  31.309  0.00  0.00    +0.000 C 
ATOM      9  S   UNL     1      15.945  11.769  31.950  0.00  0.00    +0.000 S 
ENDBRANCH   1   9
BRANCH   6  10
ATOM     10  C   UNL     1      18.083   9.254  36.027  0.00  0.00    +0.000 C 
BRANCH  10  11
ATOM     11  S   UNL     1      18.787   9.829  37.570  0.00  0.00    +0.000 S 
BRANCH  11  12
ATOM     12  C   UNL     1      20.486  10.321  37.409  0.00  0.00    +0.000 A 
ATOM     13  C   UNL     1      21.293   9.659  36.509  0.00  0.00    +0.000 A 
ATOM     14  C   UNL     1      22.622   9.976  36.321  0.00  0.00    +0.000 A 
ATOM     15  C   UNL     1      23.185  11.004  37.062  0.00  0.00    +0.000 A 
ATOM     16  C   UNL     1      24.620  11.330  36.844  0.00  0.00    +0.000 C 
ATOM     17  C   UNL     1      22.387  11.666  37.957  0.00  0.00    +0.000 A 
ATOM     18  C   UNL     1      21.062  11.342  38.137  0.00  0.00    +0.000 A 
ENDBRANCH  11  12
ENDBRANCH  10  11
ENDBRANCH   6  10
TORSDOF 4
ENDMDL
MODEL 2
REMARK VINA RESULT:      -6.1      2.982      4.223
REMARK  Name = 
REMARK  4 active torsions:
REMARK  status: ('A' for Active; 'I' for Inactive)
REMARK    1  A    between atoms: S_2  and  C_3
REMARK    2  A    between atoms: C_8  and  C_9
REMARK    3  A    between atoms: C_9  and  S_10
REMARK    4  A    between atoms: S_10  and  C_11
REMARK                            x       y       z     vdW  Elec       q    Type
REMARK                         _______ _______ _______ _____ _____    ______ ____
ROOT
ATOM      1  C   UNL     1      16.073  11.191  33.226  0.00  0.00    +0.000 A 
ATOM      2  N   UNL     1      15.277  11.866  34.080  0.00  0.00    +0.000 NA
ATOM      3  C   UNL     1      15.377  11.721  35.429  0.00  0.00    +0.000 A 
ATOM      4  N   UNL     1      14.530  12.441  36.320  0.00  0.00    +0.000 NA
ATOM      5  N   UNL     1      16.321  10.857  35.871  0.00  0.00    +0.000 NA
ATOM      6  C   UNL     1      17.125  10.172  35.055  0.00  0.00    +0.000 A 
ATOM      7  N   UNL     1      16.995  10.343  33.738  0.00  0.00    +0.000 NA
ENDROOT
BRANCH   1   9
ATOM      8  C   UNL     1      14.466  12.541  31.210  0.00  0.00    +0.000 C 
ATOM      9  S   UNL     1      15.880  11.436  31.465  0.00  0.00    +0.000 S 
ENDBRANCH   1   9
BRANCH   6  10
ATOM     10  C   UNL     1      18.117   9.260  35.681  0.00  0.00    +0.000 C 
BRANCH  10  11
ATOM     11  S   UNL     1      18.867   9.953  37.152  0.00  0.00    +0.000 S 
BRANCH  11  12
ATOM     12  C   UNL     1      18.167   9.306  38.650  0.00  0.00    +0.000 A 
ATOM     13  C   UNL     1      17.077   9.938  39.208  0.00  0.00    +0.000 A 
ATOM     14  C   UNL     1      16.472   9.503  40.368  0.00  0.00    +0.000 A 
ATOM     15  C   UNL     1      16.971   8.382  41.014  0.00  0.00    +0.000 A 
ATOM     16  C   UNL     1      16.304   7.928  42.264  0.00  0.00    +0.000 C 
ATOM     17  C   UNL     1      18.054   7.749  40.464  0.00  0.00    +0.000 A 
ATOM     18  C   UNL     1      18.650   8.191  39.305  0.00  0.00    +0.000 A 
ENDBRANCH  11  12
ENDBRANCH  10  11
ENDBRANCH   6  10
TORSDOF 4
ENDMDL
MODEL 3
REMARK VINA RESULT:      -5.5     18.299     19.908
REMARK  Name = 
REMARK  4 active torsions:
REMARK  status: ('A' for Active; 'I' for Inactive)
REMARK    1  A    between atoms: S_2  and  C_3
REMARK    2  A    between atoms: C_8  and  C_9
REMARK    3  A    between atoms: C_9  and  S_10
REMARK    4  A    between atoms: S_10  and  C_11
REMARK                            x       y       z     vdW  Elec       q    Type
REMARK                         _______ _______ _______ _____ _____    ______ ____
ROOT
ATOM      1  C   UNL     1      29.773  23.603  24.191  0.00  0.00    +0.000 A 
ATOM      2  N   UNL     1      30.103  23.904  22.918  0.00  0.00    +0.000 NA
ATOM      3  C   UNL     1      29.222  24.488  22.063  0.00  0.00    +0.000 A 
ATOM      4  N   UNL     1      29.583  24.802  20.720  0.00  0.00    +0.000 NA
ATOM      5  N   UNL     1      27.991  24.754  22.558  0.00  0.00    +0.000 NA
ATOM      6  C   UNL     1      27.630  24.470  23.811  0.00  0.00    +0.000 A 
ATOM      7  N   UNL     1      28.523  23.896  24.619  0.00  0.00    +0.000 NA
ENDROOT
BRANCH   1   9
ATOM      8  C   UNL     1      30.506  23.156  26.972  0.00  0.00    +0.000 C 
ATOM      9  S   UNL     1      30.988  22.833  25.254  0.00  0.00    +0.000 S 
ENDBRANCH   1   9
BRANCH   6  10
ATOM     10  C   UNL     1      26.244  24.819  24.219  0.00  0.00    +0.000 C 
BRANCH  10  11
ATOM     11  S   UNL     1      25.538  23.639  25.365  0.00  0.00    +0.000 S 
BRANCH  11  12
ATOM     12  C   UNL     1      25.448  24.264  27.025  0.00  0.00    +0.000 A 
ATOM     13  C   UNL     1      26.137  23.612  28.025  0.00  0.00    +0.000 A 
ATOM     14  C   UNL     1      26.121  24.029  29.339  0.00  0.00    +0.000 A 
ATOM     15  C   UNL     1      25.385  25.152  29.686  0.00  0.00    +0.000 A 
ATOM     16  C   UNL     1      25.382  25.586  31.109  0.00  0.00    +0.000 C 
ATOM     17  C   UNL     1      24.699  25.805  28.696  0.00  0.00    +0.000 A 
ATOM     18  C   UNL     1      24.721  25.380  27.387  0.00  0.00    +0.000 A 
ENDBRANCH  11  12
ENDBRANCH  10  11
ENDBRANCH   6  10
TORSDOF 4
ENDMDL
MODEL 4
REMARK VINA RESULT:      -5.5     16.819     18.323
REMARK  Name = 
REMARK  4 active torsions:
REMARK  status: ('A' for Active; 'I' for Inactive)
REMARK    1  A    between atoms: S_2  and  C_3
REMARK    2  A    between atoms: C_8  and  C_9
REMARK    3  A    between atoms: C_9  and  S_10
REMARK    4  A    between atoms: S_10  and  C_11
REMARK                            x       y       z     vdW  Elec       q    Type
REMARK                         _______ _______ _______ _____ _____    ______ ____
ROOT
ATOM      1  C   UNL     1      25.515  25.027  30.308  0.00  0.00    +0.000 A 
ATOM      2  N   UNL     1      26.001  23.834  30.709  0.00  0.00    +0.000 NA
ATOM      3  C   UNL     1      26.374  22.872  29.824  0.00  0.00    +0.000 A 
ATOM      4  N   UNL     1      26.886  21.616  30.262  0.00  0.00    +0.000 NA
ATOM      5  N   UNL     1      26.232  23.174  28.513  0.00  0.00    +0.000 NA
ATOM      6  C   UNL     1      25.755  24.344  28.080  0.00  0.00    +0.000 A 
ATOM      7  N   UNL     1      25.400  25.262  28.980  0.00  0.00    +0.000 NA
ENDROOT
BRANCH   1   9
ATOM      8  C   UNL     1      24.224  27.610  30.674  0.00  0.00    +0.000 C 
ATOM      9  S   UNL     1      25.046  26.242  31.533  0.00  0.00    +0.000 S 
ENDBRANCH   1   9
BRANCH   6  10
ATOM     10  C   UNL     1      25.655  24.538  26.610  0.00  0.00    +0.000 C 
BRANCH  10  11
ATOM     11  S   UNL     1      26.236  23.122  25.681  0.00  0.00    +0.000 S 
BRANCH  11  12
ATOM     12  C   UNL     1      27.987  23.165  25.386  0.00  0.00    +0.000 A 
ATOM     13  C   UNL     1      28.477  23.967  24.378  0.00  0.00    +0.000 A 
ATOM     14  C   UNL     1      29.821  24.060  24.082  0.00  0.00    +0.000 A 
ATOM     15  C   UNL     1      30.731  23.321  24.823  0.00  0.00    +0.000 A 
ATOM     16  C   UNL     1      32.176  23.436  24.489  0.00  0.00    +0.000 C 
ATOM     17  C   UNL     1      30.250  22.524  25.828  0.00  0.00    +0.000 A 
ATOM     18  C   UNL     1      28.906  22.438  26.115  0.00  0.00    +0.000 A 
ENDBRANCH  11  12
ENDBRANCH  10  11
ENDBRANCH   6  10
TORSDOF 4
ENDMDL
MODEL 5
REMARK VINA RESULT:      -5.3     20.939     22.467
REMARK  Name = 
REMARK  4 active torsions:
REMARK  status: ('A' for Active; 'I' for Inactive)
REMARK    1  A    between atoms: S_2  and  C_3
REMARK    2  A    between atoms: C_8  and  C_9
REMARK    3  A    between atoms: C_9  and  S_10
REMARK    4  A    between atoms: S_10  and  C_11
REMARK                            x       y       z     vdW  Elec       q    Type
REMARK                         _______ _______ _______ _____ _____    ______ ____
ROOT
ATOM      1  C   UNL     1      28.901  27.853  21.327  0.00  0.00    +0.000 A 
ATOM      2  N   UNL     1      29.603  28.006  20.186  0.00  0.00    +0.000 NA
ATOM      3  C   UNL     1      30.067  26.944  19.475  0.00  0.00    +0.000 A 
ATOM      4  N   UNL     1      30.807  27.120  18.270  0.00  0.00    +0.000 NA
ATOM      5  N   UNL     1      29.785  25.718  19.975  0.00  0.00    +0.000 NA
ATOM      6  C   UNL     1      29.094  25.529  21.101  0.00  0.00    +0.000 A 
ATOM      7  N   UNL     1      28.657  26.597  21.769  0.00  0.00    +0.000 NA
ENDROOT
BRANCH   1   9
ATOM      8  C   UNL     1      27.639  28.751  23.792  0.00  0.00    +0.000 C 
ATOM      9  S   UNL     1      28.326  29.300  22.206  0.00  0.00    +0.000 S 
ENDBRANCH   1   9
BRANCH   6  10
ATOM     10  C   UNL     1      28.859  24.126  21.530  0.00  0.00    +0.000 C 
BRANCH  10  11
ATOM     11  S   UNL     1      27.822  24.008  22.984  0.00  0.00    +0.000 S 
BRANCH  11  12
ATOM     12  C   UNL     1      28.694  23.390  24.402  0.00  0.00    +0.000 A 
ATOM     13  C   UNL     1      30.059  23.213  24.324  0.00  0.00    +0.000 A 
ATOM     14  C   UNL     1      30.813  22.739  25.377  0.00  0.00    +0.000 A 
ATOM     15  C   UNL     1      30.186  22.421  26.572  0.00  0.00    +0.000 A 
ATOM     16  C   UNL     1      31.018  21.911  27.695  0.00  0.00    +0.000 C 
ATOM     17  C   UNL     1      28.830  22.595  26.655  0.00  0.00    +0.000 A 
ATOM     18  C   UNL     1      28.086  23.069  25.599  0.00  0.00    +0.000 A 
ENDBRANCH  11  12
ENDBRANCH  10  11
ENDBRANCH   6  10
TORSDOF 4
ENDMDL
MODEL 6
REMARK VINA RESULT:      -5.3     16.318     17.638
REMARK  Name = 
REMARK  4 active torsions:
REMARK  status: ('A' for Active; 'I' for Inactive)
REMARK    1  A    between atoms: S_2  and  C_3
REMARK    2  A    between atoms: C_8  and  C_9
REMARK    3  A    between atoms: C_9  and  S_10
REMARK    4  A    between atoms: S_10  and  C_11
REMARK                            x       y       z     vdW  Elec       q    Type
REMARK                         _______ _______ _______ _____ _____    ______ ____
ROOT
ATOM      1  C   UNL     1      25.213  24.962  28.610  0.00  0.00    +0.000 A 
ATOM      2  N   UNL     1      24.898  25.659  29.722  0.00  0.00    +0.000 NA
ATOM      3  C   UNL     1      25.324  25.282  30.956  0.00  0.00    +0.000 A 
ATOM      4  N   UNL     1      24.985  26.028  32.122  0.00  0.00    +0.000 NA
ATOM      5  N   UNL     1      26.086  24.164  31.013  0.00  0.00    +0.000 NA
ATOM      6  C   UNL     1      26.416  23.450  29.935  0.00  0.00    +0.000 A 
ATOM      7  N   UNL     1      25.978  23.853  28.742  0.00  0.00    +0.000 NA
ENDROOT
BRANCH   1   9
ATOM      8  C   UNL     1      22.934  26.167  27.258  0.00  0.00    +0.000 C 
ATOM      9  S   UNL     1      24.613  25.523  27.022  0.00  0.00    +0.000 S 
ENDBRANCH   1   9
BRANCH   6  10
ATOM     10  C   UNL     1      27.259  22.244  30.147  0.00  0.00    +0.000 C 
BRANCH  10  11
ATOM     11  S   UNL     1      29.012  22.608  30.115  0.00  0.00    +0.000 S 
BRANCH  11  12
ATOM     12  C   UNL     1      29.665  22.698  28.466  0.00  0.00    +0.000 A 
ATOM     13  C   UNL     1      30.935  23.199  28.275  0.00  0.00    +0.000 A 
ATOM     14  C   UNL     1      31.518  23.305  27.030  0.00  0.00    +0.000 A 
ATOM     15  C   UNL     1      30.809  22.892  25.912  0.00  0.00    +0.000 A 
ATOM     16  C   UNL     1      31.457  23.014  24.578  0.00  0.00    +0.000 C 
ATOM     17  C   UNL     1      29.547  22.393  26.096  0.00  0.00    +0.000 A 
ATOM     18  C   UNL     1      28.974  22.292  27.343  0.00  0.00    +0.000 A 
ENDBRANCH  11  12
ENDBRANCH  10  11
ENDBRANCH   6  10
TORSDOF 4
ENDMDL
MODEL 7
REMARK VINA RESULT:      -5.2     19.697     21.112
REMARK  Name = 
REMARK  4 active torsions:
REMARK  status: ('A' for Active; 'I' for Inactive)
REMARK    1  A    between atoms: S_2  and  C_3
REMARK    2  A    between atoms: C_8  and  C_9
REMARK    3  A    between atoms: C_9  and  S_10
REMARK    4  A    between atoms: S_10  and  C_11
REMARK                            x       y       z     vdW  Elec       q    Type
REMARK                         _______ _______ _______ _____ _____    ______ ____
ROOT
ATOM      1  C   UNL     1      28.190  27.529  22.339  0.00  0.00    +0.000 A 
ATOM      2  N   UNL     1      28.924  26.729  21.538  0.00  0.00    +0.000 NA
ATOM      3  C   UNL     1      28.830  25.374  21.588  0.00  0.00    +0.000 A 
ATOM      4  N   UNL     1      29.611  24.541  20.735  0.00  0.00    +0.000 NA
ATOM      5  N   UNL     1      27.956  24.866  22.488  0.00  0.00    +0.000 NA
ATOM      6  C   UNL     1      27.215  25.627  23.297  0.00  0.00    +0.000 A 
ATOM      7  N   UNL     1      27.337  26.953  23.217  0.00  0.00    +0.000 NA
ENDROOT
BRANCH   1   9
ATOM      8  C   UNL     1      26.793  29.985  21.639  0.00  0.00    +0.000 C 
ATOM      9  S   UNL     1      28.372  29.304  22.213  0.00  0.00    +0.000 S 
ENDBRANCH   1   9
BRANCH   6  10
ATOM     10  C   UNL     1      26.297  24.931  24.236  0.00  0.00    +0.000 C 
BRANCH  10  11
ATOM     11  S   UNL     1      26.644  23.181  24.378  0.00  0.00    +0.000 S 
BRANCH  11  12
ATOM     12  C   UNL     1      28.067  22.842  25.384  0.00  0.00    +0.000 A 
ATOM     13  C   UNL     1      27.902  22.665  26.741  0.00  0.00    +0.000 A 
ATOM     14  C   UNL     1      28.953  22.399  27.594  0.00  0.00    +0.000 A 
ATOM     15  C   UNL     1      30.237  22.301  27.080  0.00  0.00    +0.000 A 
ATOM     16  C   UNL     1      31.355  22.013  28.017  0.00  0.00    +0.000 C 
ATOM     17  C   UNL     1      30.407  22.476  25.731  0.00  0.00    +0.000 A 
ATOM     18  C   UNL     1      29.352  22.741  24.889  0.00  0.00    +0.000 A 
ENDBRANCH  11  12
ENDBRANCH  10  11
ENDBRANCH   6  10
TORSDOF 4
ENDMDL
MODEL 8
REMARK VINA RESULT:      -5.2     19.130     20.720
REMARK  Name = 
REMARK  4 active torsions:
REMARK  status: ('A' for Active; 'I' for Inactive)
REMARK    1  A    between atoms: S_2  and  C_3
REMARK    2  A    between atoms: C_8  and  C_9
REMARK    3  A    between atoms: C_9  and  S_10
REMARK    4  A    between atoms: S_10  and  C_11
REMARK                            x       y       z     vdW  Elec       q    Type
REMARK                         _______ _______ _______ _____ _____    ______ ____
ROOT
ATOM      1  C   UNL     1      29.354  26.549  24.008  0.00  0.00    +0.000 A 
ATOM      2  N   UNL     1      29.798  26.050  22.835  0.00  0.00    +0.000 NA
ATOM      3  C   UNL     1      29.095  25.124  22.131  0.00  0.00    +0.000 A 
ATOM      4  N   UNL     1      29.576  24.606  20.893  0.00  0.00    +0.000 NA
ATOM      5  N   UNL     1      27.919  24.725  22.671  0.00  0.00    +0.000 NA
ATOM      6  C   UNL     1      27.450  25.196  23.828  0.00  0.00    +0.000 A 
ATOM      7  N   UNL     1      28.170  26.104  24.489  0.00  0.00    +0.000 NA
ENDROOT
BRANCH   1   9
ATOM      8  C   UNL     1      30.045  29.375  24.096  0.00  0.00    +0.000 C 
ATOM      9  S   UNL     1      30.338  27.764  24.875  0.00  0.00    +0.000 S 
ENDBRANCH   1   9
BRANCH   6  10
ATOM     10  C   UNL     1      26.142  24.668  24.299  0.00  0.00    +0.000 C 
BRANCH  10  11
ATOM     11  S   UNL     1      26.262  23.010  24.965  0.00  0.00    +0.000 S 
BRANCH  11  12
ATOM     12  C   UNL     1      27.719  22.770  25.953  0.00  0.00    +0.000 A 
ATOM     13  C   UNL     1      28.931  22.583  25.324  0.00  0.00    +0.000 A 
ATOM     14  C   UNL     1      30.109  22.390  26.014  0.00  0.00    +0.000 A 
ATOM     15  C   UNL     1      30.090  22.381  27.400  0.00  0.00    +0.000 A 
ATOM     16  C   UNL     1      31.372  22.172  28.125  0.00  0.00    +0.000 C 
ATOM     17  C   UNL     1      28.888  22.568  28.031  0.00  0.00    +0.000 A 
ATOM     18  C   UNL     1      27.718  22.760  27.333  0.00  0.00    +0.000 A 
ENDBRANCH  11  12
ENDBRANCH  10  11
ENDBRANCH   6  10
TORSDOF 4
ENDMDL
MODEL 9
REMARK VINA RESULT:      -5.2     16.295     17.837
REMARK  Name = 
REMARK  4 active torsions:
REMARK  status: ('A' for Active; 'I' for Inactive)
REMARK    1  A    between atoms: S_2  and  C_3
REMARK    2  A    between atoms: C_8  and  C_9
REMARK    3  A    between atoms: C_9  and  S_10
REMARK    4  A    between atoms: S_10  and  C_11
REMARK                            x       y       z     vdW  Elec       q    Type
REMARK                         _______ _______ _______ _____ _____    ______ ____
ROOT
ATOM      1  C   UNL     1      25.029  25.535  30.681  0.00  0.00    +0.000 A 
ATOM      2  N   UNL     1      24.727  25.897  29.417  0.00  0.00    +0.000 NA
ATOM      3  C   UNL     1      25.115  25.160  28.342  0.00  0.00    +0.000 A 
ATOM      4  N   UNL     1      24.788  25.554  27.012  0.00  0.00    +0.000 NA
ATOM      5  N   UNL     1      25.826  24.039  28.607  0.00  0.00    +0.000 NA
ATOM      6  C   UNL     1      26.144  23.651  29.844  0.00  0.00    +0.000 A 
ATOM      7  N   UNL     1      25.744  24.401  30.872  0.00  0.00    +0.000 NA
ENDROOT
BRANCH   1   9
ATOM      8  C   UNL     1      25.680  26.374  33.391  0.00  0.00    +0.000 C 
ATOM      9  S   UNL     1      24.482  26.557  32.042  0.00  0.00    +0.000 S 
ENDBRANCH   1   9
BRANCH   6  10
ATOM     10  C   UNL     1      26.928  22.396  29.986  0.00  0.00    +0.000 C 
BRANCH  10  11
ATOM     11  S   UNL     1      28.694  22.682  30.029  0.00  0.00    +0.000 S 
BRANCH  11  12
ATOM     12  C   UNL     1      29.424  22.724  28.410  0.00  0.00    +0.000 A 
ATOM     13  C   UNL     1      30.741  23.109  28.279  0.00  0.00    +0.000 A 
ATOM     14  C   UNL     1      31.384  23.168  27.060  0.00  0.00    +0.000 A 
ATOM     15  C   UNL     1      30.690  22.829  25.909  0.00  0.00    +0.000 A 
ATOM     16  C   UNL     1      31.403  22.900  24.605  0.00  0.00    +0.000 C 
ATOM     17  C   UNL     1      29.381  22.445  26.034  0.00  0.00    +0.000 A 
ATOM     18  C   UNL     1      28.748  22.388  27.254  0.00  0.00    +0.000 A 
ENDBRANCH  11  12
ENDBRANCH  10  11
ENDBRANCH   6  10
TORSDOF 4
ENDMDL
MODEL 10
REMARK VINA RESULT:      -5.1     15.543     17.461
REMARK  Name = 
REMARK  4 active torsions:
REMARK  status: ('A' for Active; 'I' for Inactive)
REMARK    1  A    between atoms: S_2  and  C_3
REMARK    2  A    between atoms: C_8  and  C_9
REMARK    3  A    between atoms: C_9  and  S_10
REMARK    4  A    between atoms: S_10  and  C_11
REMARK                            x       y       z     vdW  Elec       q    Type
REMARK                         _______ _______ _______ _____ _____    ______ ____
ROOT
ATOM      1  C   UNL     1      26.850  24.523  30.275  0.00  0.00    +0.000 A 
ATOM      2  N   UNL     1      26.167  23.491  30.814  0.00  0.00    +0.000 NA
ATOM      3  C   UNL     1      26.393  22.203  30.444  0.00  0.00    +0.000 A 
ATOM      4  N   UNL     1      25.665  21.123  31.021  0.00  0.00    +0.000 NA
ATOM      5  N   UNL     1      27.344  22.008  29.500  0.00  0.00    +0.000 NA
ATOM      6  C   UNL     1      28.039  23.004  28.945  0.00  0.00    +0.000 A 
ATOM      7  N   UNL     1      27.787  24.254  29.336  0.00  0.00    +0.000 NA
ENDROOT
BRANCH   1   9
ATOM      8  C   UNL     1      27.281  26.431  32.431  0.00  0.00    +0.000 C 
ATOM      9  S   UNL     1      26.494  26.190  30.815  0.00  0.00    +0.000 S 
ENDBRANCH   1   9
BRANCH   6  10
ATOM     10  C   UNL     1      29.054  22.641  27.922  0.00  0.00    +0.000 C 
BRANCH  10  11
ATOM     11  S   UNL     1      30.622  23.464  28.176  0.00  0.00    +0.000 S 
BRANCH  11  12
ATOM     12  C   UNL     1      31.657  22.624  29.350  0.00  0.00    +0.000 A 
ATOM     13  C   UNL     1      33.016  22.566  29.124  0.00  0.00    +0.000 A 
ATOM     14  C   UNL     1      33.891  21.935  29.983  0.00  0.00    +0.000 A 
ATOM     15  C   UNL     1      33.398  21.327  31.128  0.00  0.00    +0.000 A 
ATOM     16  C   UNL     1      34.358  20.652  32.042  0.00  0.00    +0.000 C 
ATOM     17  C   UNL     1      32.048  21.383  31.358  0.00  0.00    +0.000 A 
ATOM     18  C   UNL     1      31.183  22.015  30.494  0.00  0.00    +0.000 A 
ENDBRANCH  11  12
ENDBRANCH  10  11
ENDBRANCH   6  10
TORSDOF 4
ENDMDL
