MODEL 1
REMARK VINA RESULT:      -6.8      0.000      0.000
REMARK  Name = 
REMARK  3 active torsions:
REMARK  status: ('A' for Active; 'I' for Inactive)
REMARK    1  A    between atoms: C_4  and  N_5
REMARK    2  A    between atoms: C_8  and  C_9
REMARK    3  A    between atoms: C_9  and  N_10
REMARK                            x       y       z     vdW  Elec       q    Type
REMARK                         _______ _______ _______ _____ _____    ______ ____
ROOT
ATOM      1  N   UNL     1      16.337  11.017  35.523  0.00  0.00    +0.000 N 
ATOM      2  C   UNL     1      15.663  11.186  36.682  0.00  0.00    +0.000 A 
ATOM      3  N   UNL     1      16.406  10.676  37.661  0.00  0.00    +0.000 NA
ATOM      4  C   UNL     1      17.561  10.171  37.181  0.00  0.00    +0.000 A 
ATOM      5  C   UNL     1      17.491  10.403  35.808  0.00  0.00    +0.000 A 
ENDROOT
BRANCH   1   9
ATOM      6  C   UNL     1      13.621  14.040  32.728  0.00  0.00    +0.000 C 
ATOM      7  C   UNL     1      14.556  12.901  32.895  0.00  0.00    +0.000 A 
ATOM      8  C   UNL     1      15.003  12.502  34.152  0.00  0.00    +0.000 A 
ATOM      9  C   UNL     1      15.870  11.435  34.232  0.00  0.00    +0.000 A 
ATOM     10  C   UNL     1      16.287  10.780  33.102  0.00  0.00    +0.000 A 
ATOM     11  C   UNL     1      15.856  11.157  31.828  0.00  0.00    +0.000 A 
ATOM     12  C   UNL     1      14.986  12.231  31.776  0.00  0.00    +0.000 A 
ATOM     13 CL   UNL     1      14.425  12.729  30.181  0.00  0.00    +0.000 Cl
ENDBRANCH   1   9
BRANCH   4  14
ATOM     14  C   UNL     1      18.635   9.525  37.957  0.00  0.00    +0.000 C 
BRANCH  14  15
ATOM     15  N   UNL     1      19.720  10.464  38.167  0.00  0.00    +0.000 N 
ATOM     16  C   UNL     1      19.699  11.447  39.087  0.00  0.00    +0.000 A 
ATOM     17  C   UNL     1      20.905  12.123  38.979  0.00  0.00    +0.000 A 
ATOM     18  N   UNL     1      21.587  11.520  38.007  0.00  0.00    +0.000 NA
ATOM     19  C   UNL     1      20.882  10.495  37.489  0.00  0.00    +0.000 A 
ATOM     20  N   UNL     1      21.305   9.626  36.430  0.00  0.00    +0.000 NA
ENDBRANCH  14  15
ENDBRANCH   4  14
TORSDOF 3
ENDMDL
MODEL 2
REMARK VINA RESULT:      -6.7      2.553      3.785
REMARK  Name = 
REMARK  3 active torsions:
REMARK  status: ('A' for Active; 'I' for Inactive)
REMARK    1  A    between atoms: C_4  and  N_5
REMARK    2  A    between atoms: C_8  and  C_9
REMARK    3  A    between atoms: C_9  and  N_10
REMARK                            x       y       z     vdW  Elec       q    Type
REMARK                         _______ _______ _______ _____ _____    ______ ____
ROOT
ATOM      1  N   UNL     1      17.188  10.386  36.381  0.00  0.00    +0.000 N 
ATOM      2  C   UNL     1      18.132   9.426  36.258  0.00  0.00    +0.000 A 
ATOM      3  N   UNL     1      18.579   9.139  37.478  0.00  0.00    +0.000 NA
ATOM      4  C   UNL     1      17.955   9.886  38.412  0.00  0.00    +0.000 A 
ATOM      5  C   UNL     1      17.069  10.677  37.681  0.00  0.00    +0.000 A 
ENDROOT
BRANCH   1   9
ATOM      6  C   UNL     1      16.164  10.617  31.561  0.00  0.00    +0.000 C 
ATOM      7  C   UNL     1      15.975  11.069  32.961  0.00  0.00    +0.000 A 
ATOM      8  C   UNL     1      16.687  10.498  34.015  0.00  0.00    +0.000 A 
ATOM      9  C   UNL     1      16.461  10.968  35.289  0.00  0.00    +0.000 A 
ATOM     10  C   UNL     1      15.558  11.973  35.520  0.00  0.00    +0.000 A 
ATOM     11  C   UNL     1      14.830  12.564  34.485  0.00  0.00    +0.000 A 
ATOM     12  C   UNL     1      15.076  12.074  33.214  0.00  0.00    +0.000 A 
ATOM     13 CL   UNL     1      14.172  12.802  31.888  0.00  0.00    +0.000 Cl
ENDBRANCH   1   9
BRANCH   4  14
ATOM     14  C   UNL     1      18.181   9.854  39.868  0.00  0.00    +0.000 C 
BRANCH  14  15
ATOM     15  N   UNL     1      17.296   8.880  40.478  0.00  0.00    +0.000 N 
ATOM     16  C   UNL     1      16.093   9.179  41.004  0.00  0.00    +0.000 A 
ATOM     17  C   UNL     1      15.559   7.993  41.484  0.00  0.00    +0.000 A 
ATOM     18  N   UNL     1      16.459   7.046  41.227  0.00  0.00    +0.000 NA
ATOM     19  C   UNL     1      17.538   7.563  40.608  0.00  0.00    +0.000 A 
ATOM     20  N   UNL     1      18.699   6.837  40.182  0.00  0.00    +0.000 NA
ENDBRANCH  14  15
ENDBRANCH   4  14
TORSDOF 3
ENDMDL
MODEL 3
REMARK VINA RESULT:      -6.6      1.193      2.143
REMARK  Name = 
REMARK  3 active torsions:
REMARK  status: ('A' for Active; 'I' for Inactive)
REMARK    1  A    between atoms: C_4  and  N_5
REMARK    2  A    between atoms: C_8  and  C_9
REMARK    3  A    between atoms: C_9  and  N_10
REMARK                            x       y       z     vdW  Elec       q    Type
REMARK                         _______ _______ _______ _____ _____    ______ ____
ROOT
ATOM      1  N   UNL     1      15.895  11.361  35.806  0.00  0.00    +0.000 N 
ATOM      2  C   UNL     1      15.443  11.541  37.067  0.00  0.00    +0.000 A 
ATOM      3  N   UNL     1      16.230  10.845  37.883  0.00  0.00    +0.000 NA
ATOM      4  C   UNL     1      17.198  10.205  37.195  0.00  0.00    +0.000 A 
ATOM      5  C   UNL     1      16.959  10.553  35.866  0.00  0.00    +0.000 A 
ENDROOT
BRANCH   1   9
ATOM      6  C   UNL     1      15.178  11.357  30.926  0.00  0.00    +0.000 C 
ATOM      7  C   UNL     1      14.975  11.934  32.277  0.00  0.00    +0.000 A 
ATOM      8  C   UNL     1      15.544  11.357  33.410  0.00  0.00    +0.000 A 
ATOM      9  C   UNL     1      15.314  11.948  34.632  0.00  0.00    +0.000 A 
ATOM     10  C   UNL     1      14.542  13.077  34.736  0.00  0.00    +0.000 A 
ATOM     11  C   UNL     1      13.959  13.677  33.618  0.00  0.00    +0.000 A 
ATOM     12  C   UNL     1      14.206  13.064  32.402  0.00  0.00    +0.000 A 
ATOM     13 CL   UNL     1      13.483  13.801  30.974  0.00  0.00    +0.000 Cl
ENDBRANCH   1   9
BRANCH   4  14
ATOM     14  C   UNL     1      18.254   9.340  37.750  0.00  0.00    +0.000 C 
BRANCH  14  15
ATOM     15  N   UNL     1      19.185  10.139  38.524  0.00  0.00    +0.000 N 
ATOM     16  C   UNL     1      20.096  10.970  37.984  0.00  0.00    +0.000 A 
ATOM     17  C   UNL     1      20.788  11.546  39.039  0.00  0.00    +0.000 A 
ATOM     18  N   UNL     1      20.264  11.038  40.153  0.00  0.00    +0.000 NA
ATOM     19  C   UNL     1      19.275  10.169  39.866  0.00  0.00    +0.000 A 
ATOM     20  N   UNL     1      18.491   9.436  40.816  0.00  0.00    +0.000 NA
ENDBRANCH  14  15
ENDBRANCH   4  14
TORSDOF 3
ENDMDL
MODEL 4
REMARK VINA RESULT:      -6.6      2.515      3.890
REMARK  Name = 
REMARK  3 active torsions:
REMARK  status: ('A' for Active; 'I' for Inactive)
REMARK    1  A    between atoms: C_4  and  N_5
REMARK    2  A    between atoms: C_8  and  C_9
REMARK    3  A    between atoms: C_9  and  N_10
REMARK                            x       y       z     vdW  Elec       q    Type
REMARK                         _______ _______ _______ _____ _____    ______ ____
ROOT
ATOM      1  N   UNL     1      17.728  10.329  36.656  0.00  0.00    +0.000 N 
ATOM      2  C   UNL     1      18.939   9.738  36.554  0.00  0.00    +0.000 A 
ATOM      3  N   UNL     1      19.342   9.425  37.783  0.00  0.00    +0.000 NA
ATOM      4  C   UNL     1      18.427   9.793  38.703  0.00  0.00    +0.000 A 
ATOM      5  C   UNL     1      17.402  10.370  37.953  0.00  0.00    +0.000 A 
ENDROOT
BRANCH   1   9
ATOM      6  C   UNL     1      14.168  13.241  34.873  0.00  0.00    +0.000 C 
ATOM      7  C   UNL     1      15.234  12.225  34.701  0.00  0.00    +0.000 A 
ATOM      8  C   UNL     1      15.980  11.759  35.783  0.00  0.00    +0.000 A 
ATOM      9  C   UNL     1      16.954  10.815  35.549  0.00  0.00    +0.000 A 
ATOM     10  C   UNL     1      17.188  10.341  34.284  0.00  0.00    +0.000 A 
ATOM     11  C   UNL     1      16.457  10.789  33.181  0.00  0.00    +0.000 A 
ATOM     12  C   UNL     1      15.485  11.738  33.443  0.00  0.00    +0.000 A 
ATOM     13 CL   UNL     1      14.546  12.321  32.069  0.00  0.00    +0.000 Cl
ENDBRANCH   1   9
BRANCH   4  14
ATOM     14  C   UNL     1      18.516   9.614  40.163  0.00  0.00    +0.000 C 
BRANCH  14  15
ATOM     15  N   UNL     1      17.849   8.384  40.546  0.00  0.00    +0.000 N 
ATOM     16  C   UNL     1      18.424   7.168  40.496  0.00  0.00    +0.000 A 
ATOM     17  C   UNL     1      17.474   6.258  40.938  0.00  0.00    +0.000 A 
ATOM     18  N   UNL     1      16.385   6.965  41.230  0.00  0.00    +0.000 NA
ATOM     19  C   UNL     1      16.587   8.277  41.000  0.00  0.00    +0.000 A 
ATOM     20  N   UNL     1      15.634   9.329  41.203  0.00  0.00    +0.000 NA
ENDBRANCH  14  15
ENDBRANCH   4  14
TORSDOF 3
ENDMDL
MODEL 5
REMARK VINA RESULT:      -6.6     28.134     30.087
REMARK  Name = 
REMARK  3 active torsions:
REMARK  status: ('A' for Active; 'I' for Inactive)
REMARK    1  A    between atoms: C_4  and  N_5
REMARK    2  A    between atoms: C_8  and  C_9
REMARK    3  A    between atoms: C_9  and  N_10
REMARK                            x       y       z     vdW  Elec       q    Type
REMARK                         _______ _______ _______ _____ _____    ______ ____
ROOT
ATOM      1  N   UNL     1      32.170  21.238  11.755  0.00  0.00    +0.000 N 
ATOM      2  C   UNL     1      31.386  20.809  12.769  0.00  0.00    +0.000 A 
ATOM      3  N   UNL     1      30.354  21.642  12.864  0.00  0.00    +0.000 NA
ATOM      4  C   UNL     1      30.431  22.618  11.936  0.00  0.00    +0.000 A 
ATOM      5  C   UNL     1      31.604  22.335  11.239  0.00  0.00    +0.000 A 
ENDROOT
BRANCH   1   9
ATOM      6  C   UNL     1      36.532  19.200  12.828  0.00  0.00    +0.000 C 
ATOM      7  C   UNL     1      35.488  19.623  11.863  0.00  0.00    +0.000 A 
ATOM      8  C   UNL     1      34.311  20.238  12.284  0.00  0.00    +0.000 A 
ATOM      9  C   UNL     1      33.387  20.605  11.331  0.00  0.00    +0.000 A 
ATOM     10  C   UNL     1      33.616  20.373  10.000  0.00  0.00    +0.000 A 
ATOM     11  C   UNL     1      34.786  19.759   9.548  0.00  0.00    +0.000 A 
ATOM     12  C   UNL     1      35.698  19.400  10.525  0.00  0.00    +0.000 A 
ATOM     13 CL   UNL     1      37.185  18.624   9.984  0.00  0.00    +0.000 Cl
ENDBRANCH   1   9
BRANCH   4  14
ATOM     14  C   UNL     1      29.476  23.722  11.730  0.00  0.00    +0.000 C 
BRANCH  14  15
ATOM     15  N   UNL     1      28.181  23.355  12.271  0.00  0.00    +0.000 N 
ATOM     16  C   UNL     1      27.260  22.637  11.602  0.00  0.00    +0.000 A 
ATOM     17  C   UNL     1      26.169  22.498  12.446  0.00  0.00    +0.000 A 
ATOM     18  N   UNL     1      26.483  23.133  13.573  0.00  0.00    +0.000 NA
ATOM     19  C   UNL     1      27.716  23.671  13.494  0.00  0.00    +0.000 A 
ATOM     20  N   UNL     1      28.380  24.423  14.518  0.00  0.00    +0.000 NA
ENDBRANCH  14  15
ENDBRANCH   4  14
TORSDOF 3
ENDMDL
MODEL 6
REMARK VINA RESULT:      -6.5      1.188      2.152
REMARK  Name = 
REMARK  3 active torsions:
REMARK  status: ('A' for Active; 'I' for Inactive)
REMARK    1  A    between atoms: C_4  and  N_5
REMARK    2  A    between atoms: C_8  and  C_9
REMARK    3  A    between atoms: C_9  and  N_10
REMARK                            x       y       z     vdW  Elec       q    Type
REMARK                         _______ _______ _______ _____ _____    ______ ____
ROOT
ATOM      1  N   UNL     1      16.838  10.797  35.296  0.00  0.00    +0.000 N 
ATOM      2  C   UNL     1      17.345   9.555  35.126  0.00  0.00    +0.000 A 
ATOM      3  N   UNL     1      18.056   9.257  36.210  0.00  0.00    +0.000 NA
ATOM      4  C   UNL     1      18.035  10.270  37.100  0.00  0.00    +0.000 A 
ATOM      5  C   UNL     1      17.247  11.245  36.488  0.00  0.00    +0.000 A 
ENDROOT
BRANCH   1   9
ATOM      6  C   UNL     1      15.337  11.504  30.650  0.00  0.00    +0.000 C 
ATOM      7  C   UNL     1      15.294  11.814  32.100  0.00  0.00    +0.000 A 
ATOM      8  C   UNL     1      16.103  11.143  33.014  0.00  0.00    +0.000 A 
ATOM      9  C   UNL     1      16.010  11.484  34.345  0.00  0.00    +0.000 A 
ATOM     10  C   UNL     1      15.144  12.461  34.764  0.00  0.00    +0.000 A 
ATOM     11  C   UNL     1      14.322  13.151  33.871  0.00  0.00    +0.000 A 
ATOM     12  C   UNL     1      14.434  12.789  32.540  0.00  0.00    +0.000 A 
ATOM     13 CL   UNL     1      13.408  13.644  31.390  0.00  0.00    +0.000 Cl
ENDBRANCH   1   9
BRANCH   4  14
ATOM     14  C   UNL     1      18.703  10.311  38.413  0.00  0.00    +0.000 C 
BRANCH  14  15
ATOM     15  N   UNL     1      20.080  10.735  38.247  0.00  0.00    +0.000 N 
ATOM     16  C   UNL     1      21.115   9.889  38.083  0.00  0.00    +0.000 A 
ATOM     17  C   UNL     1      22.255  10.669  37.961  0.00  0.00    +0.000 A 
ATOM     18  N   UNL     1      21.854  11.936  38.058  0.00  0.00    +0.000 NA
ATOM     19  C   UNL     1      20.520  12.006  38.233  0.00  0.00    +0.000 A 
ATOM     20  N   UNL     1      19.747  13.205  38.376  0.00  0.00    +0.000 NA
ENDBRANCH  14  15
ENDBRANCH   4  14
TORSDOF 3
ENDMDL
MODEL 7
REMARK VINA RESULT:      -6.3      2.681      3.952
REMARK  Name = 
REMARK  3 active torsions:
REMARK  status: ('A' for Active; 'I' for Inactive)
REMARK    1  A    between atoms: C_4  and  N_5
REMARK    2  A    between atoms: C_8  and  C_9
REMARK    3  A    between atoms: C_9  and  N_10
REMARK                            x       y       z     vdW  Elec       q    Type
REMARK                         _______ _______ _______ _____ _____    ______ ____
ROOT
ATOM      1  N   UNL     1      17.921  10.578  36.875  0.00  0.00    +0.000 N 
ATOM      2  C   UNL     1      18.521   9.886  35.881  0.00  0.00    +0.000 A 
ATOM      3  N   UNL     1      19.725   9.520  36.312  0.00  0.00    +0.000 NA
ATOM      4  C   UNL     1      19.943   9.953  37.571  0.00  0.00    +0.000 A 
ATOM      5  C   UNL     1      18.770  10.628  37.907  0.00  0.00    +0.000 A 
ENDROOT
BRANCH   1   9
ATOM      6  C   UNL     1      13.348  11.018  38.672  0.00  0.00    +0.000 C 
ATOM      7  C   UNL     1      14.402  11.349  37.681  0.00  0.00    +0.000 A 
ATOM      8  C   UNL     1      15.677  10.793  37.759  0.00  0.00    +0.000 A 
ATOM      9  C   UNL     1      16.604  11.145  36.804  0.00  0.00    +0.000 A 
ATOM     10  C   UNL     1      16.284  12.022  35.800  0.00  0.00    +0.000 A 
ATOM     11  C   UNL     1      15.015  12.595  35.697  0.00  0.00    +0.000 A 
ATOM     12  C   UNL     1      14.102  12.225  36.668  0.00  0.00    +0.000 A 
ATOM     13 CL   UNL     1      12.491  12.933  36.563  0.00  0.00    +0.000 Cl
ENDBRANCH   1   9
BRANCH   4  14
ATOM     14  C   UNL     1      21.156   9.745  38.382  0.00  0.00    +0.000 C 
BRANCH  14  15
ATOM     15  N   UNL     1      22.329  10.108  37.609  0.00  0.00    +0.000 N 
ATOM     16  C   UNL     1      23.003   9.254  36.816  0.00  0.00    +0.000 A 
ATOM     17  C   UNL     1      24.051   9.970  36.256  0.00  0.00    +0.000 A 
ATOM     18  N   UNL     1      23.956  11.209  36.734  0.00  0.00    +0.000 NA
ATOM     19  C   UNL     1      22.905  11.323  37.569  0.00  0.00    +0.000 A 
ATOM     20  N   UNL     1      22.501  12.510  38.265  0.00  0.00    +0.000 NA
ENDBRANCH  14  15
ENDBRANCH   4  14
TORSDOF 3
ENDMDL
MODEL 8
REMARK VINA RESULT:      -6.3     29.302     31.334
REMARK  Name = 
REMARK  3 active torsions:
REMARK  status: ('A' for Active; 'I' for Inactive)
REMARK    1  A    between atoms: C_4  and  N_5
REMARK    2  A    between atoms: C_8  and  C_9
REMARK    3  A    between atoms: C_9  and  N_10
REMARK                            x       y       z     vdW  Elec       q    Type
REMARK                         _______ _______ _______ _____ _____    ______ ____
ROOT
ATOM      1  N   UNL     1      31.234  21.140  10.647  0.00  0.00    +0.000 N 
ATOM      2  C   UNL     1      32.221  20.399  11.199  0.00  0.00    +0.000 A 
ATOM      3  N   UNL     1      32.975  19.927  10.209  0.00  0.00    +0.000 NA
ATOM      4  C   UNL     1      32.514  20.336   9.010  0.00  0.00    +0.000 A 
ATOM      5  C   UNL     1      31.397  21.112   9.320  0.00  0.00    +0.000 A 
ENDROOT
BRANCH   1   9
ATOM      6  C   UNL     1      26.507  22.434  11.207  0.00  0.00    +0.000 C 
ATOM      7  C   UNL     1      27.925  22.440  11.642  0.00  0.00    +0.000 A 
ATOM      8  C   UNL     1      28.913  21.774  10.920  0.00  0.00    +0.000 A 
ATOM      9  C   UNL     1      30.209  21.823  11.384  0.00  0.00    +0.000 A 
ATOM     10  C   UNL     1      30.523  22.509  12.528  0.00  0.00    +0.000 A 
ATOM     11  C   UNL     1      29.554  23.186  13.273  0.00  0.00    +0.000 A 
ATOM     12  C   UNL     1      28.261  23.121  12.786  0.00  0.00    +0.000 A 
ATOM     13 CL   UNL     1      27.017  23.966  13.705  0.00  0.00    +0.000 Cl
ENDBRANCH   1   9
BRANCH   4  14
ATOM     14  C   UNL     1      33.081  20.019   7.687  0.00  0.00    +0.000 C 
BRANCH  14  15
ATOM     15  N   UNL     1      32.040  20.082   6.680  0.00  0.00    +0.000 N 
ATOM     16  C   UNL     1      31.136  19.107   6.468  0.00  0.00    +0.000 A 
ATOM     17  C   UNL     1      30.318  19.537   5.433  0.00  0.00    +0.000 A 
ATOM     18  N   UNL     1      30.766  20.739   5.076  0.00  0.00    +0.000 NA
ATOM     19  C   UNL     1      31.825  21.100   5.827  0.00  0.00    +0.000 A 
ATOM     20  N   UNL     1      32.559  22.328   5.721  0.00  0.00    +0.000 NA
ENDBRANCH  14  15
ENDBRANCH   4  14
TORSDOF 3
ENDMDL
MODEL 9
REMARK VINA RESULT:      -6.1     29.019     30.879
REMARK  Name = 
REMARK  3 active torsions:
REMARK  status: ('A' for Active; 'I' for Inactive)
REMARK    1  A    between atoms: C_4  and  N_5
REMARK    2  A    between atoms: C_8  and  C_9
REMARK    3  A    between atoms: C_9  and  N_10
REMARK                            x       y       z     vdW  Elec       q    Type
REMARK                         _______ _______ _______ _____ _____    ______ ____
ROOT
ATOM      1  N   UNL     1      31.343  21.321  11.494  0.00  0.00    +0.000 N 
ATOM      2  C   UNL     1      32.316  21.069  12.397  0.00  0.00    +0.000 A 
ATOM      3  N   UNL     1      33.322  20.481  11.755  0.00  0.00    +0.000 NA
ATOM      4  C   UNL     1      33.041  20.333  10.444  0.00  0.00    +0.000 A 
ATOM      5  C   UNL     1      31.766  20.881  10.304  0.00  0.00    +0.000 A 
ENDROOT
BRANCH   1   9
ATOM      6  C   UNL     1      28.627  24.331  14.304  0.00  0.00    +0.000 C 
ATOM      7  C   UNL     1      28.789  23.407  13.155  0.00  0.00    +0.000 A 
ATOM      8  C   UNL     1      30.011  22.799  12.874  0.00  0.00    +0.000 A 
ATOM      9  C   UNL     1      30.088  21.951  11.792  0.00  0.00    +0.000 A 
ATOM     10  C   UNL     1      28.991  21.710  11.006  0.00  0.00    +0.000 A 
ATOM     11  C   UNL     1      27.753  22.305  11.263  0.00  0.00    +0.000 A 
ATOM     12  C   UNL     1      27.703  23.151  12.356  0.00  0.00    +0.000 A 
ATOM     13 CL   UNL     1      26.153  23.916  12.704  0.00  0.00    +0.000 Cl
ENDBRANCH   1   9
BRANCH   4  14
ATOM     14  C   UNL     1      33.905  19.727   9.415  0.00  0.00    +0.000 C 
BRANCH  14  15
ATOM     15  N   UNL     1      33.899  20.552   8.223  0.00  0.00    +0.000 N 
ATOM     16  C   UNL     1      34.595  21.698   8.095  0.00  0.00    +0.000 A 
ATOM     17  C   UNL     1      34.331  22.188   6.824  0.00  0.00    +0.000 A 
ATOM     18  N   UNL     1      33.496  21.321   6.254  0.00  0.00    +0.000 NA
ATOM     19  C   UNL     1      33.214  20.304   7.092  0.00  0.00    +0.000 A 
ATOM     20  N   UNL     1      32.353  19.191   6.813  0.00  0.00    +0.000 NA
ENDBRANCH  14  15
ENDBRANCH   4  14
TORSDOF 3
ENDMDL
MODEL 10
REMARK VINA RESULT:      -6.0     29.160     30.867
REMARK  Name = 
REMARK  3 active torsions:
REMARK  status: ('A' for Active; 'I' for Inactive)
REMARK    1  A    between atoms: C_4  and  N_5
REMARK    2  A    between atoms: C_8  and  C_9
REMARK    3  A    between atoms: C_9  and  N_10
REMARK                            x       y       z     vdW  Elec       q    Type
REMARK                         _______ _______ _______ _____ _____    ______ ____
ROOT
ATOM      1  N   UNL     1      31.481  21.776  11.689  0.00  0.00    +0.000 N 
ATOM      2  C   UNL     1      32.061  20.754  12.358  0.00  0.00    +0.000 A 
ATOM      3  N   UNL     1      33.275  20.574  11.846  0.00  0.00    +0.000 NA
ATOM      4  C   UNL     1      33.520  21.452  10.852  0.00  0.00    +0.000 A 
ATOM      5  C   UNL     1      32.352  22.211  10.773  0.00  0.00    +0.000 A 
ENDROOT
BRANCH   1   9
ATOM      6  C   UNL     1      28.400  24.531  14.383  0.00  0.00    +0.000 C 
ATOM      7  C   UNL     1      28.686  23.615  13.252  0.00  0.00    +0.000 A 
ATOM      8  C   UNL     1      29.970  23.129  13.013  0.00  0.00    +0.000 A 
ATOM      9  C   UNL     1      30.162  22.282  11.944  0.00  0.00    +0.000 A 
ATOM     10  C   UNL     1      29.117  21.923  11.132  0.00  0.00    +0.000 A 
ATOM     11  C   UNL     1      27.820  22.395  11.347  0.00  0.00    +0.000 A 
ATOM     12  C   UNL     1      27.654  23.244  12.427  0.00  0.00    +0.000 A 
ATOM     13 CL   UNL     1      26.027  23.854  12.722  0.00  0.00    +0.000 Cl
ENDBRANCH   1   9
BRANCH   4  14
ATOM     14  C   UNL     1      34.750  21.561  10.048  0.00  0.00    +0.000 C 
BRANCH  14  15
ATOM     15  N   UNL     1      34.997  22.952   9.718  0.00  0.00    +0.000 N 
ATOM     16  C   UNL     1      35.614  23.824  10.537  0.00  0.00    +0.000 A 
ATOM     17  C   UNL     1      35.657  25.039   9.869  0.00  0.00    +0.000 A 
ATOM     18  N   UNL     1      35.070  24.840   8.691  0.00  0.00    +0.000 NA
ATOM     19  C   UNL     1      34.654  23.565   8.570  0.00  0.00    +0.000 A 
ATOM     20  N   UNL     1      33.983  22.997   7.437  0.00  0.00    +0.000 NA
ENDBRANCH  14  15
ENDBRANCH   4  14
TORSDOF 3
ENDMDL
