MODEL 1
REMARK VINA RESULT:      -7.3      0.000      0.000
REMARK  Name = 
REMARK  8 active torsions:
REMARK  status: ('A' for Active; 'I' for Inactive)
REMARK    1  A    between atoms: C_2  and  O_3
REMARK    2  A    between atoms: O_3  and  C_4
REMARK    3  A    between atoms: C_7  and  N_8
REMARK    4  A    between atoms: C_9  and  C_11
REMARK    5  A    between atoms: C_12  and  N_13
REMARK    6  A    between atoms: C_14  and  C_16
REMARK    7  A    between atoms: C_16  and  O_17
REMARK    8  A    between atoms: O_17  and  C_18
REMARK                            x       y       z     vdW  Elec       q    Type
REMARK                         _______ _______ _______ _____ _____    ______ ____
ROOT
ATOM      1  C   UNL     1      36.370   2.250  14.516  0.00  0.00    +0.000 A 
ATOM      2  C   UNL     1      35.390   1.933  15.422  0.00  0.00    +0.000 A 
ATOM      3  S   UNL     1      34.425   3.331  15.461  0.00  0.00    +0.000 S 
ATOM      4  C   UNL     1      35.269   4.289  14.340  0.00  0.00    +0.000 A 
ATOM      5  C   UNL     1      36.295   3.485  13.958  0.00  0.00    +0.000 A 
ATOM      6  C   UNL     1      37.101   4.288  12.945  0.00  0.00    +0.000 C 
ATOM      7  C   UNL     1      36.050   5.208  12.353  0.00  0.00    +0.000 C 
ATOM      8  C   UNL     1      35.321   5.623  13.635  0.00  0.00    +0.000 C 
ENDROOT
BRANCH   1  10
ATOM      9  N   UNL     1      38.590   1.097  15.019  0.00  0.00    +0.000 NA
ATOM     10  C   UNL     1      37.427   1.231  14.219  0.00  0.00    +0.000 C 
ATOM     11  O   UNL     1      37.333   0.451  13.250  0.00  0.00    +0.000 OA
BRANCH   9  15
ATOM     12  C   UNL     1      41.665  -1.658  14.209  0.00  0.00    +0.000 A 
ATOM     13  C   UNL     1      40.587  -2.055  14.943  0.00  0.00    +0.000 A 
ATOM     14  C   UNL     1      39.557  -1.151  15.220  0.00  0.00    +0.000 A 
ATOM     15  C   UNL     1      39.606   0.146  14.765  0.00  0.00    +0.000 A 
ATOM     16  C   UNL     1      40.700   0.533  14.026  0.00  0.00    +0.000 A 
ATOM     17  C   UNL     1      41.733  -0.365  13.745  0.00  0.00    +0.000 A 
BRANCH  12  18
ATOM     18  O   UNL     1      42.729  -2.501  13.893  0.00  0.00    +0.000 OA
BRANCH  18  20
ATOM     19  C   UNL     1      44.698  -1.898  15.137  0.00  0.00    +0.000 C 
ATOM     20  C   UNL     1      44.057  -2.079  13.778  0.00  0.00    +0.000 C 
ENDBRANCH  18  20
ENDBRANCH  12  18
ENDBRANCH   9  15
ENDBRANCH   1  10
BRANCH   2  21
ATOM     21  N   UNL     1      35.196   0.716  16.176  0.00  0.00    +0.000 NA
ATOM     22  C   UNL     1      35.798   0.626  17.461  0.00  0.00    +0.000 C 
ATOM     23  O   UNL     1      36.462   1.588  17.882  0.00  0.00    +0.000 OA
BRANCH  22  24
ATOM     24  C   UNL     1      35.594  -0.631  18.235  0.00  0.00    +0.000 C 
BRANCH  24  25
ATOM     25  O   UNL     1      35.514  -1.751  17.399  0.00  0.00    +0.000 OA
BRANCH  25  26
ATOM     26  C   UNL     1      36.479  -2.729  17.299  0.00  0.00    +0.000 A 
ATOM     27  C   UNL     1      37.627  -2.597  18.049  0.00  0.00    +0.000 A 
ATOM     28  C   UNL     1      38.643  -3.548  17.996  0.00  0.00    +0.000 A 
ATOM     29  C   UNL     1      38.500  -4.637  17.182  0.00  0.00    +0.000 A 
ATOM     30  C   UNL     1      37.355  -4.767  16.436  0.00  0.00    +0.000 A 
ATOM     31  C   UNL     1      36.340  -3.825  16.483  0.00  0.00    +0.000 A 
ENDBRANCH  25  26
ENDBRANCH  24  25
ENDBRANCH  22  24
ENDBRANCH   2  21
TORSDOF 8
ENDMDL
MODEL 2
REMARK VINA RESULT:      -7.0      2.948      6.046
REMARK  Name = 
REMARK  8 active torsions:
REMARK  status: ('A' for Active; 'I' for Inactive)
REMARK    1  A    between atoms: C_2  and  O_3
REMARK    2  A    between atoms: O_3  and  C_4
REMARK    3  A    between atoms: C_7  and  N_8
REMARK    4  A    between atoms: C_9  and  C_11
REMARK    5  A    between atoms: C_12  and  N_13
REMARK    6  A    between atoms: C_14  and  C_16
REMARK    7  A    between atoms: C_16  and  O_17
REMARK    8  A    between atoms: O_17  and  C_18
REMARK                            x       y       z     vdW  Elec       q    Type
REMARK                         _______ _______ _______ _____ _____    ______ ____
ROOT
ATOM      1  C   UNL     1      36.776  -1.719  16.135  0.00  0.00    +0.000 A 
ATOM      2  C   UNL     1      36.012  -0.763  16.754  0.00  0.00    +0.000 A 
ATOM      3  S   UNL     1      34.458  -1.450  16.768  0.00  0.00    +0.000 S 
ATOM      4  C   UNL     1      34.795  -2.926  15.996  0.00  0.00    +0.000 A 
ATOM      5  C   UNL     1      36.127  -2.846  15.743  0.00  0.00    +0.000 A 
ATOM      6  C   UNL     1      36.500  -4.147  15.045  0.00  0.00    +0.000 C 
ATOM      7  C   UNL     1      35.468  -5.114  15.593  0.00  0.00    +0.000 C 
ATOM      8  C   UNL     1      34.218  -4.232  15.505  0.00  0.00    +0.000 C 
ENDROOT
BRANCH   1  10
ATOM      9  N   UNL     1      38.801  -1.251  14.655  0.00  0.00    +0.000 NA
ATOM     10  C   UNL     1      38.237  -1.453  15.941  0.00  0.00    +0.000 C 
ATOM     11  O   UNL     1      39.028  -1.399  16.903  0.00  0.00    +0.000 OA
BRANCH   9  15
ATOM     12  C   UNL     1      42.911  -0.600  14.032  0.00  0.00    +0.000 A 
ATOM     13  C   UNL     1      42.038   0.434  13.873  0.00  0.00    +0.000 A 
ATOM     14  C   UNL     1      40.669   0.234  14.077  0.00  0.00    +0.000 A 
ATOM     15  C   UNL     1      40.175  -0.998  14.438  0.00  0.00    +0.000 A 
ATOM     16  C   UNL     1      41.068  -2.033  14.595  0.00  0.00    +0.000 A 
ATOM     17  C   UNL     1      42.437  -1.840  14.393  0.00  0.00    +0.000 A 
BRANCH  12  18
ATOM     18  O   UNL     1      44.286  -0.477  13.847  0.00  0.00    +0.000 OA
BRANCH  18  20
ATOM     19  C   UNL     1      45.364  -0.191  15.979  0.00  0.00    +0.000 C 
ATOM     20  C   UNL     1      45.246  -1.012  14.713  0.00  0.00    +0.000 C 
ENDBRANCH  18  20
ENDBRANCH  12  18
ENDBRANCH   9  15
ENDBRANCH   1  10
BRANCH   2  21
ATOM     21  N   UNL     1      36.402   0.525  17.279  0.00  0.00    +0.000 NA
ATOM     22  C   UNL     1      36.254   1.660  16.435  0.00  0.00    +0.000 C 
ATOM     23  O   UNL     1      35.799   1.502  15.289  0.00  0.00    +0.000 OA
BRANCH  22  24
ATOM     24  C   UNL     1      36.657   2.987  16.981  0.00  0.00    +0.000 C 
BRANCH  24  25
ATOM     25  O   UNL     1      37.840   3.454  16.394  0.00  0.00    +0.000 OA
BRANCH  25  26
ATOM     26  C   UNL     1      38.661   4.416  16.939  0.00  0.00    +0.000 A 
ATOM     27  C   UNL     1      39.511   5.104  16.100  0.00  0.00    +0.000 A 
ATOM     28  C   UNL     1      40.369   6.090  16.584  0.00  0.00    +0.000 A 
ATOM     29  C   UNL     1      40.368   6.382  17.920  0.00  0.00    +0.000 A 
ATOM     30  C   UNL     1      39.520   5.695  18.753  0.00  0.00    +0.000 A 
ATOM     31  C   UNL     1      38.664   4.713  18.279  0.00  0.00    +0.000 A 
ENDBRANCH  25  26
ENDBRANCH  24  25
ENDBRANCH  22  24
ENDBRANCH   2  21
TORSDOF 8
ENDMDL
MODEL 3
REMARK VINA RESULT:      -7.0      3.609      6.113
REMARK  Name = 
REMARK  8 active torsions:
REMARK  status: ('A' for Active; 'I' for Inactive)
REMARK    1  A    between atoms: C_2  and  O_3
REMARK    2  A    between atoms: O_3  and  C_4
REMARK    3  A    between atoms: C_7  and  N_8
REMARK    4  A    between atoms: C_9  and  C_11
REMARK    5  A    between atoms: C_12  and  N_13
REMARK    6  A    between atoms: C_14  and  C_16
REMARK    7  A    between atoms: C_16  and  O_17
REMARK    8  A    between atoms: O_17  and  C_18
REMARK                            x       y       z     vdW  Elec       q    Type
REMARK                         _______ _______ _______ _____ _____    ______ ____
ROOT
ATOM      1  C   UNL     1      36.837   0.423  15.534  0.00  0.00    +0.000 A 
ATOM      2  C   UNL     1      36.533   1.742  15.756  0.00  0.00    +0.000 A 
ATOM      3  S   UNL     1      35.116   1.666  16.691  0.00  0.00    +0.000 S 
ATOM      4  C   UNL     1      34.930  -0.021  16.785  0.00  0.00    +0.000 A 
ATOM      5  C   UNL     1      35.991  -0.489  16.077  0.00  0.00    +0.000 A 
ATOM      6  C   UNL     1      35.885  -2.007  16.120  0.00  0.00    +0.000 C 
ATOM      7  C   UNL     1      35.154  -2.243  17.428  0.00  0.00    +0.000 C 
ATOM      8  C   UNL     1      34.085  -1.150  17.325  0.00  0.00    +0.000 C 
ENDROOT
BRANCH   1  10
ATOM      9  N   UNL     1      39.282  -0.278  15.328  0.00  0.00    +0.000 NA
ATOM     10  C   UNL     1      38.054   0.095  14.724  0.00  0.00    +0.000 C 
ATOM     11  O   UNL     1      38.044   0.136  13.478  0.00  0.00    +0.000 OA
BRANCH   9  15
ATOM     12  C   UNL     1      42.733  -1.317  13.157  0.00  0.00    +0.000 A 
ATOM     13  C   UNL     1      42.394  -0.003  13.285  0.00  0.00    +0.000 A 
ATOM     14  C   UNL     1      41.250   0.358  14.004  0.00  0.00    +0.000 A 
ATOM     15  C   UNL     1      40.448  -0.593  14.592  0.00  0.00    +0.000 A 
ATOM     16  C   UNL     1      40.803  -1.914  14.453  0.00  0.00    +0.000 A 
ATOM     17  C   UNL     1      41.944  -2.283  13.737  0.00  0.00    +0.000 A 
BRANCH  12  18
ATOM     18  O   UNL     1      43.856  -1.753  12.456  0.00  0.00    +0.000 OA
BRANCH  18  20
ATOM     19  C   UNL     1      43.044  -2.213  10.239  0.00  0.00    +0.000 C 
ATOM     20  C   UNL     1      43.823  -2.710  11.438  0.00  0.00    +0.000 C 
ENDBRANCH  18  20
ENDBRANCH  12  18
ENDBRANCH   9  15
ENDBRANCH   1  10
BRANCH   2  21
ATOM     21  N   UNL     1      37.228   2.930  15.317  0.00  0.00    +0.000 NA
ATOM     22  C   UNL     1      37.814   3.762  16.309  0.00  0.00    +0.000 C 
ATOM     23  O   UNL     1      37.708   3.440  17.505  0.00  0.00    +0.000 OA
BRANCH  22  24
ATOM     24  C   UNL     1      38.531   4.987  15.852  0.00  0.00    +0.000 C 
BRANCH  24  25
ATOM     25  O   UNL     1      38.603   5.955  16.860  0.00  0.00    +0.000 OA
BRANCH  25  26
ATOM     26  C   UNL     1      39.682   6.141  17.696  0.00  0.00    +0.000 A 
ATOM     27  C   UNL     1      39.471   6.108  19.058  0.00  0.00    +0.000 A 
ATOM     28  C   UNL     1      40.517   6.288  19.959  0.00  0.00    +0.000 A 
ATOM     29  C   UNL     1      41.782   6.503  19.485  0.00  0.00    +0.000 A 
ATOM     30  C   UNL     1      41.990   6.535  18.129  0.00  0.00    +0.000 A 
ATOM     31  C   UNL     1      40.954   6.357  17.225  0.00  0.00    +0.000 A 
ENDBRANCH  25  26
ENDBRANCH  24  25
ENDBRANCH  22  24
ENDBRANCH   2  21
TORSDOF 8
ENDMDL
MODEL 4
REMARK VINA RESULT:      -6.6      2.635      6.750
REMARK  Name = 
REMARK  8 active torsions:
REMARK  status: ('A' for Active; 'I' for Inactive)
REMARK    1  A    between atoms: C_2  and  O_3
REMARK    2  A    between atoms: O_3  and  C_4
REMARK    3  A    between atoms: C_7  and  N_8
REMARK    4  A    between atoms: C_9  and  C_11
REMARK    5  A    between atoms: C_12  and  N_13
REMARK    6  A    between atoms: C_14  and  C_16
REMARK    7  A    between atoms: C_16  and  O_17
REMARK    8  A    between atoms: O_17  and  C_18
REMARK                            x       y       z     vdW  Elec       q    Type
REMARK                         _______ _______ _______ _____ _____    ______ ____
ROOT
ATOM      1  C   UNL     1      39.889  -0.672  14.389  0.00  0.00    +0.000 A 
ATOM      2  C   UNL     1      39.419  -1.859  14.889  0.00  0.00    +0.000 A 
ATOM      3  S   UNL     1      40.819  -2.813  15.016  0.00  0.00    +0.000 S 
ATOM      4  C   UNL     1      41.970  -1.704  14.438  0.00  0.00    +0.000 A 
ATOM      5  C   UNL     1      41.224  -0.604  14.157  0.00  0.00    +0.000 A 
ATOM      6  C   UNL     1      42.201   0.439  13.629  0.00  0.00    +0.000 C 
ATOM      7  C   UNL     1      43.496   0.045  14.314  0.00  0.00    +0.000 C 
ATOM      8  C   UNL     1      43.430  -1.475  14.130  0.00  0.00    +0.000 C 
ENDROOT
BRANCH   1  10
ATOM      9  N   UNL     1      38.308   1.160  15.200  0.00  0.00    +0.000 NA
ATOM     10  C   UNL     1      38.912   0.437  14.140  0.00  0.00    +0.000 C 
ATOM     11  O   UNL     1      38.584   0.775  12.986  0.00  0.00    +0.000 OA
BRANCH   9  15
ATOM     12  C   UNL     1      35.478   4.216  14.600  0.00  0.00    +0.000 A 
ATOM     13  C   UNL     1      36.801   4.536  14.687  0.00  0.00    +0.000 A 
ATOM     14  C   UNL     1      37.753   3.532  14.886  0.00  0.00    +0.000 A 
ATOM     15  C   UNL     1      37.383   2.211  14.998  0.00  0.00    +0.000 A 
ATOM     16  C   UNL     1      36.046   1.903  14.908  0.00  0.00    +0.000 A 
ATOM     17  C   UNL     1      35.088   2.902  14.710  0.00  0.00    +0.000 A 
BRANCH  12  18
ATOM     18  O   UNL     1      34.473   5.160  14.403  0.00  0.00    +0.000 OA
BRANCH  18  20
ATOM     19  C   UNL     1      33.672   7.412  14.125  0.00  0.00    +0.000 C 
ATOM     20  C   UNL     1      34.637   6.339  13.668  0.00  0.00    +0.000 C 
ENDBRANCH  18  20
ENDBRANCH  12  18
ENDBRANCH   9  15
ENDBRANCH   1  10
BRANCH   2  21
ATOM     21  N   UNL     1      38.068  -2.239  15.235  0.00  0.00    +0.000 NA
ATOM     22  C   UNL     1      37.641  -2.029  16.574  0.00  0.00    +0.000 C 
ATOM     23  O   UNL     1      38.437  -1.532  17.389  0.00  0.00    +0.000 OA
BRANCH  22  24
ATOM     24  C   UNL     1      36.246  -2.421  16.926  0.00  0.00    +0.000 C 
BRANCH  24  25
ATOM     25  O   UNL     1      36.076  -3.811  16.908  0.00  0.00    +0.000 OA
BRANCH  25  26
ATOM     26  C   UNL     1      35.296  -4.497  16.004  0.00  0.00    +0.000 A 
ATOM     27  C   UNL     1      35.304  -5.875  16.041  0.00  0.00    +0.000 A 
ATOM     28  C   UNL     1      34.539  -6.630  15.156  0.00  0.00    +0.000 A 
ATOM     29  C   UNL     1      33.762  -5.993  14.229  0.00  0.00    +0.000 A 
ATOM     30  C   UNL     1      33.755  -4.621  14.194  0.00  0.00    +0.000 A 
ATOM     31  C   UNL     1      34.514  -3.862  15.071  0.00  0.00    +0.000 A 
ENDBRANCH  25  26
ENDBRANCH  24  25
ENDBRANCH  22  24
ENDBRANCH   2  21
TORSDOF 8
ENDMDL
MODEL 5
REMARK VINA RESULT:      -6.6      4.121      6.609
REMARK  Name = 
REMARK  8 active torsions:
REMARK  status: ('A' for Active; 'I' for Inactive)
REMARK    1  A    between atoms: C_2  and  O_3
REMARK    2  A    between atoms: O_3  and  C_4
REMARK    3  A    between atoms: C_7  and  N_8
REMARK    4  A    between atoms: C_9  and  C_11
REMARK    5  A    between atoms: C_12  and  N_13
REMARK    6  A    between atoms: C_14  and  C_16
REMARK    7  A    between atoms: C_16  and  O_17
REMARK    8  A    between atoms: O_17  and  C_18
REMARK                            x       y       z     vdW  Elec       q    Type
REMARK                         _______ _______ _______ _____ _____    ______ ____
ROOT
ATOM      1  C   UNL     1      36.593   0.396  15.458  0.00  0.00    +0.000 A 
ATOM      2  C   UNL     1      36.268   1.666  15.859  0.00  0.00    +0.000 A 
ATOM      3  S   UNL     1      34.962   1.421  16.917  0.00  0.00    +0.000 S 
ATOM      4  C   UNL     1      34.847  -0.272  16.837  0.00  0.00    +0.000 A 
ATOM      5  C   UNL     1      35.842  -0.609  15.976  0.00  0.00    +0.000 A 
ATOM      6  C   UNL     1      35.796  -2.126  15.856  0.00  0.00    +0.000 C 
ATOM      7  C   UNL     1      35.216  -2.539  17.195  0.00  0.00    +0.000 C 
ATOM      8  C   UNL     1      34.104  -1.493  17.326  0.00  0.00    +0.000 C 
ENDROOT
BRANCH   1  10
ATOM      9  N   UNL     1      37.527  -0.247  13.172  0.00  0.00    +0.000 NA
ATOM     10  C   UNL     1      37.728   0.217  14.497  0.00  0.00    +0.000 C 
ATOM     11  O   UNL     1      38.907   0.467  14.818  0.00  0.00    +0.000 OA
BRANCH   9  15
ATOM     12  C   UNL     1      40.635  -0.683  10.369  0.00  0.00    +0.000 A 
ATOM     13  C   UNL     1      40.309  -1.733  11.175  0.00  0.00    +0.000 A 
ATOM     14  C   UNL     1      39.278  -1.604  12.111  0.00  0.00    +0.000 A 
ATOM     15  C   UNL     1      38.576  -0.427  12.241  0.00  0.00    +0.000 A 
ATOM     16  C   UNL     1      38.918   0.624  11.421  0.00  0.00    +0.000 A 
ATOM     17  C   UNL     1      39.946   0.502  10.484  0.00  0.00    +0.000 A 
BRANCH  12  18
ATOM     18  O   UNL     1      41.649  -0.737   9.415  0.00  0.00    +0.000 OA
BRANCH  18  20
ATOM     19  C   UNL     1      40.662  -1.897   7.553  0.00  0.00    +0.000 C 
ATOM     20  C   UNL     1      41.825  -1.794   8.516  0.00  0.00    +0.000 C 
ENDBRANCH  18  20
ENDBRANCH  12  18
ENDBRANCH   9  15
ENDBRANCH   1  10
BRANCH   2  21
ATOM     21  N   UNL     1      36.870   2.927  15.491  0.00  0.00    +0.000 NA
ATOM     22  C   UNL     1      37.520   3.677  16.509  0.00  0.00    +0.000 C 
ATOM     23  O   UNL     1      37.545   3.224  17.666  0.00  0.00    +0.000 OA
BRANCH  22  24
ATOM     24  C   UNL     1      38.140   4.977  16.124  0.00  0.00    +0.000 C 
BRANCH  24  25
ATOM     25  O   UNL     1      39.264   5.269  16.906  0.00  0.00    +0.000 OA
BRANCH  25  26
ATOM     26  C   UNL     1      39.255   6.067  18.029  0.00  0.00    +0.000 A 
ATOM     27  C   UNL     1      38.263   7.017  18.152  0.00  0.00    +0.000 A 
ATOM     28  C   UNL     1      38.195   7.857  19.260  0.00  0.00    +0.000 A 
ATOM     29  C   UNL     1      39.132   7.739  20.249  0.00  0.00    +0.000 A 
ATOM     30  C   UNL     1      40.118   6.793  20.125  0.00  0.00    +0.000 A 
ATOM     31  C   UNL     1      40.193   5.953  19.025  0.00  0.00    +0.000 A 
ENDBRANCH  25  26
ENDBRANCH  24  25
ENDBRANCH  22  24
ENDBRANCH   2  21
TORSDOF 8
ENDMDL
MODEL 6
REMARK VINA RESULT:      -6.3     28.266     31.218
REMARK  Name = 
REMARK  8 active torsions:
REMARK  status: ('A' for Active; 'I' for Inactive)
REMARK    1  A    between atoms: C_2  and  O_3
REMARK    2  A    between atoms: O_3  and  C_4
REMARK    3  A    between atoms: C_7  and  N_8
REMARK    4  A    between atoms: C_9  and  C_11
REMARK    5  A    between atoms: C_12  and  N_13
REMARK    6  A    between atoms: C_14  and  C_16
REMARK    7  A    between atoms: C_16  and  O_17
REMARK    8  A    between atoms: O_17  and  C_18
REMARK                            x       y       z     vdW  Elec       q    Type
REMARK                         _______ _______ _______ _____ _____    ______ ____
ROOT
ATOM      1  C   UNL     1      24.260  15.213  41.392  0.00  0.00    +0.000 A 
ATOM      2  C   UNL     1      25.259  14.593  42.098  0.00  0.00    +0.000 A 
ATOM      3  S   UNL     1      24.738  14.721  43.710  0.00  0.00    +0.000 S 
ATOM      4  C   UNL     1      23.275  15.551  43.469  0.00  0.00    +0.000 A 
ATOM      5  C   UNL     1      23.228  15.710  42.121  0.00  0.00    +0.000 A 
ATOM      6  C   UNL     1      21.931  16.454  41.832  0.00  0.00    +0.000 C 
ATOM      7  C   UNL     1      21.051  16.032  42.993  0.00  0.00    +0.000 C 
ATOM      8  C   UNL     1      22.062  16.153  44.138  0.00  0.00    +0.000 C 
ENDROOT
BRANCH   1  10
ATOM      9  N   UNL     1      25.355  16.109  39.269  0.00  0.00    +0.000 NA
ATOM     10  C   UNL     1      24.381  15.295  39.901  0.00  0.00    +0.000 C 
ATOM     11  O   UNL     1      23.628  14.650  39.145  0.00  0.00    +0.000 OA
BRANCH   9  15
ATOM     12  C   UNL     1      25.834  16.321  35.094  0.00  0.00    +0.000 A 
ATOM     13  C   UNL     1      25.042  17.234  35.723  0.00  0.00    +0.000 A 
ATOM     14  C   UNL     1      24.873  17.177  37.110  0.00  0.00    +0.000 A 
ATOM     15  C   UNL     1      25.494  16.208  37.865  0.00  0.00    +0.000 A 
ATOM     16  C   UNL     1      26.290  15.294  37.215  0.00  0.00    +0.000 A 
ATOM     17  C   UNL     1      26.464  15.345  35.830  0.00  0.00    +0.000 A 
BRANCH  12  18
ATOM     18  O   UNL     1      26.050  16.314  33.717  0.00  0.00    +0.000 OA
BRANCH  18  20
ATOM     19  C   UNL     1      25.097  14.602  32.320  0.00  0.00    +0.000 C 
ATOM     20  C   UNL     1      25.057  16.048  32.769  0.00  0.00    +0.000 C 
ENDBRANCH  18  20
ENDBRANCH  12  18
ENDBRANCH   9  15
ENDBRANCH   1  10
BRANCH   2  21
ATOM     21  N   UNL     1      26.472  13.973  41.619  0.00  0.00    +0.000 NA
ATOM     22  C   UNL     1      26.479  12.560  41.460  0.00  0.00    +0.000 C 
ATOM     23  O   UNL     1      25.451  11.918  41.739  0.00  0.00    +0.000 OA
BRANCH  22  24
ATOM     24  C   UNL     1      27.733  11.924  40.965  0.00  0.00    +0.000 C 
BRANCH  24  25
ATOM     25  O   UNL     1      27.515  10.610  40.533  0.00  0.00    +0.000 OA
BRANCH  25  26
ATOM     26  C   UNL     1      27.745   9.484  41.292  0.00  0.00    +0.000 A 
ATOM     27  C   UNL     1      26.687   8.640  41.554  0.00  0.00    +0.000 A 
ATOM     28  C   UNL     1      26.850   7.485  42.314  0.00  0.00    +0.000 A 
ATOM     29  C   UNL     1      28.085   7.180  42.814  0.00  0.00    +0.000 A 
ATOM     30  C   UNL     1      29.138   8.021  42.552  0.00  0.00    +0.000 A 
ATOM     31  C   UNL     1      28.984   9.172  41.796  0.00  0.00    +0.000 A 
ENDBRANCH  25  26
ENDBRANCH  24  25
ENDBRANCH  22  24
ENDBRANCH   2  21
TORSDOF 8
ENDMDL
MODEL 7
REMARK VINA RESULT:      -6.3      2.432      5.628
REMARK  Name = 
REMARK  8 active torsions:
REMARK  status: ('A' for Active; 'I' for Inactive)
REMARK    1  A    between atoms: C_2  and  O_3
REMARK    2  A    between atoms: O_3  and  C_4
REMARK    3  A    between atoms: C_7  and  N_8
REMARK    4  A    between atoms: C_9  and  C_11
REMARK    5  A    between atoms: C_12  and  N_13
REMARK    6  A    between atoms: C_14  and  C_16
REMARK    7  A    between atoms: C_16  and  O_17
REMARK    8  A    between atoms: O_17  and  C_18
REMARK                            x       y       z     vdW  Elec       q    Type
REMARK                         _______ _______ _______ _____ _____    ______ ____
ROOT
ATOM      1  C   UNL     1      36.141   4.728  13.147  0.00  0.00    +0.000 A 
ATOM      2  C   UNL     1      37.001   4.649  12.082  0.00  0.00    +0.000 A 
ATOM      3  S   UNL     1      36.505   5.929  11.081  0.00  0.00    +0.000 S 
ATOM      4  C   UNL     1      35.226   6.541  12.019  0.00  0.00    +0.000 A 
ATOM      5  C   UNL     1      35.218   5.722  13.102  0.00  0.00    +0.000 A 
ATOM      6  C   UNL     1      34.086   6.217  13.992  0.00  0.00    +0.000 C 
ATOM      7  C   UNL     1      34.016   7.690  13.636  0.00  0.00    +0.000 C 
ATOM      8  C   UNL     1      34.146   7.592  12.113  0.00  0.00    +0.000 C 
ENDROOT
BRANCH   1  10
ATOM      9  N   UNL     1      35.554   2.515  14.273  0.00  0.00    +0.000 NA
ATOM     10  C   UNL     1      36.283   3.731  14.257  0.00  0.00    +0.000 C 
ATOM     11  O   UNL     1      37.049   3.926  15.221  0.00  0.00    +0.000 OA
BRANCH   9  15
ATOM     12  C   UNL     1      35.951  -0.396  17.285  0.00  0.00    +0.000 A 
ATOM     13  C   UNL     1      35.115   0.663  17.484  0.00  0.00    +0.000 A 
ATOM     14  C   UNL     1      34.973   1.638  16.492  0.00  0.00    +0.000 A 
ATOM     15  C   UNL     1      35.664   1.555  15.306  0.00  0.00    +0.000 A 
ATOM     16  C   UNL     1      36.503   0.481  15.120  0.00  0.00    +0.000 A 
ATOM     17  C   UNL     1      36.651  -0.498  16.106  0.00  0.00    +0.000 A 
BRANCH  12  18
ATOM     18  O   UNL     1      36.144  -1.406  18.226  0.00  0.00    +0.000 OA
BRANCH  18  20
ATOM     19  C   UNL     1      38.241  -2.362  18.917  0.00  0.00    +0.000 C 
ATOM     20  C   UNL     1      37.008  -2.490  18.047  0.00  0.00    +0.000 C 
ENDBRANCH  18  20
ENDBRANCH  12  18
ENDBRANCH   9  15
ENDBRANCH   1  10
BRANCH   2  21
ATOM     21  N   UNL     1      38.077   3.716  11.838  0.00  0.00    +0.000 NA
ATOM     22  C   UNL     1      37.892   2.737  10.824  0.00  0.00    +0.000 C 
ATOM     23  O   UNL     1      36.822   2.719  10.193  0.00  0.00    +0.000 OA
BRANCH  22  24
ATOM     24  C   UNL     1      39.006   1.777  10.576  0.00  0.00    +0.000 C 
BRANCH  24  25
ATOM     25  O   UNL     1      39.761   1.545  11.733  0.00  0.00    +0.000 OA
BRANCH  25  26
ATOM     26  C   UNL     1      39.656   0.425  12.528  0.00  0.00    +0.000 A 
ATOM     27  C   UNL     1      40.197   0.467  13.795  0.00  0.00    +0.000 A 
ATOM     28  C   UNL     1      40.127  -0.629  14.652  0.00  0.00    +0.000 A 
ATOM     29  C   UNL     1      39.509  -1.772  14.228  0.00  0.00    +0.000 A 
ATOM     30  C   UNL     1      38.971  -1.812  12.966  0.00  0.00    +0.000 A 
ATOM     31  C   UNL     1      39.036  -0.726  12.108  0.00  0.00    +0.000 A 
ENDBRANCH  25  26
ENDBRANCH  24  25
ENDBRANCH  22  24
ENDBRANCH   2  21
TORSDOF 8
ENDMDL
MODEL 8
REMARK VINA RESULT:      -6.3      2.831      7.883
REMARK  Name = 
REMARK  8 active torsions:
REMARK  status: ('A' for Active; 'I' for Inactive)
REMARK    1  A    between atoms: C_2  and  O_3
REMARK    2  A    between atoms: O_3  and  C_4
REMARK    3  A    between atoms: C_7  and  N_8
REMARK    4  A    between atoms: C_9  and  C_11
REMARK    5  A    between atoms: C_12  and  N_13
REMARK    6  A    between atoms: C_14  and  C_16
REMARK    7  A    between atoms: C_16  and  O_17
REMARK    8  A    between atoms: O_17  and  C_18
REMARK                            x       y       z     vdW  Elec       q    Type
REMARK                         _______ _______ _______ _____ _____    ______ ____
ROOT
ATOM      1  C   UNL     1      37.757  -1.720  16.535  0.00  0.00    +0.000 A 
ATOM      2  C   UNL     1      38.357  -2.625  15.698  0.00  0.00    +0.000 A 
ATOM      3  S   UNL     1      39.076  -3.733  16.768  0.00  0.00    +0.000 S 
ATOM      4  C   UNL     1      38.610  -3.038  18.248  0.00  0.00    +0.000 A 
ATOM      5  C   UNL     1      37.897  -1.947  17.866  0.00  0.00    +0.000 A 
ATOM      6  C   UNL     1      37.446  -1.270  19.154  0.00  0.00    +0.000 C 
ATOM      7  C   UNL     1      37.376  -2.435  20.123  0.00  0.00    +0.000 C 
ATOM      8  C   UNL     1      38.677  -3.156  19.752  0.00  0.00    +0.000 C 
ENDROOT
BRANCH   1  10
ATOM      9  N   UNL     1      37.486   0.762  16.008  0.00  0.00    +0.000 NA
ATOM     10  C   UNL     1      37.010  -0.571  15.930  0.00  0.00    +0.000 C 
ATOM     11  O   UNL     1      35.930  -0.735  15.328  0.00  0.00    +0.000 OA
BRANCH   9  15
ATOM     12  C   UNL     1      35.534   4.059  14.269  0.00  0.00    +0.000 A 
ATOM     13  C   UNL     1      34.981   3.451  15.357  0.00  0.00    +0.000 A 
ATOM     14  C   UNL     1      35.618   2.354  15.946  0.00  0.00    +0.000 A 
ATOM     15  C   UNL     1      36.805   1.868  15.448  0.00  0.00    +0.000 A 
ATOM     16  C   UNL     1      37.351   2.491  14.350  0.00  0.00    +0.000 A 
ATOM     17  C   UNL     1      36.720   3.588  13.757  0.00  0.00    +0.000 A 
BRANCH  12  18
ATOM     18  O   UNL     1      34.958   5.155  13.629  0.00  0.00    +0.000 OA
BRANCH  18  20
ATOM     19  C   UNL     1      33.707   7.121  14.226  0.00  0.00    +0.000 C 
ATOM     20  C   UNL     1      35.068   6.474  14.081  0.00  0.00    +0.000 C 
ENDBRANCH  18  20
ENDBRANCH  12  18
ENDBRANCH   9  15
ENDBRANCH   1  10
BRANCH   2  21
ATOM     21  N   UNL     1      38.389  -2.659  14.254  0.00  0.00    +0.000 NA
ATOM     22  C   UNL     1      39.507  -2.073  13.600  0.00  0.00    +0.000 C 
ATOM     23  O   UNL     1      40.404  -1.557  14.288  0.00  0.00    +0.000 OA
BRANCH  22  24
ATOM     24  C   UNL     1      39.536  -2.111  12.110  0.00  0.00    +0.000 C 
BRANCH  24  25
ATOM     25  O   UNL     1      40.334  -1.091  11.578  0.00  0.00    +0.000 OA
BRANCH  25  26
ATOM     26  C   UNL     1      39.933   0.217  11.415  0.00  0.00    +0.000 A 
ATOM     27  C   UNL     1      40.710   1.215  11.961  0.00  0.00    +0.000 A 
ATOM     28  C   UNL     1      40.363   2.558  11.834  0.00  0.00    +0.000 A 
ATOM     29  C   UNL     1      39.227   2.895  11.152  0.00  0.00    +0.000 A 
ATOM     30  C   UNL     1      38.454   1.899  10.609  0.00  0.00    +0.000 A 
ATOM     31  C   UNL     1      38.793   0.561  10.731  0.00  0.00    +0.000 A 
ENDBRANCH  25  26
ENDBRANCH  24  25
ENDBRANCH  22  24
ENDBRANCH   2  21
TORSDOF 8
ENDMDL
MODEL 9
REMARK VINA RESULT:      -6.2      2.467      6.739
REMARK  Name = 
REMARK  8 active torsions:
REMARK  status: ('A' for Active; 'I' for Inactive)
REMARK    1  A    between atoms: C_2  and  O_3
REMARK    2  A    between atoms: O_3  and  C_4
REMARK    3  A    between atoms: C_7  and  N_8
REMARK    4  A    between atoms: C_9  and  C_11
REMARK    5  A    between atoms: C_12  and  N_13
REMARK    6  A    between atoms: C_14  and  C_16
REMARK    7  A    between atoms: C_16  and  O_17
REMARK    8  A    between atoms: O_17  and  C_18
REMARK                            x       y       z     vdW  Elec       q    Type
REMARK                         _______ _______ _______ _____ _____    ______ ____
ROOT
ATOM      1  C   UNL     1      37.164  -0.225  15.961  0.00  0.00    +0.000 A 
ATOM      2  C   UNL     1      36.281   0.709  15.483  0.00  0.00    +0.000 A 
ATOM      3  S   UNL     1      35.147   0.858  16.739  0.00  0.00    +0.000 S 
ATOM      4  C   UNL     1      35.802  -0.255  17.844  0.00  0.00    +0.000 A 
ATOM      5  C   UNL     1      36.901  -0.722  17.198  0.00  0.00    +0.000 A 
ATOM      6  C   UNL     1      37.542  -1.734  18.138  0.00  0.00    +0.000 C 
ATOM      7  C   UNL     1      37.111  -1.225  19.501  0.00  0.00    +0.000 C 
ATOM      8  C   UNL     1      35.644  -0.899  19.201  0.00  0.00    +0.000 C 
ENDROOT
BRANCH   1  10
ATOM      9  N   UNL     1      38.319  -1.808  14.328  0.00  0.00    +0.000 NA
ATOM     10  C   UNL     1      38.325  -0.620  15.102  0.00  0.00    +0.000 C 
ATOM     11  O   UNL     1      39.355   0.079  15.028  0.00  0.00    +0.000 OA
BRANCH   9  15
ATOM     12  C   UNL     1      41.480  -2.964  11.802  0.00  0.00    +0.000 A 
ATOM     13  C   UNL     1      41.577  -3.192  13.143  0.00  0.00    +0.000 A 
ATOM     14  C   UNL     1      40.535  -2.813  13.995  0.00  0.00    +0.000 A 
ATOM     15  C   UNL     1      39.399  -2.209  13.507  0.00  0.00    +0.000 A 
ATOM     16  C   UNL     1      39.316  -1.985  12.152  0.00  0.00    +0.000 A 
ATOM     17  C   UNL     1      40.354  -2.360  11.295  0.00  0.00    +0.000 A 
BRANCH  12  18
ATOM     18  O   UNL     1      42.477  -3.312  10.892  0.00  0.00    +0.000 OA
BRANCH  18  20
ATOM     19  C   UNL     1      43.821  -5.126  10.060  0.00  0.00    +0.000 C 
ATOM     20  C   UNL     1      42.456  -4.472  10.112  0.00  0.00    +0.000 C 
ENDBRANCH  18  20
ENDBRANCH  12  18
ENDBRANCH   9  15
ENDBRANCH   1  10
BRANCH   2  21
ATOM     21  N   UNL     1      36.285   1.413  14.221  0.00  0.00    +0.000 NA
ATOM     22  C   UNL     1      36.950   2.668  14.163  0.00  0.00    +0.000 C 
ATOM     23  O   UNL     1      37.496   3.108  15.189  0.00  0.00    +0.000 OA
BRANCH  22  24
ATOM     24  C   UNL     1      36.952   3.391  12.859  0.00  0.00    +0.000 C 
BRANCH  24  25
ATOM     25  O   UNL     1      36.930   4.781  13.034  0.00  0.00    +0.000 OA
BRANCH  25  26
ATOM     26  C   UNL     1      35.806   5.569  12.926  0.00  0.00    +0.000 A 
ATOM     27  C   UNL     1      35.529   6.156  11.710  0.00  0.00    +0.000 A 
ATOM     28  C   UNL     1      34.409   6.964  11.532  0.00  0.00    +0.000 A 
ATOM     29  C   UNL     1      33.565   7.182  12.585  0.00  0.00    +0.000 A 
ATOM     30  C   UNL     1      33.842   6.596  13.795  0.00  0.00    +0.000 A 
ATOM     31  C   UNL     1      34.954   5.790  13.981  0.00  0.00    +0.000 A 
ENDBRANCH  25  26
ENDBRANCH  24  25
ENDBRANCH  22  24
ENDBRANCH   2  21
TORSDOF 8
ENDMDL
MODEL 10
REMARK VINA RESULT:      -6.0      4.205      7.143
REMARK  Name = 
REMARK  8 active torsions:
REMARK  status: ('A' for Active; 'I' for Inactive)
REMARK    1  A    between atoms: C_2  and  O_3
REMARK    2  A    between atoms: O_3  and  C_4
REMARK    3  A    between atoms: C_7  and  N_8
REMARK    4  A    between atoms: C_9  and  C_11
REMARK    5  A    between atoms: C_12  and  N_13
REMARK    6  A    between atoms: C_14  and  C_16
REMARK    7  A    between atoms: C_16  and  O_17
REMARK    8  A    between atoms: O_17  and  C_18
REMARK                            x       y       z     vdW  Elec       q    Type
REMARK                         _______ _______ _______ _____ _____    ______ ____
ROOT
ATOM      1  C   UNL     1      36.868   4.783  12.548  0.00  0.00    +0.000 A 
ATOM      2  C   UNL     1      36.829   6.077  13.000  0.00  0.00    +0.000 A 
ATOM      3  S   UNL     1      36.835   6.993  11.568  0.00  0.00    +0.000 S 
ATOM      4  C   UNL     1      36.886   5.734  10.428  0.00  0.00    +0.000 A 
ATOM      5  C   UNL     1      36.898   4.617  11.201  0.00  0.00    +0.000 A 
ATOM      6  C   UNL     1      36.944   3.440  10.235  0.00  0.00    +0.000 C 
ATOM      7  C   UNL     1      36.262   4.006   9.004  0.00  0.00    +0.000 C 
ATOM      8  C   UNL     1      36.921   5.389   8.958  0.00  0.00    +0.000 C 
ENDROOT
BRANCH   1  10
ATOM      9  N   UNL     1      35.687   3.013  13.956  0.00  0.00    +0.000 NA
ATOM     10  C   UNL     1      36.876   3.673  13.554  0.00  0.00    +0.000 C 
ATOM     11  O   UNL     1      37.932   3.278  14.087  0.00  0.00    +0.000 OA
BRANCH   9  15
ATOM     12  C   UNL     1      35.555  -0.049  16.840  0.00  0.00    +0.000 A 
ATOM     13  C   UNL     1      36.191  -0.273  15.654  0.00  0.00    +0.000 A 
ATOM     14  C   UNL     1      36.243   0.735  14.686  0.00  0.00    +0.000 A 
ATOM     15  C   UNL     1      35.661   1.963  14.904  0.00  0.00    +0.000 A 
ATOM     16  C   UNL     1      35.024   2.174  16.104  0.00  0.00    +0.000 A 
ATOM     17  C   UNL     1      34.967   1.172  17.076  0.00  0.00    +0.000 A 
BRANCH  12  18
ATOM     18  O   UNL     1      35.462  -1.003  17.850  0.00  0.00    +0.000 OA
BRANCH  18  20
ATOM     19  C   UNL     1      37.434  -1.942  18.860  0.00  0.00    +0.000 C 
ATOM     20  C   UNL     1      36.261  -2.148  17.925  0.00  0.00    +0.000 C 
ENDBRANCH  18  20
ENDBRANCH  12  18
ENDBRANCH   9  15
ENDBRANCH   1  10
BRANCH   2  21
ATOM     21  N   UNL     1      36.792   6.575  14.355  0.00  0.00    +0.000 NA
ATOM     22  C   UNL     1      38.031   6.814  15.010  0.00  0.00    +0.000 C 
ATOM     23  O   UNL     1      39.089   6.586  14.399  0.00  0.00    +0.000 OA
BRANCH  22  24
ATOM     24  C   UNL     1      37.988   7.329  16.409  0.00  0.00    +0.000 C 
BRANCH  24  25
ATOM     25  O   UNL     1      38.369   6.351  17.336  0.00  0.00    +0.000 OA
BRANCH  25  26
ATOM     26  C   UNL     1      39.516   6.395  18.097  0.00  0.00    +0.000 A 
ATOM     27  C   UNL     1      40.734   6.391  17.451  0.00  0.00    +0.000 A 
ATOM     28  C   UNL     1      41.932   6.433  18.159  0.00  0.00    +0.000 A 
ATOM     29  C   UNL     1      41.902   6.479  19.525  0.00  0.00    +0.000 A 
ATOM     30  C   UNL     1      40.689   6.484  20.167  0.00  0.00    +0.000 A 
ATOM     31  C   UNL     1      39.492   6.442  19.469  0.00  0.00    +0.000 A 
ENDBRANCH  25  26
ENDBRANCH  24  25
ENDBRANCH  22  24
ENDBRANCH   2  21
TORSDOF 8
ENDMDL
