MODEL 1
REMARK VINA RESULT:      -7.8      0.000      0.000
REMARK  Name = 
REMARK  7 active torsions:
REMARK  status: ('A' for Active; 'I' for Inactive)
REMARK    1  A    between atoms: O_2  and  C_3
REMARK    2  A    between atoms: C_5  and  C_6
REMARK    3  A    between atoms: C_16  and  O_17
REMARK    4  A    between atoms: O_17  and  C_18
REMARK    5  A    between atoms: C_18  and  C_19
REMARK    6  A    between atoms: C_28  and  O_29
REMARK    7  A    between atoms: C_31  and  O_32
REMARK                            x       y       z     vdW  Elec       q    Type
REMARK                         _______ _______ _______ _____ _____    ______ ____
ROOT
ATOM      1  C   UNL     1      37.095   0.003  13.337  0.00  0.00    +0.000 C 
ATOM      2  N   UNL     1      38.553  -0.278  12.828  0.00  0.00    +0.000 NA
ATOM      3  C   UNL     1      39.492  -0.148  13.789  0.00  0.00    +0.000 C 
ATOM      4  C   UNL     1      39.830   1.226  14.290  0.00  0.00    +0.000 C 
ATOM      5  C   UNL     1      38.515   1.945  14.223  0.00  0.00    +0.000 A 
ATOM      6  C   UNL     1      37.354   1.490  13.838  0.00  0.00    +0.000 A 
ATOM      7  N   UNL     1      36.425   2.459  13.929  0.00  0.00    +0.000 NA
ATOM      8  C   UNL     1      37.000   3.594  14.393  0.00  0.00    +0.000 A 
ATOM      9  C   UNL     1      36.556   4.871  14.680  0.00  0.00    +0.000 A 
ATOM     10  C   UNL     1      37.481   5.767  15.145  0.00  0.00    +0.000 A 
ATOM     11  C   UNL     1      38.818   5.521  15.358  0.00  0.00    +0.000 A 
ATOM     12  C   UNL     1      39.227   4.247  15.064  0.00  0.00    +0.000 A 
ATOM     13  C   UNL     1      38.330   3.280  14.583  0.00  0.00    +0.000 A 
ENDROOT
BRANCH   1  16
ATOM     14  C   UNL     1      37.007  -0.771  17.153  0.00  0.00    +0.000 A 
ATOM     15  C   UNL     1      36.984  -0.125  15.930  0.00  0.00    +0.000 A 
ATOM     16  C   UNL     1      37.119  -0.722  14.754  0.00  0.00    +0.000 A 
ATOM     17  C   UNL     1      37.299  -2.102  14.722  0.00  0.00    +0.000 A 
ATOM     18  C   UNL     1      37.331  -2.803  15.917  0.00  0.00    +0.000 A 
ATOM     19  C   UNL     1      37.184  -2.131  17.141  0.00  0.00    +0.000 A 
BRANCH  14  21
ATOM     20  C   UNL     1      35.795   0.139  19.145  0.00  0.00    +0.000 C 
ATOM     21  O   UNL     1      36.865  -0.135  18.364  0.00  0.00    +0.000 OA
ENDBRANCH  14  21
BRANCH  18  22
ATOM     22  O   UNL     1      37.509  -4.181  15.913  0.00  0.00    +0.000 OA
ATOM     23  C   UNL     1      36.365  -5.003  15.817  0.00  0.00    +0.000 C 
ENDBRANCH  18  22
BRANCH  19  24
ATOM     24  O   UNL     1      37.228  -2.913  18.291  0.00  0.00    +0.000 OA
ATOM     25  C   UNL     1      38.379  -3.099  19.071  0.00  0.00    +0.000 C 
ENDBRANCH  19  24
ENDBRANCH   1  16
BRANCH  11  26
ATOM     26  O   UNL     1      39.688   6.517  15.842  0.00  0.00    +0.000 OA
BRANCH  26  27
ATOM     27  C   UNL     1      41.046   6.201  16.120  0.00  0.00    +0.000 C 
BRANCH  27  28
ATOM     28  C   UNL     1      41.338   6.334  17.556  0.00  0.00    +0.000 A 
ATOM     29  C   UNL     1      42.548   6.632  18.121  0.00  0.00    +0.000 A 
ATOM     30  C   UNL     1      42.719   6.735  19.491  0.00  0.00    +0.000 A 
ATOM     31  C   UNL     1      41.642   6.532  20.338  0.00  0.00    +0.000 A 
ATOM     32  C   UNL     1      40.438   6.235  19.793  0.00  0.00    +0.000 A 
ATOM     33  C   UNL     1      40.275   6.135  18.435  0.00  0.00    +0.000 A 
ENDBRANCH  27  28
ENDBRANCH  26  27
ENDBRANCH  11  26
TORSDOF 7
ENDMDL
MODEL 2
REMARK VINA RESULT:      -7.7      4.184      6.600
REMARK  Name = 
REMARK  7 active torsions:
REMARK  status: ('A' for Active; 'I' for Inactive)
REMARK    1  A    between atoms: O_2  and  C_3
REMARK    2  A    between atoms: C_5  and  C_6
REMARK    3  A    between atoms: C_16  and  O_17
REMARK    4  A    between atoms: O_17  and  C_18
REMARK    5  A    between atoms: C_18  and  C_19
REMARK    6  A    between atoms: C_28  and  O_29
REMARK    7  A    between atoms: C_31  and  O_32
REMARK                            x       y       z     vdW  Elec       q    Type
REMARK                         _______ _______ _______ _____ _____    ______ ____
ROOT
ATOM      1  C   UNL     1      37.197  -3.035  14.039  0.00  0.00    +0.000 C 
ATOM      2  N   UNL     1      37.539  -3.844  15.340  0.00  0.00    +0.000 NA
ATOM      3  C   UNL     1      38.215  -3.124  16.259  0.00  0.00    +0.000 C 
ATOM      4  C   UNL     1      39.649  -2.769  15.990  0.00  0.00    +0.000 C 
ATOM      5  C   UNL     1      39.676  -2.570  14.503  0.00  0.00    +0.000 A 
ATOM      6  C   UNL     1      38.694  -2.667  13.648  0.00  0.00    +0.000 A 
ATOM      7  N   UNL     1      39.139  -2.412  12.404  0.00  0.00    +0.000 NA
ATOM      8  C   UNL     1      40.464  -2.136  12.445  0.00  0.00    +0.000 A 
ATOM      9  C   UNL     1      41.427  -1.811  11.509  0.00  0.00    +0.000 A 
ATOM     10  C   UNL     1      42.701  -1.601  11.966  0.00  0.00    +0.000 A 
ATOM     11  C   UNL     1      43.121  -1.682  13.273  0.00  0.00    +0.000 A 
ATOM     12  C   UNL     1      42.144  -2.007  14.177  0.00  0.00    +0.000 A 
ATOM     13  C   UNL     1      40.818  -2.234  13.776  0.00  0.00    +0.000 A 
ENDROOT
BRANCH   1  16
ATOM     14  C   UNL     1      36.870   0.763  14.837  0.00  0.00    +0.000 A 
ATOM     15  C   UNL     1      37.252  -0.449  14.291  0.00  0.00    +0.000 A 
ATOM     16  C   UNL     1      36.771  -1.630  14.654  0.00  0.00    +0.000 A 
ATOM     17  C   UNL     1      35.808  -1.679  15.658  0.00  0.00    +0.000 A 
ATOM     18  C   UNL     1      35.386  -0.495  16.242  0.00  0.00    +0.000 A 
ATOM     19  C   UNL     1      35.923   0.735  15.828  0.00  0.00    +0.000 A 
BRANCH  14  21
ATOM     20  C   UNL     1      38.493   2.669  14.792  0.00  0.00    +0.000 C 
ATOM     21  O   UNL     1      37.381   1.979  14.447  0.00  0.00    +0.000 OA
ENDBRANCH  14  21
BRANCH  18  22
ATOM     22  O   UNL     1      34.426  -0.516  17.247  0.00  0.00    +0.000 OA
ATOM     23  C   UNL     1      33.641  -1.680  17.397  0.00  0.00    +0.000 C 
ENDBRANCH  18  22
BRANCH  19  24
ATOM     24  O   UNL     1      35.441   1.872  16.468  0.00  0.00    +0.000 OA
ATOM     25  C   UNL     1      34.566   2.796  15.877  0.00  0.00    +0.000 C 
ENDBRANCH  19  24
ENDBRANCH   1  16
BRANCH  11  26
ATOM     26  O   UNL     1      44.460  -1.446  13.639  0.00  0.00    +0.000 OA
BRANCH  26  27
ATOM     27  C   UNL     1      45.180  -2.428  14.373  0.00  0.00    +0.000 C 
BRANCH  27  28
ATOM     28  C   UNL     1      45.505  -1.947  15.725  0.00  0.00    +0.000 A 
ATOM     29  C   UNL     1      45.968  -2.698  16.772  0.00  0.00    +0.000 A 
ATOM     30  C   UNL     1      46.245  -2.147  18.011  0.00  0.00    +0.000 A 
ATOM     31  C   UNL     1      46.053  -0.791  18.222  0.00  0.00    +0.000 A 
ATOM     32  C   UNL     1      45.595  -0.036  17.195  0.00  0.00    +0.000 A 
ATOM     33  C   UNL     1      45.322  -0.587  15.969  0.00  0.00    +0.000 A 
ENDBRANCH  27  28
ENDBRANCH  26  27
ENDBRANCH  11  26
TORSDOF 7
ENDMDL
MODEL 3
REMARK VINA RESULT:      -7.7      1.045      2.346
REMARK  Name = 
REMARK  7 active torsions:
REMARK  status: ('A' for Active; 'I' for Inactive)
REMARK    1  A    between atoms: O_2  and  C_3
REMARK    2  A    between atoms: C_5  and  C_6
REMARK    3  A    between atoms: C_16  and  O_17
REMARK    4  A    between atoms: O_17  and  C_18
REMARK    5  A    between atoms: C_18  and  C_19
REMARK    6  A    between atoms: C_28  and  O_29
REMARK    7  A    between atoms: C_31  and  O_32
REMARK                            x       y       z     vdW  Elec       q    Type
REMARK                         _______ _______ _______ _____ _____    ______ ____
ROOT
ATOM      1  C   UNL     1      37.453  -0.237  12.928  0.00  0.00    +0.000 C 
ATOM      2  N   UNL     1      38.972  -0.605  12.783  0.00  0.00    +0.000 NA
ATOM      3  C   UNL     1      39.686  -0.392  13.908  0.00  0.00    +0.000 C 
ATOM      4  C   UNL     1      39.971   1.021  14.329  0.00  0.00    +0.000 C 
ATOM      5  C   UNL     1      38.735   1.758  13.903  0.00  0.00    +0.000 A 
ATOM      6  C   UNL     1      37.665   1.289  13.320  0.00  0.00    +0.000 A 
ATOM      7  N   UNL     1      36.784   2.283  13.106  0.00  0.00    +0.000 NA
ATOM      8  C   UNL     1      37.296   3.449  13.567  0.00  0.00    +0.000 A 
ATOM      9  C   UNL     1      36.860   4.759  13.618  0.00  0.00    +0.000 A 
ATOM     10  C   UNL     1      37.702   5.680  14.182  0.00  0.00    +0.000 A 
ATOM     11  C   UNL     1      38.948   5.429  14.707  0.00  0.00    +0.000 A 
ATOM     12  C   UNL     1      39.354   4.122  14.641  0.00  0.00    +0.000 A 
ATOM     13  C   UNL     1      38.538   3.128  14.076  0.00  0.00    +0.000 A 
ENDROOT
BRANCH   1  16
ATOM     14  C   UNL     1      37.272  -2.442  16.133  0.00  0.00    +0.000 A 
ATOM     15  C   UNL     1      37.556  -1.965  14.867  0.00  0.00    +0.000 A 
ATOM     16  C   UNL     1      37.137  -0.804  14.382  0.00  0.00    +0.000 A 
ATOM     17  C   UNL     1      36.352   0.013  15.189  0.00  0.00    +0.000 A 
ATOM     18  C   UNL     1      36.034  -0.414  16.469  0.00  0.00    +0.000 A 
ATOM     19  C   UNL     1      36.499  -1.651  16.944  0.00  0.00    +0.000 A 
BRANCH  14  21
ATOM     20  C   UNL     1      38.821  -4.021  17.307  0.00  0.00    +0.000 C 
ATOM     21  O   UNL     1      37.715  -3.650  16.619  0.00  0.00    +0.000 OA
ENDBRANCH  14  21
BRANCH  18  22
ATOM     22  O   UNL     1      35.251   0.383  17.297  0.00  0.00    +0.000 OA
ATOM     23  C   UNL     1      34.884   1.666  16.837  0.00  0.00    +0.000 C 
ENDBRANCH  18  22
BRANCH  19  24
ATOM     24  O   UNL     1      36.133  -1.999  18.240  0.00  0.00    +0.000 OA
ATOM     25  C   UNL     1      36.870  -1.656  19.383  0.00  0.00    +0.000 C 
ENDBRANCH  19  24
ENDBRANCH   1  16
BRANCH  11  26
ATOM     26  O   UNL     1      39.739   6.451  15.267  0.00  0.00    +0.000 OA
BRANCH  26  27
ATOM     27  C   UNL     1      40.987   6.137  15.870  0.00  0.00    +0.000 C 
BRANCH  27  28
ATOM     28  C   UNL     1      40.910   6.242  17.335  0.00  0.00    +0.000 A 
ATOM     29  C   UNL     1      39.784   6.137  18.106  0.00  0.00    +0.000 A 
ATOM     30  C   UNL     1      39.819   6.251  19.485  0.00  0.00    +0.000 A 
ATOM     31  C   UNL     1      41.024   6.480  20.128  0.00  0.00    +0.000 A 
ATOM     32  C   UNL     1      42.148   6.587  19.378  0.00  0.00    +0.000 A 
ATOM     33  C   UNL     1      42.106   6.473  18.012  0.00  0.00    +0.000 A 
ENDBRANCH  27  28
ENDBRANCH  26  27
ENDBRANCH  11  26
TORSDOF 7
ENDMDL
MODEL 4
REMARK VINA RESULT:      -7.6      4.105      6.546
REMARK  Name = 
REMARK  7 active torsions:
REMARK  status: ('A' for Active; 'I' for Inactive)
REMARK    1  A    between atoms: O_2  and  C_3
REMARK    2  A    between atoms: C_5  and  C_6
REMARK    3  A    between atoms: C_16  and  O_17
REMARK    4  A    between atoms: O_17  and  C_18
REMARK    5  A    between atoms: C_18  and  C_19
REMARK    6  A    between atoms: C_28  and  O_29
REMARK    7  A    between atoms: C_31  and  O_32
REMARK                            x       y       z     vdW  Elec       q    Type
REMARK                         _______ _______ _______ _____ _____    ______ ____
ROOT
ATOM      1  C   UNL     1      37.041  -3.256  14.315  0.00  0.00    +0.000 C 
ATOM      2  N   UNL     1      37.442  -4.026  15.623  0.00  0.00    +0.000 NA
ATOM      3  C   UNL     1      38.103  -3.260  16.517  0.00  0.00    +0.000 C 
ATOM      4  C   UNL     1      39.515  -2.848  16.214  0.00  0.00    +0.000 C 
ATOM      5  C   UNL     1      39.506  -2.676  14.723  0.00  0.00    +0.000 A 
ATOM      6  C   UNL     1      38.513  -2.832  13.889  0.00  0.00    +0.000 A 
ATOM      7  N   UNL     1      38.924  -2.580  12.633  0.00  0.00    +0.000 NA
ATOM      8  C   UNL     1      40.236  -2.246  12.643  0.00  0.00    +0.000 A 
ATOM      9  C   UNL     1      41.166  -1.897  11.683  0.00  0.00    +0.000 A 
ATOM     10  C   UNL     1      42.438  -1.624  12.112  0.00  0.00    +0.000 A 
ATOM     11  C   UNL     1      42.885  -1.662  13.412  0.00  0.00    +0.000 A 
ATOM     12  C   UNL     1      41.940  -2.012  14.340  0.00  0.00    +0.000 A 
ATOM     13  C   UNL     1      40.618  -2.304  13.968  0.00  0.00    +0.000 A 
ENDROOT
BRANCH   1  16
ATOM     14  C   UNL     1      35.603  -0.457  16.609  0.00  0.00    +0.000 A 
ATOM     15  C   UNL     1      36.011  -1.678  16.104  0.00  0.00    +0.000 A 
ATOM     16  C   UNL     1      36.565  -1.861  14.913  0.00  0.00    +0.000 A 
ATOM     17  C   UNL     1      36.761  -0.755  14.092  0.00  0.00    +0.000 A 
ATOM     18  C   UNL     1      36.371   0.496  14.545  0.00  0.00    +0.000 A 
ATOM     19  C   UNL     1      35.787   0.644  15.813  0.00  0.00    +0.000 A 
BRANCH  14  21
ATOM     20  C   UNL     1      35.541  -0.162  19.094  0.00  0.00    +0.000 C 
ATOM     21  O   UNL     1      35.029  -0.288  17.847  0.00  0.00    +0.000 OA
ENDBRANCH  14  21
BRANCH  18  22
ATOM     22  O   UNL     1      36.555   1.617  13.744  0.00  0.00    +0.000 OA
ATOM     23  C   UNL     1      37.774   1.745  13.043  0.00  0.00    +0.000 C 
ENDBRANCH  18  22
BRANCH  19  24
ATOM     24  O   UNL     1      35.427   1.935  16.186  0.00  0.00    +0.000 OA
ATOM     25  C   UNL     1      36.296   2.845  16.808  0.00  0.00    +0.000 C 
ENDBRANCH  19  24
ENDBRANCH   1  16
BRANCH  11  26
ATOM     26  O   UNL     1      44.219  -1.362  13.748  0.00  0.00    +0.000 OA
BRANCH  26  27
ATOM     27  C   UNL     1      45.029  -2.338  14.389  0.00  0.00    +0.000 C 
BRANCH  27  28
ATOM     28  C   UNL     1      45.420  -1.902  15.738  0.00  0.00    +0.000 A 
ATOM     29  C   UNL     1      45.916  -2.689  16.742  0.00  0.00    +0.000 A 
ATOM     30  C   UNL     1      46.255  -2.177  17.983  0.00  0.00    +0.000 A 
ATOM     31  C   UNL     1      46.096  -0.826  18.239  0.00  0.00    +0.000 A 
ATOM     32  C   UNL     1      45.606  -0.034  17.255  0.00  0.00    +0.000 A 
ATOM     33  C   UNL     1      45.271  -0.547  16.028  0.00  0.00    +0.000 A 
ENDBRANCH  27  28
ENDBRANCH  26  27
ENDBRANCH  11  26
TORSDOF 7
ENDMDL
MODEL 5
REMARK VINA RESULT:      -7.4      1.261      1.827
REMARK  Name = 
REMARK  7 active torsions:
REMARK  status: ('A' for Active; 'I' for Inactive)
REMARK    1  A    between atoms: O_2  and  C_3
REMARK    2  A    between atoms: C_5  and  C_6
REMARK    3  A    between atoms: C_16  and  O_17
REMARK    4  A    between atoms: O_17  and  C_18
REMARK    5  A    between atoms: C_18  and  C_19
REMARK    6  A    between atoms: C_28  and  O_29
REMARK    7  A    between atoms: C_31  and  O_32
REMARK                            x       y       z     vdW  Elec       q    Type
REMARK                         _______ _______ _______ _____ _____    ______ ____
ROOT
ATOM      1  C   UNL     1      37.924  -1.723  13.619  0.00  0.00    +0.000 C 
ATOM      2  N   UNL     1      39.424  -2.040  13.280  0.00  0.00    +0.000 NA
ATOM      3  C   UNL     1      40.289  -1.623  14.228  0.00  0.00    +0.000 C 
ATOM      4  C   UNL     1      40.537  -0.150  14.385  0.00  0.00    +0.000 C 
ATOM      5  C   UNL     1      39.202   0.454  14.065  0.00  0.00    +0.000 A 
ATOM      6  C   UNL     1      38.089  -0.147  13.742  0.00  0.00    +0.000 A 
ATOM      7  N   UNL     1      37.119   0.761  13.533  0.00  0.00    +0.000 NA
ATOM      8  C   UNL     1      37.614   2.007  13.727  0.00  0.00    +0.000 A 
ATOM      9  C   UNL     1      37.101   3.288  13.658  0.00  0.00    +0.000 A 
ATOM     10  C   UNL     1      37.955   4.322  13.934  0.00  0.00    +0.000 A 
ATOM     11  C   UNL     1      39.283   4.212  14.277  0.00  0.00    +0.000 A 
ATOM     12  C   UNL     1      39.763   2.930  14.337  0.00  0.00    +0.000 A 
ATOM     13  C   UNL     1      38.940   1.825  14.066  0.00  0.00    +0.000 A 
ENDROOT
BRANCH   1  16
ATOM     14  C   UNL     1      37.499  -1.553  17.486  0.00  0.00    +0.000 A 
ATOM     15  C   UNL     1      37.532  -1.235  16.140  0.00  0.00    +0.000 A 
ATOM     16  C   UNL     1      37.880  -2.070  15.171  0.00  0.00    +0.000 A 
ATOM     17  C   UNL     1      38.243  -3.371  15.509  0.00  0.00    +0.000 A 
ATOM     18  C   UNL     1      38.228  -3.747  16.843  0.00  0.00    +0.000 A 
ATOM     19  C   UNL     1      37.854  -2.830  17.838  0.00  0.00    +0.000 A 
BRANCH  14  21
ATOM     20  C   UNL     1      35.939  -0.238  18.936  0.00  0.00    +0.000 C 
ATOM     21  O   UNL     1      37.136  -0.672  18.478  0.00  0.00    +0.000 OA
ENDBRANCH  14  21
BRANCH  18  22
ATOM     22  O   UNL     1      38.586  -5.040  17.207  0.00  0.00    +0.000 OA
ATOM     23  C   UNL     1      37.577  -6.027  17.247  0.00  0.00    +0.000 C 
ENDBRANCH  18  22
BRANCH  19  24
ATOM     24  O   UNL     1      37.868  -3.293  19.150  0.00  0.00    +0.000 OA
ATOM     25  C   UNL     1      39.037  -3.501  19.898  0.00  0.00    +0.000 C 
ENDBRANCH  19  24
ENDBRANCH   1  16
BRANCH  11  26
ATOM     26  O   UNL     1      40.078   5.343  14.543  0.00  0.00    +0.000 OA
BRANCH  26  27
ATOM     27  C   UNL     1      39.537   6.438  15.271  0.00  0.00    +0.000 C 
BRANCH  27  28
ATOM     28  C   UNL     1      39.781   6.288  16.714  0.00  0.00    +0.000 A 
ATOM     29  C   UNL     1      38.868   5.918  17.665  0.00  0.00    +0.000 A 
ATOM     30  C   UNL     1      39.200   5.806  19.003  0.00  0.00    +0.000 A 
ATOM     31  C   UNL     1      40.494   6.071  19.419  0.00  0.00    +0.000 A 
ATOM     32  C   UNL     1      41.409   6.438  18.489  0.00  0.00    +0.000 A 
ATOM     33  C   UNL     1      41.074   6.548  17.164  0.00  0.00    +0.000 A 
ENDBRANCH  27  28
ENDBRANCH  26  27
ENDBRANCH  11  26
TORSDOF 7
ENDMDL
MODEL 6
REMARK VINA RESULT:      -7.1     23.729     27.154
REMARK  Name = 
REMARK  7 active torsions:
REMARK  status: ('A' for Active; 'I' for Inactive)
REMARK    1  A    between atoms: O_2  and  C_3
REMARK    2  A    between atoms: C_5  and  C_6
REMARK    3  A    between atoms: C_16  and  O_17
REMARK    4  A    between atoms: O_17  and  C_18
REMARK    5  A    between atoms: C_18  and  C_19
REMARK    6  A    between atoms: C_28  and  O_29
REMARK    7  A    between atoms: C_31  and  O_32
REMARK                            x       y       z     vdW  Elec       q    Type
REMARK                         _______ _______ _______ _____ _____    ______ ____
ROOT
ATOM      1  C   UNL     1      11.744   0.119  29.112  0.00  0.00    +0.000 C 
ATOM      2  N   UNL     1      10.973   0.549  27.813  0.00  0.00    +0.000 NA
ATOM      3  C   UNL     1      11.134  -0.309  26.784  0.00  0.00    +0.000 C 
ATOM      4  C   UNL     1      12.464  -0.366  26.089  0.00  0.00    +0.000 C 
ATOM      5  C   UNL     1      13.439  -0.112  27.201  0.00  0.00    +0.000 A 
ATOM      6  C   UNL     1      13.198   0.095  28.468  0.00  0.00    +0.000 A 
ATOM      7  N   UNL     1      14.352   0.282  29.132  0.00  0.00    +0.000 NA
ATOM      8  C   UNL     1      15.391   0.194  28.268  0.00  0.00    +0.000 A 
ATOM      9  C   UNL     1      16.766   0.296  28.373  0.00  0.00    +0.000 A 
ATOM     10  C   UNL     1      17.496   0.141  27.225  0.00  0.00    +0.000 A 
ATOM     11  C   UNL     1      16.995  -0.110  25.969  0.00  0.00    +0.000 A 
ATOM     12  C   UNL     1      15.631  -0.205  25.896  0.00  0.00    +0.000 A 
ATOM     13  C   UNL     1      14.823  -0.056  27.035  0.00  0.00    +0.000 A 
ENDROOT
BRANCH   1  16
ATOM     14  C   UNL     1      12.116  -3.745  29.422  0.00  0.00    +0.000 A 
ATOM     15  C   UNL     1      12.367  -2.385  29.416  0.00  0.00    +0.000 A 
ATOM     16  C   UNL     1      11.474  -1.449  29.124  0.00  0.00    +0.000 A 
ATOM     17  C   UNL     1      10.180  -1.841  28.797  0.00  0.00    +0.000 A 
ATOM     18  C   UNL     1       9.869  -3.192  28.786  0.00  0.00    +0.000 A 
ATOM     19  C   UNL     1      10.846  -4.150  29.101  0.00  0.00    +0.000 A 
BRANCH  14  21
ATOM     20  C   UNL     1      13.539  -5.184  30.896  0.00  0.00    +0.000 C 
ATOM     21  O   UNL     1      13.056  -4.701  29.727  0.00  0.00    +0.000 OA
ENDBRANCH  14  21
BRANCH  18  22
ATOM     22  O   UNL     1       8.584  -3.610  28.463  0.00  0.00    +0.000 OA
ATOM     23  C   UNL     1       8.257  -3.772  27.098  0.00  0.00    +0.000 C 
ENDBRANCH  18  22
BRANCH  19  24
ATOM     24  O   UNL     1      10.446  -5.482  29.066  0.00  0.00    +0.000 OA
ATOM     25  C   UNL     1      10.827  -6.391  28.068  0.00  0.00    +0.000 C 
ENDBRANCH  19  24
ENDBRANCH   1  16
BRANCH  11  26
ATOM     26  O   UNL     1      17.837  -0.254  24.849  0.00  0.00    +0.000 OA
BRANCH  26  27
ATOM     27  C   UNL     1      19.220  -0.524  25.028  0.00  0.00    +0.000 C 
BRANCH  27  28
ATOM     28  C   UNL     1      19.882  -0.782  23.740  0.00  0.00    +0.000 A 
ATOM     29  C   UNL     1      19.910  -1.967  23.056  0.00  0.00    +0.000 A 
ATOM     30  C   UNL     1      20.564  -2.106  21.844  0.00  0.00    +0.000 A 
ATOM     31  C   UNL     1      21.221  -1.022  21.286  0.00  0.00    +0.000 A 
ATOM     32  C   UNL     1      21.202   0.158  21.952  0.00  0.00    +0.000 A 
ATOM     33  C   UNL     1      20.553   0.289  23.152  0.00  0.00    +0.000 A 
ENDBRANCH  27  28
ENDBRANCH  26  27
ENDBRANCH  11  26
TORSDOF 7
ENDMDL
MODEL 7
REMARK VINA RESULT:      -7.0      4.954      9.381
REMARK  Name = 
REMARK  7 active torsions:
REMARK  status: ('A' for Active; 'I' for Inactive)
REMARK    1  A    between atoms: O_2  and  C_3
REMARK    2  A    between atoms: C_5  and  C_6
REMARK    3  A    between atoms: C_16  and  O_17
REMARK    4  A    between atoms: O_17  and  C_18
REMARK    5  A    between atoms: C_18  and  C_19
REMARK    6  A    between atoms: C_28  and  O_29
REMARK    7  A    between atoms: C_31  and  O_32
REMARK                            x       y       z     vdW  Elec       q    Type
REMARK                         _______ _______ _______ _____ _____    ______ ____
ROOT
ATOM      1  C   UNL     1      41.008   6.167  19.859  0.00  0.00    +0.000 C 
ATOM      2  N   UNL     1      42.269   6.594  19.029  0.00  0.00    +0.000 NA
ATOM      3  C   UNL     1      42.020   7.583  18.144  0.00  0.00    +0.000 C 
ATOM      4  C   UNL     1      41.204   7.273  16.922  0.00  0.00    +0.000 C 
ATOM      5  C   UNL     1      40.224   6.251  17.419  0.00  0.00    +0.000 A 
ATOM      6  C   UNL     1      40.098   5.757  18.621  0.00  0.00    +0.000 A 
ATOM      7  N   UNL     1      39.094   4.862  18.649  0.00  0.00    +0.000 NA
ATOM      8  C   UNL     1      38.539   4.766  17.417  0.00  0.00    +0.000 A 
ATOM      9  C   UNL     1      37.508   4.033  16.861  0.00  0.00    +0.000 A 
ATOM     10  C   UNL     1      37.248   4.226  15.530  0.00  0.00    +0.000 A 
ATOM     11  C   UNL     1      37.915   5.083  14.686  0.00  0.00    +0.000 A 
ATOM     12  C   UNL     1      38.932   5.794  15.266  0.00  0.00    +0.000 A 
ATOM     13  C   UNL     1      39.250   5.644  16.625  0.00  0.00    +0.000 A 
ENDROOT
BRANCH   1  16
ATOM     14  C   UNL     1      40.417   9.905  20.774  0.00  0.00    +0.000 A 
ATOM     15  C   UNL     1      41.006   8.682  20.509  0.00  0.00    +0.000 A 
ATOM     16  C   UNL     1      40.349   7.582  20.169  0.00  0.00    +0.000 A 
ATOM     17  C   UNL     1      38.962   7.636  20.065  0.00  0.00    +0.000 A 
ATOM     18  C   UNL     1      38.317   8.836  20.320  0.00  0.00    +0.000 A 
ATOM     19  C   UNL     1      39.051   9.979  20.678  0.00  0.00    +0.000 A 
BRANCH  14  21
ATOM     20  C   UNL     1      42.236  11.243  21.856  0.00  0.00    +0.000 C 
ATOM     21  O   UNL     1      41.115  11.037  21.126  0.00  0.00    +0.000 OA
ENDBRANCH  14  21
BRANCH  18  22
ATOM     22  O   UNL     1      36.933   8.918  20.224  0.00  0.00    +0.000 OA
ATOM     23  C   UNL     1      36.349   8.882  18.938  0.00  0.00    +0.000 C 
ENDBRANCH  18  22
BRANCH  19  24
ATOM     24  O   UNL     1      38.321  11.139  20.915  0.00  0.00    +0.000 OA
ATOM     25  C   UNL     1      38.052  12.111  19.939  0.00  0.00    +0.000 C 
ENDBRANCH  19  24
ENDBRANCH   1  16
BRANCH  11  26
ATOM     26  O   UNL     1      37.567   5.207  13.327  0.00  0.00    +0.000 OA
BRANCH  26  27
ATOM     27  C   UNL     1      37.240   6.481  12.790  0.00  0.00    +0.000 C 
BRANCH  27  28
ATOM     28  C   UNL     1      36.060   7.052  13.458  0.00  0.00    +0.000 A 
ATOM     29  C   UNL     1      36.031   8.156  14.266  0.00  0.00    +0.000 A 
ATOM     30  C   UNL     1      34.862   8.614  14.849  0.00  0.00    +0.000 A 
ATOM     31  C   UNL     1      33.670   7.947  14.622  0.00  0.00    +0.000 A 
ATOM     32  C   UNL     1      33.683   6.853  13.824  0.00  0.00    +0.000 A 
ATOM     33  C   UNL     1      34.844   6.404  13.249  0.00  0.00    +0.000 A 
ENDBRANCH  27  28
ENDBRANCH  26  27
ENDBRANCH  11  26
TORSDOF 7
ENDMDL
MODEL 8
REMARK VINA RESULT:      -7.0      2.840      4.182
REMARK  Name = 
REMARK  7 active torsions:
REMARK  status: ('A' for Active; 'I' for Inactive)
REMARK    1  A    between atoms: O_2  and  C_3
REMARK    2  A    between atoms: C_5  and  C_6
REMARK    3  A    between atoms: C_16  and  O_17
REMARK    4  A    between atoms: O_17  and  C_18
REMARK    5  A    between atoms: C_18  and  C_19
REMARK    6  A    between atoms: C_28  and  O_29
REMARK    7  A    between atoms: C_31  and  O_32
REMARK                            x       y       z     vdW  Elec       q    Type
REMARK                         _______ _______ _______ _____ _____    ______ ____
ROOT
ATOM      1  C   UNL     1      37.983   1.329  11.088  0.00  0.00    +0.000 C 
ATOM      2  N   UNL     1      39.114   2.339  10.679  0.00  0.00    +0.000 NA
ATOM      3  C   UNL     1      40.196   2.288  11.484  0.00  0.00    +0.000 C 
ATOM      4  C   UNL     1      40.087   2.829  12.880  0.00  0.00    +0.000 C 
ATOM      5  C   UNL     1      38.674   2.500  13.262  0.00  0.00    +0.000 A 
ATOM      6  C   UNL     1      37.761   1.883  12.562  0.00  0.00    +0.000 A 
ATOM      7  N   UNL     1      36.622   1.789  13.271  0.00  0.00    +0.000 NA
ATOM      8  C   UNL     1      36.794   2.368  14.483  0.00  0.00    +0.000 A 
ATOM      9  C   UNL     1      35.999   2.567  15.596  0.00  0.00    +0.000 A 
ATOM     10  C   UNL     1      36.562   3.219  16.660  0.00  0.00    +0.000 A 
ATOM     11  C   UNL     1      37.850   3.699  16.733  0.00  0.00    +0.000 A 
ATOM     12  C   UNL     1      38.612   3.487  15.615  0.00  0.00    +0.000 A 
ATOM     13  C   UNL     1      38.097   2.824  14.490  0.00  0.00    +0.000 A 
ENDROOT
BRANCH   1  16
ATOM     14  C   UNL     1      39.543  -1.741  12.907  0.00  0.00    +0.000 A 
ATOM     15  C   UNL     1      38.790  -0.621  12.604  0.00  0.00    +0.000 A 
ATOM     16  C   UNL     1      38.840   0.040  11.455  0.00  0.00    +0.000 A 
ATOM     17  C   UNL     1      39.709  -0.409  10.464  0.00  0.00    +0.000 A 
ATOM     18  C   UNL     1      40.489  -1.528  10.712  0.00  0.00    +0.000 A 
ATOM     19  C   UNL     1      40.405  -2.198  11.943  0.00  0.00    +0.000 A 
BRANCH  14  21
ATOM     20  C   UNL     1      38.450  -2.908  14.833  0.00  0.00    +0.000 C 
ATOM     21  O   UNL     1      39.478  -2.413  14.105  0.00  0.00    +0.000 OA
ENDBRANCH  14  21
BRANCH  18  22
ATOM     22  O   UNL     1      41.364  -1.997   9.739  0.00  0.00    +0.000 OA
ATOM     23  C   UNL     1      40.835  -2.762   8.676  0.00  0.00    +0.000 C 
ENDBRANCH  18  22
BRANCH  19  24
ATOM     24  O   UNL     1      41.224  -3.311  12.105  0.00  0.00    +0.000 OA
ATOM     25  C   UNL     1      42.514  -3.264  12.653  0.00  0.00    +0.000 C 
ENDBRANCH  19  24
ENDBRANCH   1  16
BRANCH  11  26
ATOM     26  O   UNL     1      38.333   4.359  17.880  0.00  0.00    +0.000 OA
BRANCH  26  27
ATOM     27  C   UNL     1      38.581   5.758  17.845  0.00  0.00    +0.000 C 
BRANCH  27  28
ATOM     28  C   UNL     1      39.902   6.077  18.409  0.00  0.00    +0.000 A 
ATOM     29  C   UNL     1      40.212   6.227  19.733  0.00  0.00    +0.000 A 
ATOM     30  C   UNL     1      41.493   6.529  20.162  0.00  0.00    +0.000 A 
ATOM     31  C   UNL     1      42.511   6.689  19.237  0.00  0.00    +0.000 A 
ATOM     32  C   UNL     1      42.219   6.544  17.923  0.00  0.00    +0.000 A 
ATOM     33  C   UNL     1      40.948   6.245  17.503  0.00  0.00    +0.000 A 
ENDBRANCH  27  28
ENDBRANCH  26  27
ENDBRANCH  11  26
TORSDOF 7
ENDMDL
MODEL 9
REMARK VINA RESULT:      -7.0     28.887     31.926
REMARK  Name = 
REMARK  7 active torsions:
REMARK  status: ('A' for Active; 'I' for Inactive)
REMARK    1  A    between atoms: O_2  and  C_3
REMARK    2  A    between atoms: C_5  and  C_6
REMARK    3  A    between atoms: C_16  and  O_17
REMARK    4  A    between atoms: O_17  and  C_18
REMARK    5  A    between atoms: C_18  and  C_19
REMARK    6  A    between atoms: C_28  and  O_29
REMARK    7  A    between atoms: C_31  and  O_32
REMARK                            x       y       z     vdW  Elec       q    Type
REMARK                         _______ _______ _______ _____ _____    ______ ____
ROOT
ATOM      1  C   UNL     1      22.591  15.349  43.946  0.00  0.00    +0.000 C 
ATOM      2  N   UNL     1      21.396  16.060  43.218  0.00  0.00    +0.000 NA
ATOM      3  C   UNL     1      20.907  15.357  42.175  0.00  0.00    +0.000 C 
ATOM      4  C   UNL     1      21.730  15.250  40.923  0.00  0.00    +0.000 C 
ATOM      5  C   UNL     1      23.137  15.215  41.444  0.00  0.00    +0.000 A 
ATOM      6  C   UNL     1      23.551  15.252  42.682  0.00  0.00    +0.000 A 
ATOM      7  N   UNL     1      24.894  15.198  42.721  0.00  0.00    +0.000 NA
ATOM      8  C   UNL     1      25.381  15.121  41.459  0.00  0.00    +0.000 A 
ATOM      9  C   UNL     1      26.641  15.043  40.897  0.00  0.00    +0.000 A 
ATOM     10  C   UNL     1      26.716  14.980  39.532  0.00  0.00    +0.000 A 
ATOM     11  C   UNL     1      25.655  14.985  38.656  0.00  0.00    +0.000 A 
ATOM     12  C   UNL     1      24.420  15.064  39.243  0.00  0.00    +0.000 A 
ATOM     13  C   UNL     1      24.272  15.131  40.637  0.00  0.00    +0.000 A 
ENDROOT
BRANCH   1  16
ATOM     14  C   UNL     1      22.312  11.485  43.546  0.00  0.00    +0.000 A 
ATOM     15  C   UNL     1      22.767  12.791  43.523  0.00  0.00    +0.000 A 
ATOM     16  C   UNL     1      22.086  13.840  43.964  0.00  0.00    +0.000 A 
ATOM     17  C   UNL     1      20.816  13.636  44.496  0.00  0.00    +0.000 A 
ATOM     18  C   UNL     1      20.307  12.347  44.545  0.00  0.00    +0.000 A 
ATOM     19  C   UNL     1      21.062  11.265  44.066  0.00  0.00    +0.000 A 
BRANCH  14  21
ATOM     20  C   UNL     1      24.206   9.850  43.461  0.00  0.00    +0.000 C 
ATOM     21  O   UNL     1      23.033  10.409  43.084  0.00  0.00    +0.000 OA
ENDBRANCH  14  21
BRANCH  18  22
ATOM     22  O   UNL     1      19.042  12.116  45.070  0.00  0.00    +0.000 OA
ATOM     23  C   UNL     1      17.957  12.857  44.551  0.00  0.00    +0.000 C 
ENDBRANCH  18  22
BRANCH  19  24
ATOM     24  O   UNL     1      20.474  10.007  44.155  0.00  0.00    +0.000 OA
ATOM     25  C   UNL     1      20.684   9.115  45.217  0.00  0.00    +0.000 C 
ENDBRANCH  19  24
ENDBRANCH   1  16
BRANCH  11  26
ATOM     26  O   UNL     1      25.842  14.916  37.262  0.00  0.00    +0.000 OA
BRANCH  26  27
ATOM     27  C   UNL     1      25.985  16.109  36.503  0.00  0.00    +0.000 C 
BRANCH  27  28
ATOM     28  C   UNL     1      25.670  15.877  35.085  0.00  0.00    +0.000 A 
ATOM     29  C   UNL     1      25.842  14.712  34.387  0.00  0.00    +0.000 A 
ATOM     30  C   UNL     1      25.511  14.597  33.048  0.00  0.00    +0.000 A 
ATOM     31  C   UNL     1      24.988  15.685  32.370  0.00  0.00    +0.000 A 
ATOM     32  C   UNL     1      24.812  16.845  33.047  0.00  0.00    +0.000 A 
ATOM     33  C   UNL     1      25.141  16.953  34.374  0.00  0.00    +0.000 A 
ENDBRANCH  27  28
ENDBRANCH  26  27
ENDBRANCH  11  26
TORSDOF 7
ENDMDL
MODEL 10
REMARK VINA RESULT:      -7.0     26.409     28.863
REMARK  Name = 
REMARK  7 active torsions:
REMARK  status: ('A' for Active; 'I' for Inactive)
REMARK    1  A    between atoms: O_2  and  C_3
REMARK    2  A    between atoms: C_5  and  C_6
REMARK    3  A    between atoms: C_16  and  O_17
REMARK    4  A    between atoms: O_17  and  C_18
REMARK    5  A    between atoms: C_18  and  C_19
REMARK    6  A    between atoms: C_28  and  O_29
REMARK    7  A    between atoms: C_31  and  O_32
REMARK                            x       y       z     vdW  Elec       q    Type
REMARK                         _______ _______ _______ _____ _____    ______ ____
ROOT
ATOM      1  C   UNL     1      27.286  14.845  41.494  0.00  0.00    +0.000 C 
ATOM      2  N   UNL     1      25.792  15.322  41.559  0.00  0.00    +0.000 NA
ATOM      3  C   UNL     1      24.968  14.621  40.752  0.00  0.00    +0.000 C 
ATOM      4  C   UNL     1      25.065  14.820  39.267  0.00  0.00    +0.000 C 
ATOM      5  C   UNL     1      26.530  15.066  39.053  0.00  0.00    +0.000 A 
ATOM      6  C   UNL     1      27.492  15.088  39.936  0.00  0.00    +0.000 A 
ATOM      7  N   UNL     1      28.666  15.343  39.331  0.00  0.00    +0.000 NA
ATOM      8  C   UNL     1      28.467  15.494  38.000  0.00  0.00    +0.000 A 
ATOM      9  C   UNL     1      29.276  15.761  36.912  0.00  0.00    +0.000 A 
ATOM     10  C   UNL     1      28.671  15.839  35.685  0.00  0.00    +0.000 A 
ATOM     11  C   UNL     1      27.330  15.676  35.426  0.00  0.00    +0.000 A 
ATOM     12  C   UNL     1      26.555  15.414  36.525  0.00  0.00    +0.000 A 
ATOM     13  C   UNL     1      27.111  15.320  37.811  0.00  0.00    +0.000 A 
ENDROOT
BRANCH   1  16
ATOM     14  C   UNL     1      27.727  11.037  40.809  0.00  0.00    +0.000 A 
ATOM     15  C   UNL     1      27.900  12.409  40.831  0.00  0.00    +0.000 A 
ATOM     16  C   UNL     1      27.103  13.265  41.456  0.00  0.00    +0.000 A 
ATOM     17  C   UNL     1      26.003  12.769  42.149  0.00  0.00    +0.000 A 
ATOM     18  C   UNL     1      25.778  11.401  42.162  0.00  0.00    +0.000 A 
ATOM     19  C   UNL     1      26.647  10.530  41.486  0.00  0.00    +0.000 A 
BRANCH  14  21
ATOM     20  C   UNL     1      29.685   9.503  40.527  0.00  0.00    +0.000 C 
ATOM     21  O   UNL     1      28.564  10.164  40.155  0.00  0.00    +0.000 OA
ENDBRANCH  14  21
BRANCH  18  22
ATOM     22  O   UNL     1      24.686  10.880  42.846  0.00  0.00    +0.000 OA
ATOM     23  C   UNL     1      24.590  11.122  44.235  0.00  0.00    +0.000 C 
ENDBRANCH  18  22
BRANCH  19  24
ATOM     24  O   UNL     1      26.346   9.173  41.552  0.00  0.00    +0.000 OA
ATOM     25  C   UNL     1      26.817   8.312  42.555  0.00  0.00    +0.000 C 
ENDBRANCH  19  24
ENDBRANCH   1  16
BRANCH  11  26
ATOM     26  O   UNL     1      26.808  15.777  34.122  0.00  0.00    +0.000 OA
BRANCH  26  27
ATOM     27  C   UNL     1      25.402  15.812  33.920  0.00  0.00    +0.000 C 
BRANCH  27  28
ATOM     28  C   UNL     1      24.921  17.193  33.763  0.00  0.00    +0.000 A 
ATOM     29  C   UNL     1      24.898  18.167  34.725  0.00  0.00    +0.000 A 
ATOM     30  C   UNL     1      24.424  19.443  34.474  0.00  0.00    +0.000 A 
ATOM     31  C   UNL     1      23.952  19.768  33.214  0.00  0.00    +0.000 A 
ATOM     32  C   UNL     1      23.968  18.815  32.251  0.00  0.00    +0.000 A 
ATOM     33  C   UNL     1      24.439  17.552  32.506  0.00  0.00    +0.000 A 
ENDBRANCH  27  28
ENDBRANCH  26  27
ENDBRANCH  11  26
TORSDOF 7
ENDMDL
