MODEL 1
REMARK VINA RESULT:      -6.4      0.000      0.000
REMARK  Name = 
REMARK  3 active torsions:
REMARK  status: ('A' for Active; 'I' for Inactive)
REMARK    1  A    between atoms: C_2  and  C_3
REMARK    2  A    between atoms: C_6  and  N_7
REMARK    3  A    between atoms: N_7  and  C_8
REMARK                            x       y       z     vdW  Elec       q    Type
REMARK                         _______ _______ _______ _____ _____    ______ ____
ROOT
ATOM      1  C   UNL     1      15.984  10.155  39.471  0.00  0.00    +0.000 A 
ATOM      2  C   UNL     1      15.885  10.883  38.345  0.00  0.00    +0.000 A 
ATOM      3  C   UNL     1      14.676  11.222  37.879  0.00  0.00    +0.000 A 
ATOM      4  C   UNL     1      14.400  11.969  36.734  0.00  0.00    +0.000 A 
ATOM      5  N   UNL     1      13.127  12.211  36.421  0.00  0.00    +0.000 NA
ATOM      6  C   UNL     1      12.061  11.800  37.113  0.00  0.00    +0.000 A 
ATOM      7  N   UNL     1      12.311  11.074  38.230  0.00  0.00    +0.000 NA
ATOM      8  C   UNL     1      13.595  10.788  38.608  0.00  0.00    +0.000 A 
ATOM      9  S   UNL     1      14.334   9.937  39.893  0.00  0.00    +0.000 S 
ENDROOT
BRANCH   1  11
ATOM     10  C   UNL     1      16.791   9.253  41.595  0.00  0.00    +0.000 C 
ATOM     11  C   UNL     1      17.213   9.654  40.186  0.00  0.00    +0.000 C 
ENDBRANCH   1  11
BRANCH   4  12
ATOM     12  N   UNL     1      15.479  12.465  35.909  0.00  0.00    +0.000 NA
BRANCH  12  13
ATOM     13  C   UNL     1      15.851  11.788  34.716  0.00  0.00    +0.000 A 
ATOM     14  C   UNL     1      16.963  10.971  34.734  0.00  0.00    +0.000 A 
ATOM     15  C   UNL     1      17.385  10.290  33.635  0.00  0.00    +0.000 A 
ATOM     16  C   UNL     1      16.693  10.407  32.452  0.00  0.00    +0.000 A 
ATOM     17  C   UNL     1      15.571  11.224  32.410  0.00  0.00    +0.000 A 
ATOM     18  O   UNL     1      14.915  11.302  31.194  0.00  0.00    +0.000 OA
ATOM     19  C   UNL     1      15.165  11.902  33.538  0.00  0.00    +0.000 A 
ENDBRANCH  12  13
ENDBRANCH   4  12
TORSDOF 3
ENDMDL
MODEL 2
REMARK VINA RESULT:      -6.3     18.558     20.221
REMARK  Name = 
REMARK  3 active torsions:
REMARK  status: ('A' for Active; 'I' for Inactive)
REMARK    1  A    between atoms: C_2  and  C_3
REMARK    2  A    between atoms: C_6  and  N_7
REMARK    3  A    between atoms: N_7  and  C_8
REMARK                            x       y       z     vdW  Elec       q    Type
REMARK                         _______ _______ _______ _____ _____    ______ ____
ROOT
ATOM      1  C   UNL     1      26.144  23.782  29.499  0.00  0.00    +0.000 A 
ATOM      2  C   UNL     1      26.206  23.487  28.189  0.00  0.00    +0.000 A 
ATOM      3  C   UNL     1      25.636  24.307  27.297  0.00  0.00    +0.000 A 
ATOM      4  C   UNL     1      25.611  24.148  25.911  0.00  0.00    +0.000 A 
ATOM      5  N   UNL     1      24.992  25.071  25.174  0.00  0.00    +0.000 NA
ATOM      6  C   UNL     1      24.378  26.161  25.642  0.00  0.00    +0.000 A 
ATOM      7  N   UNL     1      24.393  26.330  26.986  0.00  0.00    +0.000 NA
ATOM      8  C   UNL     1      25.011  25.421  27.802  0.00  0.00    +0.000 A 
ATOM      9  S   UNL     1      25.259  25.253  29.484  0.00  0.00    +0.000 S 
ENDROOT
BRANCH   1  11
ATOM     10  C   UNL     1      26.304  21.566  30.518  0.00  0.00    +0.000 C 
ATOM     11  C   UNL     1      26.699  23.029  30.681  0.00  0.00    +0.000 C 
ENDBRANCH   1  11
BRANCH   4  12
ATOM     12  N   UNL     1      26.245  23.003  25.297  0.00  0.00    +0.000 NA
BRANCH  12  13
ATOM     13  C   UNL     1      27.586  23.077  24.832  0.00  0.00    +0.000 A 
ATOM     14  C   UNL     1      28.602  22.656  25.664  0.00  0.00    +0.000 A 
ATOM     15  C   UNL     1      29.911  22.694  25.295  0.00  0.00    +0.000 A 
ATOM     16  C   UNL     1      30.255  23.169  24.051  0.00  0.00    +0.000 A 
ATOM     17  C   UNL     1      29.249  23.599  23.196  0.00  0.00    +0.000 A 
ATOM     18  O   UNL     1      29.654  24.065  21.957  0.00  0.00    +0.000 OA
ATOM     19  C   UNL     1      27.932  23.549  23.595  0.00  0.00    +0.000 A 
ENDBRANCH  12  13
ENDBRANCH   4  12
TORSDOF 3
ENDMDL
MODEL 3
REMARK VINA RESULT:      -6.1      2.590      3.507
REMARK  Name = 
REMARK  3 active torsions:
REMARK  status: ('A' for Active; 'I' for Inactive)
REMARK    1  A    between atoms: C_2  and  C_3
REMARK    2  A    between atoms: C_6  and  N_7
REMARK    3  A    between atoms: N_7  and  C_8
REMARK                            x       y       z     vdW  Elec       q    Type
REMARK                         _______ _______ _______ _____ _____    ______ ____
ROOT
ATOM      1  C   UNL     1      19.406  10.143  37.207  0.00  0.00    +0.000 A 
ATOM      2  C   UNL     1      18.656  10.260  36.097  0.00  0.00    +0.000 A 
ATOM      3  C   UNL     1      17.407  10.732  36.188  0.00  0.00    +0.000 A 
ATOM      4  C   UNL     1      16.503  10.915  35.142  0.00  0.00    +0.000 A 
ATOM      5  N   UNL     1      15.292  11.399  35.420  0.00  0.00    +0.000 NA
ATOM      6  C   UNL     1      14.846  11.734  36.634  0.00  0.00    +0.000 A 
ATOM      7  N   UNL     1      15.712  11.563  37.662  0.00  0.00    +0.000 NA
ATOM      8  C   UNL     1      16.971  11.070  37.447  0.00  0.00    +0.000 A 
ATOM      9  S   UNL     1      18.329  10.710  38.418  0.00  0.00    +0.000 S 
ENDROOT
BRANCH   1  11
ATOM     10  C   UNL     1      21.627  10.759  38.022  0.00  0.00    +0.000 C 
ATOM     11  C   UNL     1      20.821   9.645  37.362  0.00  0.00    +0.000 C 
ENDBRANCH   1  11
BRANCH   4  12
ATOM     12  N   UNL     1      16.881  10.584  33.786  0.00  0.00    +0.000 NA
BRANCH  12  13
ATOM     13  C   UNL     1      16.122  11.061  32.683  0.00  0.00    +0.000 A 
ATOM     14  C   UNL     1      15.006  10.353  32.288  0.00  0.00    +0.000 A 
ATOM     15  C   UNL     1      14.227  10.742  31.243  0.00  0.00    +0.000 A 
ATOM     16  C   UNL     1      14.547  11.881  30.540  0.00  0.00    +0.000 A 
ATOM     17  C   UNL     1      15.667  12.610  30.919  0.00  0.00    +0.000 A 
ATOM     18  O   UNL     1      15.940  13.746  30.177  0.00  0.00    +0.000 OA
ATOM     19  C   UNL     1      16.438  12.193  31.982  0.00  0.00    +0.000 A 
ENDBRANCH  12  13
ENDBRANCH   4  12
TORSDOF 3
ENDMDL
MODEL 4
REMARK VINA RESULT:      -6.1     22.034     23.932
REMARK  Name = 
REMARK  3 active torsions:
REMARK  status: ('A' for Active; 'I' for Inactive)
REMARK    1  A    between atoms: C_2  and  C_3
REMARK    2  A    between atoms: C_6  and  N_7
REMARK    3  A    between atoms: N_7  and  C_8
REMARK                            x       y       z     vdW  Elec       q    Type
REMARK                         _______ _______ _______ _____ _____    ______ ____
ROOT
ATOM      1  C   UNL     1      33.340  -5.603  30.480  0.00  0.00    +0.000 A 
ATOM      2  C   UNL     1      33.466  -5.046  31.697  0.00  0.00    +0.000 A 
ATOM      3  C   UNL     1      32.616  -5.387  32.673  0.00  0.00    +0.000 A 
ATOM      4  C   UNL     1      32.609  -4.907  33.983  0.00  0.00    +0.000 A 
ATOM      5  N   UNL     1      31.681  -5.362  34.825  0.00  0.00    +0.000 NA
ATOM      6  C   UNL     1      30.731  -6.254  34.533  0.00  0.00    +0.000 A 
ATOM      7  N   UNL     1      30.723  -6.731  33.265  0.00  0.00    +0.000 NA
ATOM      8  C   UNL     1      31.648  -6.307  32.348  0.00  0.00    +0.000 A 
ATOM      9  S   UNL     1      31.987  -6.636  30.707  0.00  0.00    +0.000 S 
ENDROOT
BRANCH   1  11
ATOM     10  C   UNL     1      33.529  -6.212  28.120  0.00  0.00    +0.000 C 
ATOM     11  C   UNL     1      34.161  -5.386  29.234  0.00  0.00    +0.000 C 
ENDBRANCH   1  11
BRANCH   4  12
ATOM     12  N   UNL     1      33.593  -3.937  34.409  0.00  0.00    +0.000 NA
BRANCH  12  13
ATOM     13  C   UNL     1      33.338  -2.544  34.290  0.00  0.00    +0.000 A 
ATOM     14  C   UNL     1      32.438  -1.956  35.155  0.00  0.00    +0.000 A 
ATOM     15  C   UNL     1      32.139  -0.630  35.107  0.00  0.00    +0.000 A 
ATOM     16  C   UNL     1      32.745   0.172  34.168  0.00  0.00    +0.000 A 
ATOM     17  C   UNL     1      33.655  -0.397  33.287  0.00  0.00    +0.000 A 
ATOM     18  O   UNL     1      34.234   0.459  32.365  0.00  0.00    +0.000 OA
ATOM     19  C   UNL     1      33.939  -1.743  33.358  0.00  0.00    +0.000 A 
ENDBRANCH  12  13
ENDBRANCH   4  12
TORSDOF 3
ENDMDL
MODEL 5
REMARK VINA RESULT:      -6.1     19.804     21.616
REMARK  Name = 
REMARK  3 active torsions:
REMARK  status: ('A' for Active; 'I' for Inactive)
REMARK    1  A    between atoms: C_2  and  C_3
REMARK    2  A    between atoms: C_6  and  N_7
REMARK    3  A    between atoms: N_7  and  C_8
REMARK                            x       y       z     vdW  Elec       q    Type
REMARK                         _______ _______ _______ _____ _____    ______ ____
ROOT
ATOM      1  C   UNL     1      30.598  22.900  26.096  0.00  0.00    +0.000 A 
ATOM      2  C   UNL     1      29.286  22.859  25.804  0.00  0.00    +0.000 A 
ATOM      3  C   UNL     1      28.872  23.177  24.571  0.00  0.00    +0.000 A 
ATOM      4  C   UNL     1      27.557  23.185  24.106  0.00  0.00    +0.000 A 
ATOM      5  N   UNL     1      27.329  23.530  22.839  0.00  0.00    +0.000 NA
ATOM      6  C   UNL     1      28.259  23.878  21.946  0.00  0.00    +0.000 A 
ATOM      7  N   UNL     1      29.543  23.875  22.380  0.00  0.00    +0.000 NA
ATOM      8  C   UNL     1      29.847  23.531  23.670  0.00  0.00    +0.000 A 
ATOM      9  S   UNL     1      31.275  23.398  24.598  0.00  0.00    +0.000 S 
ENDROOT
BRANCH   1  11
ATOM     10  C   UNL     1      30.261  22.642  28.504  0.00  0.00    +0.000 C 
ATOM     11  C   UNL     1      31.304  22.592  27.393  0.00  0.00    +0.000 C 
ENDBRANCH   1  11
BRANCH   4  12
ATOM     12  N   UNL     1      26.470  22.826  24.989  0.00  0.00    +0.000 NA
BRANCH  12  13
ATOM     13  C   UNL     1      25.882  23.792  25.849  0.00  0.00    +0.000 A 
ATOM     14  C   UNL     1      25.165  24.831  25.291  0.00  0.00    +0.000 A 
ATOM     15  C   UNL     1      24.572  25.796  26.044  0.00  0.00    +0.000 A 
ATOM     16  C   UNL     1      24.680  25.754  27.416  0.00  0.00    +0.000 A 
ATOM     17  C   UNL     1      25.397  24.718  27.999  0.00  0.00    +0.000 A 
ATOM     18  O   UNL     1      25.471  24.726  29.382  0.00  0.00    +0.000 OA
ATOM     19  C   UNL     1      25.987  23.753  27.213  0.00  0.00    +0.000 A 
ENDBRANCH  12  13
ENDBRANCH   4  12
TORSDOF 3
ENDMDL
MODEL 6
REMARK VINA RESULT:      -5.9      3.654      4.704
REMARK  Name = 
REMARK  3 active torsions:
REMARK  status: ('A' for Active; 'I' for Inactive)
REMARK    1  A    between atoms: C_2  and  C_3
REMARK    2  A    between atoms: C_6  and  N_7
REMARK    3  A    between atoms: N_7  and  C_8
REMARK                            x       y       z     vdW  Elec       q    Type
REMARK                         _______ _______ _______ _____ _____    ______ ____
ROOT
ATOM      1  C   UNL     1      21.425   9.721  36.808  0.00  0.00    +0.000 A 
ATOM      2  C   UNL     1      20.279   9.756  36.105  0.00  0.00    +0.000 A 
ATOM      3  C   UNL     1      19.115   9.935  36.743  0.00  0.00    +0.000 A 
ATOM      4  C   UNL     1      17.846   9.996  36.168  0.00  0.00    +0.000 A 
ATOM      5  N   UNL     1      16.793  10.181  36.963  0.00  0.00    +0.000 NA
ATOM      6  C   UNL     1      16.831  10.318  38.291  0.00  0.00    +0.000 A 
ATOM      7  N   UNL     1      18.057  10.262  38.867  0.00  0.00    +0.000 NA
ATOM      8  C   UNL     1      19.181  10.073  38.109  0.00  0.00    +0.000 A 
ATOM      9  S   UNL     1      20.857   9.945  38.413  0.00  0.00    +0.000 S 
ENDROOT
BRANCH   1  11
ATOM     10  C   UNL     1      23.700   9.216  37.546  0.00  0.00    +0.000 C 
ATOM     11  C   UNL     1      22.842   9.534  36.327  0.00  0.00    +0.000 C 
ENDBRANCH   1  11
BRANCH   4  12
ATOM     12  N   UNL     1      17.687   9.859  34.737  0.00  0.00    +0.000 NA
BRANCH  12  13
ATOM     13  C   UNL     1      16.742  10.651  34.032  0.00  0.00    +0.000 A 
ATOM     14  C   UNL     1      16.609  10.474  32.670  0.00  0.00    +0.000 A 
ATOM     15  C   UNL     1      15.728  11.192  31.923  0.00  0.00    +0.000 A 
ATOM     16  C   UNL     1      14.930  12.136  32.529  0.00  0.00    +0.000 A 
ATOM     17  C   UNL     1      15.047  12.332  33.899  0.00  0.00    +0.000 A 
ATOM     18  O   UNL     1      14.219  13.293  34.453  0.00  0.00    +0.000 OA
ATOM     19  C   UNL     1      15.947  11.590  34.631  0.00  0.00    +0.000 A 
ENDBRANCH  12  13
ENDBRANCH   4  12
TORSDOF 3
ENDMDL
MODEL 7
REMARK VINA RESULT:      -5.9     19.479     21.075
REMARK  Name = 
REMARK  3 active torsions:
REMARK  status: ('A' for Active; 'I' for Inactive)
REMARK    1  A    between atoms: C_2  and  C_3
REMARK    2  A    between atoms: C_6  and  N_7
REMARK    3  A    between atoms: N_7  and  C_8
REMARK                            x       y       z     vdW  Elec       q    Type
REMARK                         _______ _______ _______ _____ _____    ______ ____
ROOT
ATOM      1  C   UNL     1      24.739  25.357  27.889  0.00  0.00    +0.000 A 
ATOM      2  C   UNL     1      25.207  24.752  26.783  0.00  0.00    +0.000 A 
ATOM      3  C   UNL     1      26.207  23.868  26.884  0.00  0.00    +0.000 A 
ATOM      4  C   UNL     1      26.804  23.157  25.842  0.00  0.00    +0.000 A 
ATOM      5  N   UNL     1      27.794  22.312  26.131  0.00  0.00    +0.000 NA
ATOM      6  C   UNL     1      28.285  22.072  27.349  0.00  0.00    +0.000 A 
ATOM      7  N   UNL     1      27.717  22.754  28.373  0.00  0.00    +0.000 NA
ATOM      8  C   UNL     1      26.695  23.638  28.147  0.00  0.00    +0.000 A 
ATOM      9  S   UNL     1      25.730  24.667  29.110  0.00  0.00    +0.000 S 
ENDROOT
BRANCH   1  11
ATOM     10  C   UNL     1      23.477  26.668  29.521  0.00  0.00    +0.000 C 
ATOM     11  C   UNL     1      23.637  26.376  28.034  0.00  0.00    +0.000 C 
ENDBRANCH   1  11
BRANCH   4  12
ATOM     12  N   UNL     1      26.351  23.340  24.482  0.00  0.00    +0.000 NA
BRANCH  12  13
ATOM     13  C   UNL     1      27.063  24.180  23.585  0.00  0.00    +0.000 A 
ATOM     14  C   UNL     1      26.770  25.528  23.560  0.00  0.00    +0.000 A 
ATOM     15  C   UNL     1      27.406  26.399  22.732  0.00  0.00    +0.000 A 
ATOM     16  C   UNL     1      28.382  25.939  21.878  0.00  0.00    +0.000 A 
ATOM     17  C   UNL     1      28.694  24.586  21.885  0.00  0.00    +0.000 A 
ATOM     18  O   UNL     1      29.684  24.181  21.006  0.00  0.00    +0.000 OA
ATOM     19  C   UNL     1      28.035  23.726  22.735  0.00  0.00    +0.000 A 
ENDBRANCH  12  13
ENDBRANCH   4  12
TORSDOF 3
ENDMDL
MODEL 8
REMARK VINA RESULT:      -5.9     19.282     21.435
REMARK  Name = 
REMARK  3 active torsions:
REMARK  status: ('A' for Active; 'I' for Inactive)
REMARK    1  A    between atoms: C_2  and  C_3
REMARK    2  A    between atoms: C_6  and  N_7
REMARK    3  A    between atoms: N_7  and  C_8
REMARK                            x       y       z     vdW  Elec       q    Type
REMARK                         _______ _______ _______ _____ _____    ______ ____
ROOT
ATOM      1  C   UNL     1      30.855  23.579  24.497  0.00  0.00    +0.000 A 
ATOM      2  C   UNL     1      30.001  23.032  25.380  0.00  0.00    +0.000 A 
ATOM      3  C   UNL     1      28.684  23.076  25.142  0.00  0.00    +0.000 A 
ATOM      4  C   UNL     1      27.670  22.560  25.950  0.00  0.00    +0.000 A 
ATOM      5  N   UNL     1      26.405  22.696  25.553  0.00  0.00    +0.000 NA
ATOM      6  C   UNL     1      26.000  23.294  24.429  0.00  0.00    +0.000 A 
ATOM      7  N   UNL     1      26.972  23.801  23.632  0.00  0.00    +0.000 NA
ATOM      8  C   UNL     1      28.292  23.696  23.980  0.00  0.00    +0.000 A 
ATOM      9  S   UNL     1      29.782  24.175  23.296  0.00  0.00    +0.000 S 
ENDROOT
BRANCH   1  11
ATOM     10  C   UNL     1      32.732  25.028  25.092  0.00  0.00    +0.000 C 
ATOM     11  C   UNL     1      32.360  23.657  24.538  0.00  0.00    +0.000 C 
ENDBRANCH   1  11
BRANCH   4  12
ATOM     12  N   UNL     1      27.996  21.893  27.191  0.00  0.00    +0.000 NA
BRANCH  12  13
ATOM     13  C   UNL     1      27.982  22.601  28.422  0.00  0.00    +0.000 A 
ATOM     14  C   UNL     1      29.184  22.909  29.025  0.00  0.00    +0.000 A 
ATOM     15  C   UNL     1      29.257  23.585  30.204  0.00  0.00    +0.000 A 
ATOM     16  C   UNL     1      28.101  23.983  30.835  0.00  0.00    +0.000 A 
ATOM     17  C   UNL     1      26.880  23.684  30.246  0.00  0.00    +0.000 A 
ATOM     18  O   UNL     1      25.751  24.111  30.925  0.00  0.00    +0.000 OA
ATOM     19  C   UNL     1      26.835  22.999  29.052  0.00  0.00    +0.000 A 
ENDBRANCH  12  13
ENDBRANCH   4  12
TORSDOF 3
ENDMDL
MODEL 9
REMARK VINA RESULT:      -5.8     21.201     23.297
REMARK  Name = 
REMARK  3 active torsions:
REMARK  status: ('A' for Active; 'I' for Inactive)
REMARK    1  A    between atoms: C_2  and  C_3
REMARK    2  A    between atoms: C_6  and  N_7
REMARK    3  A    between atoms: N_7  and  C_8
REMARK                            x       y       z     vdW  Elec       q    Type
REMARK                         _______ _______ _______ _____ _____    ______ ____
ROOT
ATOM      1  C   UNL     1      26.340  26.814  24.034  0.00  0.00    +0.000 A 
ATOM      2  C   UNL     1      26.913  25.628  23.763  0.00  0.00    +0.000 A 
ATOM      3  C   UNL     1      27.766  25.524  22.737  0.00  0.00    +0.000 A 
ATOM      4  C   UNL     1      28.443  24.376  22.325  0.00  0.00    +0.000 A 
ATOM      5  N   UNL     1      29.259  24.458  21.274  0.00  0.00    +0.000 NA
ATOM      6  C   UNL     1      29.501  25.559  20.557  0.00  0.00    +0.000 A 
ATOM      7  N   UNL     1      28.852  26.684  20.945  0.00  0.00    +0.000 NA
ATOM      8  C   UNL     1      27.999  26.670  22.015  0.00  0.00    +0.000 A 
ATOM      9  S   UNL     1      27.015  27.816  22.814  0.00  0.00    +0.000 S 
ENDROOT
BRANCH   1  11
ATOM     10  C   UNL     1      24.306  26.082  25.176  0.00  0.00    +0.000 C 
ATOM     11  C   UNL     1      25.359  27.182  25.119  0.00  0.00    +0.000 C 
ENDBRANCH   1  11
BRANCH   4  12
ATOM     12  N   UNL     1      28.255  23.127  23.029  0.00  0.00    +0.000 NA
BRANCH  12  13
ATOM     13  C   UNL     1      28.885  22.897  24.281  0.00  0.00    +0.000 A 
ATOM     14  C   UNL     1      30.263  22.890  24.342  0.00  0.00    +0.000 A 
ATOM     15  C   UNL     1      30.942  22.677  25.501  0.00  0.00    +0.000 A 
ATOM     16  C   UNL     1      30.247  22.458  26.668  0.00  0.00    +0.000 A 
ATOM     17  C   UNL     1      28.859  22.461  26.632  0.00  0.00    +0.000 A 
ATOM     18  O   UNL     1      28.213  22.236  27.836  0.00  0.00    +0.000 OA
ATOM     19  C   UNL     1      28.197  22.679  25.444  0.00  0.00    +0.000 A 
ENDBRANCH  12  13
ENDBRANCH   4  12
TORSDOF 3
ENDMDL
MODEL 10
REMARK VINA RESULT:      -5.7     19.595     21.420
REMARK  Name = 
REMARK  3 active torsions:
REMARK  status: ('A' for Active; 'I' for Inactive)
REMARK    1  A    between atoms: C_2  and  C_3
REMARK    2  A    between atoms: C_6  and  N_7
REMARK    3  A    between atoms: N_7  and  C_8
REMARK                            x       y       z     vdW  Elec       q    Type
REMARK                         _______ _______ _______ _____ _____    ______ ____
ROOT
ATOM      1  C   UNL     1      27.839  23.218  29.625  0.00  0.00    +0.000 A 
ATOM      2  C   UNL     1      28.164  22.962  28.345  0.00  0.00    +0.000 A 
ATOM      3  C   UNL     1      29.402  23.227  27.911  0.00  0.00    +0.000 A 
ATOM      4  C   UNL     1      29.899  23.022  26.623  0.00  0.00    +0.000 A 
ATOM      5  N   UNL     1      31.166  23.347  26.368  0.00  0.00    +0.000 NA
ATOM      6  C   UNL     1      32.032  23.862  27.246  0.00  0.00    +0.000 A 
ATOM      7  N   UNL     1      31.566  24.067  28.501  0.00  0.00    +0.000 NA
ATOM      8  C   UNL     1      30.274  23.757  28.831  0.00  0.00    +0.000 A 
ATOM      9  S   UNL     1      29.312  23.849  30.240  0.00  0.00    +0.000 S 
ENDROOT
BRANCH   1  11
ATOM     10  C   UNL     1      26.333  21.508  30.510  0.00  0.00    +0.000 C 
ATOM     11  C   UNL     1      26.530  23.010  30.344  0.00  0.00    +0.000 C 
ENDBRANCH   1  11
BRANCH   4  12
ATOM     12  N   UNL     1      29.048  22.469  25.593  0.00  0.00    +0.000 NA
BRANCH  12  13
ATOM     13  C   UNL     1      28.650  23.256  24.479  0.00  0.00    +0.000 A 
ATOM     14  C   UNL     1      27.466  23.962  24.552  0.00  0.00    +0.000 A 
ATOM     15  C   UNL     1      27.015  24.737  23.530  0.00  0.00    +0.000 A 
ATOM     16  C   UNL     1      27.751  24.835  22.371  0.00  0.00    +0.000 A 
ATOM     17  C   UNL     1      28.945  24.134  22.275  0.00  0.00    +0.000 A 
ATOM     18  O   UNL     1      29.643  24.271  21.087  0.00  0.00    +0.000 OA
ATOM     19  C   UNL     1      29.379  23.356  23.326  0.00  0.00    +0.000 A 
ENDBRANCH  12  13
ENDBRANCH   4  12
TORSDOF 3
ENDMDL
