MODEL 1
REMARK VINA RESULT:      -6.7      0.000      0.000
REMARK  Name = 
REMARK  3 active torsions:
REMARK  status: ('A' for Active; 'I' for Inactive)
REMARK    1  A    between atoms: C_2  and  C_12
REMARK    2  A    between atoms: N_3  and  N_4
REMARK    3  A    between atoms: N_4  and  C_5
REMARK                            x       y       z     vdW  Elec       q    Type
REMARK                         _______ _______ _______ _____ _____    ______ ____
ROOT
ATOM      1  O   UNL     1      14.324  11.578  35.779  0.00  0.00    +0.000 OA
ATOM      2  C   UNL     1      15.126  12.169  35.013  0.00  0.00    +0.000 C 
ATOM      3  N   UNL     1      16.422  12.434  35.531  0.00  0.00    +0.000 NA
ENDROOT
BRANCH   2   4
ATOM      4  C   UNL     1      14.730  12.554  33.662  0.00  0.00    +0.000 A 
ATOM      5  C   UNL     1      14.017  13.705  33.412  0.00  0.00    +0.000 A 
ATOM      6  C   UNL     1      13.637  14.077  32.138  0.00  0.00    +0.000 A 
ATOM      7  C   UNL     1      13.986  13.267  31.079  0.00  0.00    +0.000 A 
ATOM      8  C   UNL     1      14.699  12.105  31.284  0.00  0.00    +0.000 A 
ATOM      9  C   UNL     1      15.067  11.759  32.589  0.00  0.00    +0.000 A 
ATOM     10  O   UNL     1      15.786  10.600  32.852  0.00  0.00    +0.000 OA
ENDBRANCH   2   4
BRANCH   3  11
ATOM     11  N   UNL     1      16.802  12.063  36.829  0.00  0.00    +0.000 NA
BRANCH  11  12
ATOM     12  C   UNL     1      17.732  11.019  36.978  0.00  0.00    +0.000 C 
ATOM     13  C   UNL     1      17.615  10.196  37.997  0.00  0.00    +0.000 C 
ATOM     14  C   UNL     1      16.527  10.343  38.993  0.00  0.00    +0.000 C 
ATOM     15  C   UNL     1      16.798   9.414  40.141  0.00  0.00    +0.000 C 
ATOM     16  C   UNL     1      18.225   9.614  40.591  0.00  0.00    +0.000 C 
ATOM     17  C   UNL     1      19.226   9.190  39.546  0.00  0.00    +0.000 C 
ATOM     18  C   UNL     1      18.576   9.088  38.183  0.00  0.00    +0.000 C 
ENDBRANCH  11  12
ENDBRANCH   3  11
TORSDOF 3
ENDMDL
MODEL 2
REMARK VINA RESULT:      -6.7      1.939      6.997
REMARK  Name = 
REMARK  3 active torsions:
REMARK  status: ('A' for Active; 'I' for Inactive)
REMARK    1  A    between atoms: C_2  and  C_12
REMARK    2  A    between atoms: N_3  and  N_4
REMARK    3  A    between atoms: N_4  and  C_5
REMARK                            x       y       z     vdW  Elec       q    Type
REMARK                         _______ _______ _______ _____ _____    ______ ____
ROOT
ATOM      1  O   UNL     1      14.994  11.261  37.207  0.00  0.00    +0.000 OA
ATOM      2  C   UNL     1      15.950  11.464  36.418  0.00  0.00    +0.000 C 
ATOM      3  N   UNL     1      15.632  12.084  35.180  0.00  0.00    +0.000 NA
ENDROOT
BRANCH   2   4
ATOM      4  C   UNL     1      17.311  11.077  36.772  0.00  0.00    +0.000 A 
ATOM      5  C   UNL     1      18.065  11.800  37.669  0.00  0.00    +0.000 A 
ATOM      6  C   UNL     1      19.354  11.443  38.010  0.00  0.00    +0.000 A 
ATOM      7  C   UNL     1      19.906  10.321  37.430  0.00  0.00    +0.000 A 
ATOM      8  C   UNL     1      19.187   9.568  36.526  0.00  0.00    +0.000 A 
ATOM      9  C   UNL     1      17.883   9.960  36.204  0.00  0.00    +0.000 A 
ATOM     10  O   UNL     1      17.115   9.237  35.301  0.00  0.00    +0.000 OA
ENDBRANCH   2   4
BRANCH   3  11
ATOM     11  N   UNL     1      14.322  12.456  34.841  0.00  0.00    +0.000 NA
BRANCH  11  12
ATOM     12  C   UNL     1      14.145  13.499  33.914  0.00  0.00    +0.000 C 
ATOM     13  C   UNL     1      14.264  13.244  32.630  0.00  0.00    +0.000 C 
ATOM     14  C   UNL     1      14.581  11.883  32.135  0.00  0.00    +0.000 C 
ATOM     15  C   UNL     1      14.876  11.964  30.665  0.00  0.00    +0.000 C 
ATOM     16  C   UNL     1      15.880  13.069  30.440  0.00  0.00    +0.000 C 
ATOM     17  C   UNL     1      15.322  14.432  30.766  0.00  0.00    +0.000 C 
ATOM     18  C   UNL     1      14.084  14.318  31.630  0.00  0.00    +0.000 C 
ENDBRANCH  11  12
ENDBRANCH   3  11
TORSDOF 3
ENDMDL
MODEL 3
REMARK VINA RESULT:      -6.5      1.940      7.227
REMARK  Name = 
REMARK  3 active torsions:
REMARK  status: ('A' for Active; 'I' for Inactive)
REMARK    1  A    between atoms: C_2  and  C_12
REMARK    2  A    between atoms: N_3  and  N_4
REMARK    3  A    between atoms: N_4  and  C_5
REMARK                            x       y       z     vdW  Elec       q    Type
REMARK                         _______ _______ _______ _____ _____    ______ ____
ROOT
ATOM      1  O   UNL     1      15.762  11.359  36.713  0.00  0.00    +0.000 OA
ATOM      2  C   UNL     1      16.959  11.291  36.336  0.00  0.00    +0.000 C 
ATOM      3  N   UNL     1      17.178  10.993  34.965  0.00  0.00    +0.000 NA
ENDROOT
BRANCH   2   4
ATOM      4  C   UNL     1      18.055  11.513  37.273  0.00  0.00    +0.000 A 
ATOM      5  C   UNL     1      18.595  12.762  37.482  0.00  0.00    +0.000 A 
ATOM      6  C   UNL     1      19.633  12.982  38.365  0.00  0.00    +0.000 A 
ATOM      7  C   UNL     1      20.146  11.911  39.064  0.00  0.00    +0.000 A 
ATOM      8  C   UNL     1      19.636  10.642  38.886  0.00  0.00    +0.000 A 
ATOM      9  C   UNL     1      18.584  10.457  37.982  0.00  0.00    +0.000 A 
ATOM     10  O   UNL     1      18.033   9.200  37.765  0.00  0.00    +0.000 OA
ENDBRANCH   2   4
BRANCH   3  11
ATOM     11  N   UNL     1      16.124  10.781  34.064  0.00  0.00    +0.000 NA
BRANCH  11  12
ATOM     12  C   UNL     1      16.291  11.198  32.732  0.00  0.00    +0.000 C 
ATOM     13  C   UNL     1      15.630  12.249  32.300  0.00  0.00    +0.000 C 
ATOM     14  C   UNL     1      14.711  13.004  33.184  0.00  0.00    +0.000 C 
ATOM     15  C   UNL     1      13.942  13.988  32.348  0.00  0.00    +0.000 C 
ATOM     16  C   UNL     1      13.367  13.257  31.159  0.00  0.00    +0.000 C 
ATOM     17  C   UNL     1      14.434  12.751  30.221  0.00  0.00    +0.000 C 
ATOM     18  C   UNL     1      15.784  12.713  30.905  0.00  0.00    +0.000 C 
ENDBRANCH  11  12
ENDBRANCH   3  11
TORSDOF 3
ENDMDL
MODEL 4
REMARK VINA RESULT:      -6.3      3.687      5.140
REMARK  Name = 
REMARK  3 active torsions:
REMARK  status: ('A' for Active; 'I' for Inactive)
REMARK    1  A    between atoms: C_2  and  C_12
REMARK    2  A    between atoms: N_3  and  N_4
REMARK    3  A    between atoms: N_4  and  C_5
REMARK                            x       y       z     vdW  Elec       q    Type
REMARK                         _______ _______ _______ _____ _____    ______ ____
ROOT
ATOM      1  O   UNL     1      17.900   9.173  36.488  0.00  0.00    +0.000 OA
ATOM      2  C   UNL     1      17.722  10.338  36.926  0.00  0.00    +0.000 C 
ATOM      3  N   UNL     1      18.844  10.969  37.527  0.00  0.00    +0.000 NA
ENDROOT
BRANCH   2   4
ATOM      4  C   UNL     1      16.423  10.992  36.813  0.00  0.00    +0.000 A 
ATOM      5  C   UNL     1      15.503  10.969  37.838  0.00  0.00    +0.000 A 
ATOM      6  C   UNL     1      14.272  11.584  37.740  0.00  0.00    +0.000 A 
ATOM      7  C   UNL     1      13.952  12.248  36.575  0.00  0.00    +0.000 A 
ATOM      8  C   UNL     1      14.843  12.296  35.524  0.00  0.00    +0.000 A 
ATOM      9  C   UNL     1      16.083  11.660  35.658  0.00  0.00    +0.000 A 
ATOM     10  O   UNL     1      17.017  11.679  34.630  0.00  0.00    +0.000 OA
ENDBRANCH   2   4
BRANCH   3  11
ATOM     11  N   UNL     1      20.093  10.339  37.634  0.00  0.00    +0.000 NA
BRANCH  11  12
ATOM     12  C   UNL     1      21.209  11.126  37.968  0.00  0.00    +0.000 C 
ATOM     13  C   UNL     1      22.346  10.925  37.340  0.00  0.00    +0.000 C 
ATOM     14  C   UNL     1      22.480   9.889  36.288  0.00  0.00    +0.000 C 
ATOM     15  C   UNL     1      23.933   9.749  35.936  0.00  0.00    +0.000 C 
ATOM     16  C   UNL     1      24.722   9.592  37.213  0.00  0.00    +0.000 C 
ATOM     17  C   UNL     1      24.683  10.831  38.072  0.00  0.00    +0.000 C 
ATOM     18  C   UNL     1      23.539  11.735  37.667  0.00  0.00    +0.000 C 
ENDBRANCH  11  12
ENDBRANCH   3  11
TORSDOF 3
ENDMDL
MODEL 5
REMARK VINA RESULT:      -6.2     20.167     22.568
REMARK  Name = 
REMARK  3 active torsions:
REMARK  status: ('A' for Active; 'I' for Inactive)
REMARK    1  A    between atoms: C_2  and  C_12
REMARK    2  A    between atoms: N_3  and  N_4
REMARK    3  A    between atoms: N_4  and  C_5
REMARK                            x       y       z     vdW  Elec       q    Type
REMARK                         _______ _______ _______ _____ _____    ______ ____
ROOT
ATOM      1  O   UNL     1      32.064  -0.628  34.925  0.00  0.00    +0.000 OA
ATOM      2  C   UNL     1      33.208  -0.203  34.621  0.00  0.00    +0.000 C 
ATOM      3  N   UNL     1      34.191  -1.184  34.323  0.00  0.00    +0.000 NA
ENDROOT
BRANCH   2   4
ATOM      4  C   UNL     1      33.492   1.227  34.580  0.00  0.00    +0.000 A 
ATOM      5  C   UNL     1      33.421   1.951  33.410  0.00  0.00    +0.000 A 
ATOM      6  C   UNL     1      33.689   3.304  33.361  0.00  0.00    +0.000 A 
ATOM      7  C   UNL     1      34.039   3.954  34.525  0.00  0.00    +0.000 A 
ATOM      8  C   UNL     1      34.123   3.267  35.718  0.00  0.00    +0.000 A 
ATOM      9  C   UNL     1      33.844   1.896  35.731  0.00  0.00    +0.000 A 
ATOM     10  O   UNL     1      33.913   1.157  36.905  0.00  0.00    +0.000 OA
ENDBRANCH   2   4
BRANCH   3  11
ATOM     11  N   UNL     1      33.917  -2.559  34.362  0.00  0.00    +0.000 NA
BRANCH  11  12
ATOM     12  C   UNL     1      33.480  -3.185  33.181  0.00  0.00    +0.000 C 
ATOM     13  C   UNL     1      33.847  -4.424  32.938  0.00  0.00    +0.000 C 
ATOM     14  C   UNL     1      34.710  -5.177  33.879  0.00  0.00    +0.000 C 
ATOM     15  C   UNL     1      35.137  -6.457  33.218  0.00  0.00    +0.000 C 
ATOM     16  C   UNL     1      35.672  -6.131  31.845  0.00  0.00    +0.000 C 
ATOM     17  C   UNL     1      34.607  -5.593  30.923  0.00  0.00    +0.000 C 
ATOM     18  C   UNL     1      33.404  -5.111  31.706  0.00  0.00    +0.000 C 
ENDBRANCH  11  12
ENDBRANCH   3  11
TORSDOF 3
ENDMDL
MODEL 6
REMARK VINA RESULT:      -5.9     21.224     22.556
REMARK  Name = 
REMARK  3 active torsions:
REMARK  status: ('A' for Active; 'I' for Inactive)
REMARK    1  A    between atoms: C_2  and  C_12
REMARK    2  A    between atoms: N_3  and  N_4
REMARK    3  A    between atoms: N_4  and  C_5
REMARK                            x       y       z     vdW  Elec       q    Type
REMARK                         _______ _______ _______ _____ _____    ______ ____
ROOT
ATOM      1  O   UNL     1      16.910  -8.729  27.677  0.00  0.00    +0.000 OA
ATOM      2  C   UNL     1      17.015  -8.093  26.598  0.00  0.00    +0.000 C 
ATOM      3  N   UNL     1      15.865  -8.062  25.764  0.00  0.00    +0.000 NA
ENDROOT
BRANCH   2   4
ATOM      4  C   UNL     1      18.261  -7.426  26.237  0.00  0.00    +0.000 A 
ATOM      5  C   UNL     1      19.300  -8.099  25.634  0.00  0.00    +0.000 A 
ATOM      6  C   UNL     1      20.483  -7.476  25.289  0.00  0.00    +0.000 A 
ATOM      7  C   UNL     1      20.628  -6.132  25.558  0.00  0.00    +0.000 A 
ATOM      8  C   UNL     1      19.613  -5.420  26.162  0.00  0.00    +0.000 A 
ATOM      9  C   UNL     1      18.428  -6.084  26.497  0.00  0.00    +0.000 A 
ATOM     10  O   UNL     1      17.374  -5.414  27.105  0.00  0.00    +0.000 OA
ENDBRANCH   2   4
BRANCH   3  11
ATOM     11  N   UNL     1      14.667  -8.703  26.112  0.00  0.00    +0.000 NA
BRANCH  11  12
ATOM     12  C   UNL     1      13.628  -8.734  25.165  0.00  0.00    +0.000 C 
ATOM     13  C   UNL     1      12.383  -8.810  25.580  0.00  0.00    +0.000 C 
ATOM     14  C   UNL     1      12.048  -8.864  27.023  0.00  0.00    +0.000 C 
ATOM     15  C   UNL     1      10.587  -9.179  27.164  0.00  0.00    +0.000 C 
ATOM     16  C   UNL     1      10.269 -10.376  26.300  0.00  0.00    +0.000 C 
ATOM     17  C   UNL     1      10.430 -10.085  24.829  0.00  0.00    +0.000 C 
ATOM     18  C   UNL     1      11.268  -8.844  24.610  0.00  0.00    +0.000 C 
ENDBRANCH  11  12
ENDBRANCH   3  11
TORSDOF 3
ENDMDL
MODEL 7
REMARK VINA RESULT:      -5.9     20.760     21.779
REMARK  Name = 
REMARK  3 active torsions:
REMARK  status: ('A' for Active; 'I' for Inactive)
REMARK    1  A    between atoms: C_2  and  C_12
REMARK    2  A    between atoms: N_3  and  N_4
REMARK    3  A    between atoms: N_4  and  C_5
REMARK                            x       y       z     vdW  Elec       q    Type
REMARK                         _______ _______ _______ _____ _____    ______ ____
ROOT
ATOM      1  O   UNL     1      17.198  -9.688  26.887  0.00  0.00    +0.000 OA
ATOM      2  C   UNL     1      17.948  -8.930  27.550  0.00  0.00    +0.000 C 
ATOM      3  N   UNL     1      18.016  -9.169  28.950  0.00  0.00    +0.000 NA
ENDROOT
BRANCH   2   4
ATOM      4  C   UNL     1      18.706  -7.866  26.901  0.00  0.00    +0.000 A 
ATOM      5  C   UNL     1      19.953  -8.085  26.359  0.00  0.00    +0.000 A 
ATOM      6  C   UNL     1      20.678  -7.085  25.743  0.00  0.00    +0.000 A 
ATOM      7  C   UNL     1      20.132  -5.821  25.667  0.00  0.00    +0.000 A 
ATOM      8  C   UNL     1      18.887  -5.557  26.197  0.00  0.00    +0.000 A 
ATOM      9  C   UNL     1      18.180  -6.596  26.814  0.00  0.00    +0.000 A 
ATOM     10  O   UNL     1      16.922  -6.385  27.363  0.00  0.00    +0.000 OA
ENDBRANCH   2   4
BRANCH   3  11
ATOM     11  N   UNL     1      17.288 -10.193  29.573  0.00  0.00    +0.000 NA
BRANCH  11  12
ATOM     12  C   UNL     1      17.093 -10.119  30.964  0.00  0.00    +0.000 C 
ATOM     13  C   UNL     1      16.004 -10.636  31.487  0.00  0.00    +0.000 C 
ATOM     14  C   UNL     1      14.976 -11.296  30.647  0.00  0.00    +0.000 C 
ATOM     15  C   UNL     1      13.767 -11.569  31.494  0.00  0.00    +0.000 C 
ATOM     16  C   UNL     1      13.399 -10.301  32.226  0.00  0.00    +0.000 C 
ATOM     17  C   UNL     1      14.449  -9.888  33.227  0.00  0.00    +0.000 C 
ATOM     18  C   UNL     1      15.768 -10.575  32.946  0.00  0.00    +0.000 C 
ENDBRANCH  11  12
ENDBRANCH   3  11
TORSDOF 3
ENDMDL
MODEL 8
REMARK VINA RESULT:      -5.8     20.783     23.362
REMARK  Name = 
REMARK  3 active torsions:
REMARK  status: ('A' for Active; 'I' for Inactive)
REMARK    1  A    between atoms: C_2  and  C_12
REMARK    2  A    between atoms: N_3  and  N_4
REMARK    3  A    between atoms: N_4  and  C_5
REMARK                            x       y       z     vdW  Elec       q    Type
REMARK                         _______ _______ _______ _____ _____    ______ ____
ROOT
ATOM      1  O   UNL     1      31.813  -2.363  34.990  0.00  0.00    +0.000 OA
ATOM      2  C   UNL     1      32.788  -1.825  34.407  0.00  0.00    +0.000 C 
ATOM      3  N   UNL     1      33.522  -2.645  33.508  0.00  0.00    +0.000 NA
ENDROOT
BRANCH   2   4
ATOM      4  C   UNL     1      33.133  -0.429  34.651  0.00  0.00    +0.000 A 
ATOM      5  C   UNL     1      33.053   0.525  33.661  0.00  0.00    +0.000 A 
ATOM      6  C   UNL     1      33.378   1.848  33.882  0.00  0.00    +0.000 A 
ATOM      7  C   UNL     1      33.797   2.228  35.139  0.00  0.00    +0.000 A 
ATOM      8  C   UNL     1      33.892   1.305  36.159  0.00  0.00    +0.000 A 
ATOM      9  C   UNL     1      33.554  -0.028  35.899  0.00  0.00    +0.000 A 
ATOM     10  O   UNL     1      33.631  -0.998  36.890  0.00  0.00    +0.000 OA
ENDBRANCH   2   4
BRANCH   3  11
ATOM     11  N   UNL     1      33.189  -3.988  33.273  0.00  0.00    +0.000 NA
BRANCH  11  12
ATOM     12  C   UNL     1      34.234  -4.913  33.104  0.00  0.00    +0.000 C 
ATOM     13  C   UNL     1      34.477  -5.395  31.905  0.00  0.00    +0.000 C 
ATOM     14  C   UNL     1      33.675  -4.987  30.728  0.00  0.00    +0.000 C 
ATOM     15  C   UNL     1      34.037  -5.873  29.570  0.00  0.00    +0.000 C 
ATOM     16  C   UNL     1      33.972  -7.309  30.029  0.00  0.00    +0.000 C 
ATOM     17  C   UNL     1      35.018  -7.633  31.066  0.00  0.00    +0.000 C 
ATOM     18  C   UNL     1      35.568  -6.370  31.694  0.00  0.00    +0.000 C 
ENDBRANCH  11  12
ENDBRANCH   3  11
TORSDOF 3
ENDMDL
MODEL 9
REMARK VINA RESULT:      -5.7     22.571     23.778
REMARK  Name = 
REMARK  3 active torsions:
REMARK  status: ('A' for Active; 'I' for Inactive)
REMARK    1  A    between atoms: C_2  and  C_12
REMARK    2  A    between atoms: N_3  and  N_4
REMARK    3  A    between atoms: N_4  and  C_5
REMARK                            x       y       z     vdW  Elec       q    Type
REMARK                         _______ _______ _______ _____ _____    ______ ____
ROOT
ATOM      1  O   UNL     1      22.826  -6.626  23.018  0.00  0.00    +0.000 OA
ATOM      2  C   UNL     1      23.584  -7.434  23.611  0.00  0.00    +0.000 C 
ATOM      3  N   UNL     1      23.225  -7.784  24.941  0.00  0.00    +0.000 NA
ENDROOT
BRANCH   2   4
ATOM      4  C   UNL     1      24.768  -7.976  22.952  0.00  0.00    +0.000 A 
ATOM      5  C   UNL     1      26.008  -7.394  23.088  0.00  0.00    +0.000 A 
ATOM      6  C   UNL     1      27.134  -7.898  22.468  0.00  0.00    +0.000 A 
ATOM      7  C   UNL     1      27.010  -9.026  21.686  0.00  0.00    +0.000 A 
ATOM      8  C   UNL     1      25.787  -9.641  21.522  0.00  0.00    +0.000 A 
ATOM      9  C   UNL     1      24.667  -9.101  22.165  0.00  0.00    +0.000 A 
ATOM     10  O   UNL     1      23.412  -9.681  22.035  0.00  0.00    +0.000 OA
ENDBRANCH   2   4
BRANCH   3  11
ATOM     11  N   UNL     1      22.087  -7.263  25.573  0.00  0.00    +0.000 NA
BRANCH  11  12
ATOM     12  C   UNL     1      20.892  -8.001  25.508  0.00  0.00    +0.000 C 
ATOM     13  C   UNL     1      19.747  -7.388  25.714  0.00  0.00    +0.000 C 
ATOM     14  C   UNL     1      19.686  -5.938  26.015  0.00  0.00    +0.000 C 
ATOM     15  C   UNL     1      18.283  -5.592  26.424  0.00  0.00    +0.000 C 
ATOM     16  C   UNL     1      17.839  -6.572  27.484  0.00  0.00    +0.000 C 
ATOM     17  C   UNL     1      17.719  -7.979  26.956  0.00  0.00    +0.000 C 
ATOM     18  C   UNL     1      18.473  -8.136  25.653  0.00  0.00    +0.000 C 
ENDBRANCH  11  12
ENDBRANCH   3  11
TORSDOF 3
ENDMDL
MODEL 10
REMARK VINA RESULT:      -5.7     22.331     23.478
REMARK  Name = 
REMARK  3 active torsions:
REMARK  status: ('A' for Active; 'I' for Inactive)
REMARK    1  A    between atoms: C_2  and  C_12
REMARK    2  A    between atoms: N_3  and  N_4
REMARK    3  A    between atoms: N_4  and  C_5
REMARK                            x       y       z     vdW  Elec       q    Type
REMARK                         _______ _______ _______ _____ _____    ______ ____
ROOT
ATOM      1  O   UNL     1      22.566  -7.111  25.548  0.00  0.00    +0.000 OA
ATOM      2  C   UNL     1      21.565  -6.682  24.921  0.00  0.00    +0.000 C 
ATOM      3  N   UNL     1      21.762  -6.363  23.551  0.00  0.00    +0.000 NA
ENDROOT
BRANCH   2   4
ATOM      4  C   UNL     1      20.274  -6.527  25.583  0.00  0.00    +0.000 A 
ATOM      5  C   UNL     1      19.849  -5.315  26.077  0.00  0.00    +0.000 A 
ATOM      6  C   UNL     1      18.630  -5.158  26.705  0.00  0.00    +0.000 A 
ATOM      7  C   UNL     1      17.808  -6.257  26.842  0.00  0.00    +0.000 A 
ATOM      8  C   UNL     1      18.195  -7.491  26.362  0.00  0.00    +0.000 A 
ATOM      9  C   UNL     1      19.437  -7.612  25.731  0.00  0.00    +0.000 A 
ATOM     10  O   UNL     1      19.875  -8.830  25.228  0.00  0.00    +0.000 OA
ENDBRANCH   2   4
BRANCH   3  11
ATOM     11  N   UNL     1      23.003  -6.513  22.915  0.00  0.00    +0.000 NA
BRANCH  11  12
ATOM     12  C   UNL     1      23.278  -7.731  22.270  0.00  0.00    +0.000 C 
ATOM     13  C   UNL     1      24.420  -8.339  22.506  0.00  0.00    +0.000 C 
ATOM     14  C   UNL     1      25.423  -7.771  23.437  0.00  0.00    +0.000 C 
ATOM     15  C   UNL     1      26.693  -8.563  23.315  0.00  0.00    +0.000 C 
ATOM     16  C   UNL     1      27.045  -8.680  21.851  0.00  0.00    +0.000 C 
ATOM     17  C   UNL     1      26.040  -9.497  21.079  0.00  0.00    +0.000 C 
ATOM     18  C   UNL     1      24.740  -9.621  21.843  0.00  0.00    +0.000 C 
ENDBRANCH  11  12
ENDBRANCH   3  11
TORSDOF 3
ENDMDL
