MODEL 1
REMARK VINA RESULT:      -6.8      0.000      0.000
REMARK  Name = 
REMARK  3 active torsions:
REMARK  status: ('A' for Active; 'I' for Inactive)
REMARK    1  A    between atoms: O_2  and  C_3
REMARK    2  A    between atoms: C_8  and  O_9
REMARK    3  A    between atoms: C_11  and  C_12
REMARK                            x       y       z     vdW  Elec       q    Type
REMARK                         _______ _______ _______ _____ _____    ______ ____
ROOT
ATOM      1  C   UNL     1      29.852  22.335  26.277  0.00  0.00    +0.000 A 
ATOM      2  C   UNL     1      30.427  22.809  25.128  0.00  0.00    +0.000 A 
ATOM      3  C   UNL     1      29.608  23.390  24.121  0.00  0.00    +0.000 A 
ATOM      4  C   UNL     1      28.294  23.481  24.274  0.00  0.00    +0.000 A 
ATOM      5  C   UNL     1      27.704  22.997  25.451  0.00  0.00    +0.000 A 
ATOM      6  C   UNL     1      28.490  22.427  26.444  0.00  0.00    +0.000 A 
ATOM      7  C   UNL     1      27.278  24.066  23.248  0.00  0.00    +0.000 C 
ATOM      8  C   UNL     1      28.162  25.123  22.384  0.00  0.00    +0.000 C 
ATOM      9  C   UNL     1      29.404  24.488  21.984  0.00  0.00    +0.000 C 
ATOM     10  O   UNL     1      29.668  24.515  20.750  0.00  0.00    +0.000 OA
ATOM     11  N   UNL     1      30.223  23.892  22.960  0.00  0.00    +0.000 NA
ENDROOT
BRANCH   7  12
ATOM     12  C   UNL     1      26.585  25.143  24.214  0.00  0.00    +0.000 A 
ATOM     13  C   UNL     1      27.219  26.218  24.659  0.00  0.00    +0.000 A 
ATOM     14  C   UNL     1      26.602  27.105  25.497  0.00  0.00    +0.000 A 
ATOM     15  C   UNL     1      25.308  26.867  25.873  0.00  0.00    +0.000 A 
ATOM     16  C   UNL     1      24.662  25.745  25.402  0.00  0.00    +0.000 A 
ATOM     17  C   UNL     1      25.289  24.856  24.559  0.00  0.00    +0.000 A 
ATOM     18  F   UNL     1      24.694  23.750  24.066  0.00  0.00    +0.000 F 
ENDBRANCH   7  12
BRANCH   1  20
ATOM     19  C   UNL     1      31.402  22.529  28.165  0.00  0.00    +0.000 C 
ATOM     20  O   UNL     1      30.660  21.761  27.271  0.00  0.00    +0.000 OA
ENDBRANCH   1  20
BRANCH   6  21
ATOM     21  O   UNL     1      27.962  21.932  27.626  0.00  0.00    +0.000 OA
ATOM     22  C   UNL     1      27.590  22.752  28.717  0.00  0.00    +0.000 C 
ENDBRANCH   6  21
TORSDOF 3
ENDMDL
MODEL 2
REMARK VINA RESULT:      -6.3      2.272      3.032
REMARK  Name = 
REMARK  3 active torsions:
REMARK  status: ('A' for Active; 'I' for Inactive)
REMARK    1  A    between atoms: O_2  and  C_3
REMARK    2  A    between atoms: C_8  and  O_9
REMARK    3  A    between atoms: C_11  and  C_12
REMARK                            x       y       z     vdW  Elec       q    Type
REMARK                         _______ _______ _______ _____ _____    ______ ____
ROOT
ATOM      1  C   UNL     1      30.619  23.065  24.834  0.00  0.00    +0.000 A 
ATOM      2  C   UNL     1      29.754  23.098  23.774  0.00  0.00    +0.000 A 
ATOM      3  C   UNL     1      28.352  23.118  24.011  0.00  0.00    +0.000 A 
ATOM      4  C   UNL     1      27.866  23.105  25.245  0.00  0.00    +0.000 A 
ATOM      5  C   UNL     1      28.751  23.071  26.332  0.00  0.00    +0.000 A 
ATOM      6  C   UNL     1      30.123  23.052  26.117  0.00  0.00    +0.000 A 
ATOM      7  C   UNL     1      26.361  23.097  25.650  0.00  0.00    +0.000 C 
ATOM      8  C   UNL     1      25.616  23.812  24.393  0.00  0.00    +0.000 C 
ATOM      9  C   UNL     1      26.099  23.223  23.158  0.00  0.00    +0.000 C 
ATOM     10  O   UNL     1      25.216  22.780  22.372  0.00  0.00    +0.000 OA
ATOM     11  N   UNL     1      27.483  23.177  22.908  0.00  0.00    +0.000 NA
ENDROOT
BRANCH   7  12
ATOM     12  C   UNL     1      26.386  24.381  26.611  0.00  0.00    +0.000 A 
ATOM     13  C   UNL     1      26.557  25.613  26.156  0.00  0.00    +0.000 A 
ATOM     14  C   UNL     1      26.591  26.682  27.007  0.00  0.00    +0.000 A 
ATOM     15  C   UNL     1      26.444  26.462  28.350  0.00  0.00    +0.000 A 
ATOM     16  C   UNL     1      26.267  25.175  28.809  0.00  0.00    +0.000 A 
ATOM     17  C   UNL     1      26.234  24.103  27.946  0.00  0.00    +0.000 A 
ATOM     18  F   UNL     1      26.055  22.828  28.348  0.00  0.00    +0.000 F 
ENDBRANCH   7  12
BRANCH   1  20
ATOM     19  C   UNL     1      32.785  24.195  24.649  0.00  0.00    +0.000 C 
ATOM     20  O   UNL     1      32.004  23.044  24.600  0.00  0.00    +0.000 OA
ENDBRANCH   1  20
BRANCH   6  21
ATOM     21  O   UNL     1      31.044  23.017  27.152  0.00  0.00    +0.000 OA
ATOM     22  C   UNL     1      31.184  24.055  28.105  0.00  0.00    +0.000 C 
ENDBRANCH   6  21
TORSDOF 3
ENDMDL
MODEL 3
REMARK VINA RESULT:      -6.1      2.941      4.616
REMARK  Name = 
REMARK  3 active torsions:
REMARK  status: ('A' for Active; 'I' for Inactive)
REMARK    1  A    between atoms: O_2  and  C_3
REMARK    2  A    between atoms: C_8  and  O_9
REMARK    3  A    between atoms: C_11  and  C_12
REMARK                            x       y       z     vdW  Elec       q    Type
REMARK                         _______ _______ _______ _____ _____    ______ ____
ROOT
ATOM      1  C   UNL     1      26.467  24.477  27.902  0.00  0.00    +0.000 A 
ATOM      2  C   UNL     1      25.816  23.759  26.933  0.00  0.00    +0.000 A 
ATOM      3  C   UNL     1      26.278  23.814  25.590  0.00  0.00    +0.000 A 
ATOM      4  C   UNL     1      27.330  24.550  25.255  0.00  0.00    +0.000 A 
ATOM      5  C   UNL     1      27.997  25.284  26.246  0.00  0.00    +0.000 A 
ATOM      6  C   UNL     1      27.559  25.241  27.563  0.00  0.00    +0.000 A 
ATOM      7  C   UNL     1      27.926  24.723  23.827  0.00  0.00    +0.000 C 
ATOM      8  C   UNL     1      27.501  23.353  23.059  0.00  0.00    +0.000 C 
ATOM      9  C   UNL     1      26.093  23.093  23.296  0.00  0.00    +0.000 C 
ATOM     10  O   UNL     1      25.381  22.919  22.269  0.00  0.00    +0.000 OA
ATOM     11  N   UNL     1      25.610  23.050  24.617  0.00  0.00    +0.000 NA
ENDROOT
BRANCH   7  12
ATOM     12  C   UNL     1      29.433  24.293  24.163  0.00  0.00    +0.000 A 
ATOM     13  C   UNL     1      29.776  23.045  24.444  0.00  0.00    +0.000 A 
ATOM     14  C   UNL     1      31.069  22.718  24.745  0.00  0.00    +0.000 A 
ATOM     15  C   UNL     1      32.015  23.707  24.752  0.00  0.00    +0.000 A 
ATOM     16  C   UNL     1      31.644  25.000  24.457  0.00  0.00    +0.000 A 
ATOM     17  C   UNL     1      30.341  25.322  24.156  0.00  0.00    +0.000 A 
ATOM     18  F   UNL     1      29.932  26.572  23.853  0.00  0.00    +0.000 F 
ENDBRANCH   7  12
BRANCH   1  20
ATOM     19  C   UNL     1      26.265  23.336  30.061  0.00  0.00    +0.000 C 
ATOM     20  O   UNL     1      26.011  24.423  29.229  0.00  0.00    +0.000 OA
ENDBRANCH   1  20
BRANCH   6  21
ATOM     21  O   UNL     1      28.178  25.947  28.584  0.00  0.00    +0.000 OA
ATOM     22  C   UNL     1      29.370  25.519  29.215  0.00  0.00    +0.000 C 
ENDBRANCH   6  21
TORSDOF 3
ENDMDL
MODEL 4
REMARK VINA RESULT:      -6.1     32.238     33.730
REMARK  Name = 
REMARK  3 active torsions:
REMARK  status: ('A' for Active; 'I' for Inactive)
REMARK    1  A    between atoms: O_2  and  C_3
REMARK    2  A    between atoms: C_8  and  O_9
REMARK    3  A    between atoms: C_11  and  C_12
REMARK                            x       y       z     vdW  Elec       q    Type
REMARK                         _______ _______ _______ _____ _____    ______ ____
ROOT
ATOM      1  C   UNL     1      21.912  -8.363  24.816  0.00  0.00    +0.000 A 
ATOM      2  C   UNL     1      21.599  -7.087  25.204  0.00  0.00    +0.000 A 
ATOM      3  C   UNL     1      20.284  -6.795  25.658  0.00  0.00    +0.000 A 
ATOM      4  C   UNL     1      19.351  -7.736  25.711  0.00  0.00    +0.000 A 
ATOM      5  C   UNL     1      19.670  -9.043  25.315  0.00  0.00    +0.000 A 
ATOM      6  C   UNL     1      20.951  -9.345  24.870  0.00  0.00    +0.000 A 
ATOM      7  C   UNL     1      17.870  -7.552  26.160  0.00  0.00    +0.000 C 
ATOM      8  C   UNL     1      17.924  -6.276  27.166  0.00  0.00    +0.000 C 
ATOM      9  C   UNL     1      18.693  -5.214  26.545  0.00  0.00    +0.000 C 
ATOM     10  O   UNL     1      18.126  -4.089  26.469  0.00  0.00    +0.000 OA
ATOM     11  N   UNL     1      19.991  -5.484  26.074  0.00  0.00    +0.000 NA
ENDROOT
BRANCH   7  12
ATOM     12  C   UNL     1      17.841  -8.687  27.293  0.00  0.00    +0.000 A 
ATOM     13  C   UNL     1      18.655  -8.677  28.337  0.00  0.00    +0.000 A 
ATOM     14  C   UNL     1      18.614  -9.671  29.274  0.00  0.00    +0.000 A 
ATOM     15  C   UNL     1      17.712 -10.688  29.119  0.00  0.00    +0.000 A 
ATOM     16  C   UNL     1      16.871 -10.685  28.028  0.00  0.00    +0.000 A 
ATOM     17  C   UNL     1      16.918  -9.681  27.088  0.00  0.00    +0.000 A 
ATOM     18  F   UNL     1      16.109  -9.631  26.008  0.00  0.00    +0.000 F 
ENDBRANCH   7  12
BRANCH   1  20
ATOM     19  C   UNL     1      24.026  -7.692  23.775  0.00  0.00    +0.000 C 
ATOM     20  O   UNL     1      23.211  -8.653  24.368  0.00  0.00    +0.000 OA
ENDBRANCH   1  20
BRANCH   6  21
ATOM     21  O   UNL     1      21.323 -10.618  24.465  0.00  0.00    +0.000 OA
ATOM     22  C   UNL     1      20.395 -11.632  24.129  0.00  0.00    +0.000 C 
ENDBRANCH   6  21
TORSDOF 3
ENDMDL
MODEL 5
REMARK VINA RESULT:      -6.0      3.426      5.741
REMARK  Name = 
REMARK  3 active torsions:
REMARK  status: ('A' for Active; 'I' for Inactive)
REMARK    1  A    between atoms: O_2  and  C_3
REMARK    2  A    between atoms: C_8  and  O_9
REMARK    3  A    between atoms: C_11  and  C_12
REMARK                            x       y       z     vdW  Elec       q    Type
REMARK                         _______ _______ _______ _____ _____    ______ ____
ROOT
ATOM      1  C   UNL     1      26.942  23.426  29.213  0.00  0.00    +0.000 A 
ATOM      2  C   UNL     1      28.032  23.166  30.000  0.00  0.00    +0.000 A 
ATOM      3  C   UNL     1      29.253  22.759  29.396  0.00  0.00    +0.000 A 
ATOM      4  C   UNL     1      29.356  22.624  28.080  0.00  0.00    +0.000 A 
ATOM      5  C   UNL     1      28.241  22.891  27.273  0.00  0.00    +0.000 A 
ATOM      6  C   UNL     1      27.041  23.290  27.848  0.00  0.00    +0.000 A 
ATOM      7  C   UNL     1      30.617  22.163  27.290  0.00  0.00    +0.000 C 
ATOM      8  C   UNL     1      31.857  22.584  28.254  0.00  0.00    +0.000 C 
ATOM      9  C   UNL     1      31.575  22.144  29.608  0.00  0.00    +0.000 C 
ATOM     10  O   UNL     1      32.462  21.432  30.156  0.00  0.00    +0.000 OA
ATOM     11  N   UNL     1      30.366  22.521  30.221  0.00  0.00    +0.000 NA
ENDROOT
BRANCH   7  12
ATOM     12  C   UNL     1      30.720  23.414  26.291  0.00  0.00    +0.000 A 
ATOM     13  C   UNL     1      30.874  24.659  26.716  0.00  0.00    +0.000 A 
ATOM     14  C   UNL     1      30.939  25.703  25.836  0.00  0.00    +0.000 A 
ATOM     15  C   UNL     1      30.844  25.443  24.496  0.00  0.00    +0.000 A 
ATOM     16  C   UNL     1      30.684  24.143  24.068  0.00  0.00    +0.000 A 
ATOM     17  C   UNL     1      30.619  23.097  24.960  0.00  0.00    +0.000 A 
ATOM     18  F   UNL     1      30.472  21.808  24.588  0.00  0.00    +0.000 F 
ENDBRANCH   7  12
BRANCH   1  20
ATOM     19  C   UNL     1      25.581  25.072  30.413  0.00  0.00    +0.000 C 
ATOM     20  O   UNL     1      25.736  23.827  29.809  0.00  0.00    +0.000 OA
ENDBRANCH   1  20
BRANCH   6  21
ATOM     21  O   UNL     1      25.906  23.566  27.101  0.00  0.00    +0.000 OA
ATOM     22  C   UNL     1      25.860  23.468  25.689  0.00  0.00    +0.000 C 
ENDBRANCH   6  21
TORSDOF 3
ENDMDL
MODEL 6
REMARK VINA RESULT:      -6.0     33.244     34.833
REMARK  Name = 
REMARK  3 active torsions:
REMARK  status: ('A' for Active; 'I' for Inactive)
REMARK    1  A    between atoms: O_2  and  C_3
REMARK    2  A    between atoms: C_8  and  O_9
REMARK    3  A    between atoms: C_11  and  C_12
REMARK                            x       y       z     vdW  Elec       q    Type
REMARK                         _______ _______ _______ _____ _____    ______ ____
ROOT
ATOM      1  C   UNL     1      14.588  -9.536  26.019  0.00  0.00    +0.000 A 
ATOM      2  C   UNL     1      15.121 -10.151  27.121  0.00  0.00    +0.000 A 
ATOM      3  C   UNL     1      16.520 -10.073  27.361  0.00  0.00    +0.000 A 
ATOM      4  C   UNL     1      17.322  -9.415  26.534  0.00  0.00    +0.000 A 
ATOM      5  C   UNL     1      16.778  -8.784  25.406  0.00  0.00    +0.000 A 
ATOM      6  C   UNL     1      15.413  -8.851  25.158  0.00  0.00    +0.000 A 
ATOM      7  C   UNL     1      18.868  -9.271  26.659  0.00  0.00    +0.000 C 
ATOM      8  C   UNL     1      19.147  -9.428  28.254  0.00  0.00    +0.000 C 
ATOM      9  C   UNL     1      18.423 -10.584  28.750  0.00  0.00    +0.000 C 
ATOM     10  O   UNL     1      19.108 -11.438  29.380  0.00  0.00    +0.000 OA
ATOM     11  N   UNL     1      17.041 -10.691  28.511  0.00  0.00    +0.000 NA
ENDROOT
BRANCH   7  12
ATOM     12  C   UNL     1      18.945  -7.670  26.609  0.00  0.00    +0.000 A 
ATOM     13  C   UNL     1      18.125  -6.892  27.299  0.00  0.00    +0.000 A 
ATOM     14  C   UNL     1      18.207  -5.530  27.217  0.00  0.00    +0.000 A 
ATOM     15  C   UNL     1      19.159  -4.974  26.407  0.00  0.00    +0.000 A 
ATOM     16  C   UNL     1      20.006  -5.796  25.695  0.00  0.00    +0.000 A 
ATOM     17  C   UNL     1      19.917  -7.166  25.782  0.00  0.00    +0.000 A 
ATOM     18  F   UNL     1      20.729  -8.010  25.112  0.00  0.00    +0.000 F 
ENDBRANCH   7  12
BRANCH   1  20
ATOM     19  C   UNL     1      12.285  -8.849  26.491  0.00  0.00    +0.000 C 
ATOM     20  O   UNL     1      13.207  -9.613  25.781  0.00  0.00    +0.000 OA
ENDBRANCH   1  20
BRANCH   6  21
ATOM     21  O   UNL     1      14.820  -8.248  24.059  0.00  0.00    +0.000 OA
ATOM     22  C   UNL     1      14.816  -8.821  22.764  0.00  0.00    +0.000 C 
ENDBRANCH   6  21
TORSDOF 3
ENDMDL
MODEL 7
REMARK VINA RESULT:      -5.9      2.062      2.874
REMARK  Name = 
REMARK  3 active torsions:
REMARK  status: ('A' for Active; 'I' for Inactive)
REMARK    1  A    between atoms: O_2  and  C_3
REMARK    2  A    between atoms: C_8  and  O_9
REMARK    3  A    between atoms: C_11  and  C_12
REMARK                            x       y       z     vdW  Elec       q    Type
REMARK                         _______ _______ _______ _____ _____    ______ ____
ROOT
ATOM      1  C   UNL     1      29.288  22.966  29.632  0.00  0.00    +0.000 A 
ATOM      2  C   UNL     1      30.350  23.034  28.770  0.00  0.00    +0.000 A 
ATOM      3  C   UNL     1      30.120  23.001  27.368  0.00  0.00    +0.000 A 
ATOM      4  C   UNL     1      28.891  22.904  26.877  0.00  0.00    +0.000 A 
ATOM      5  C   UNL     1      27.803  22.835  27.758  0.00  0.00    +0.000 A 
ATOM      6  C   UNL     1      28.011  22.866  29.131  0.00  0.00    +0.000 A 
ATOM      7  C   UNL     1      28.496  22.831  25.372  0.00  0.00    +0.000 C 
ATOM      8  C   UNL     1      29.714  23.593  24.611  0.00  0.00    +0.000 C 
ATOM      9  C   UNL     1      30.978  23.090  25.116  0.00  0.00    +0.000 C 
ATOM     10  O   UNL     1      31.792  22.667  24.249  0.00  0.00    +0.000 OA
ATOM     11  N   UNL     1      31.223  23.098  26.501  0.00  0.00    +0.000 NA
ENDROOT
BRANCH   7  12
ATOM     12  C   UNL     1      27.464  24.058  25.355  0.00  0.00    +0.000 A 
ATOM     13  C   UNL     1      27.848  25.319  25.483  0.00  0.00    +0.000 A 
ATOM     14  C   UNL     1      26.938  26.339  25.484  0.00  0.00    +0.000 A 
ATOM     15  C   UNL     1      25.610  26.038  25.348  0.00  0.00    +0.000 A 
ATOM     16  C   UNL     1      25.224  24.722  25.215  0.00  0.00    +0.000 A 
ATOM     17  C   UNL     1      26.146  23.700  25.216  0.00  0.00    +0.000 A 
ATOM     18  F   UNL     1      25.817  22.398  25.081  0.00  0.00    +0.000 F 
ENDBRANCH   7  12
BRANCH   1  20
ATOM     19  C   UNL     1      30.230  22.003  31.679  0.00  0.00    +0.000 C 
ATOM     20  O   UNL     1      29.516  22.998  31.017  0.00  0.00    +0.000 OA
ENDBRANCH   1  20
BRANCH   6  21
ATOM     21  O   UNL     1      26.975  22.800  30.049  0.00  0.00    +0.000 OA
ATOM     22  C   UNL     1      26.354  21.589  30.437  0.00  0.00    +0.000 C 
ENDBRANCH   6  21
TORSDOF 3
ENDMDL
MODEL 8
REMARK VINA RESULT:      -5.8     33.156     34.650
REMARK  Name = 
REMARK  3 active torsions:
REMARK  status: ('A' for Active; 'I' for Inactive)
REMARK    1  A    between atoms: O_2  and  C_3
REMARK    2  A    between atoms: C_8  and  O_9
REMARK    3  A    between atoms: C_11  and  C_12
REMARK                            x       y       z     vdW  Elec       q    Type
REMARK                         _______ _______ _______ _____ _____    ______ ____
ROOT
ATOM      1  C   UNL     1      17.959 -11.128  28.995  0.00  0.00    +0.000 A 
ATOM      2  C   UNL     1      16.887 -11.110  28.142  0.00  0.00    +0.000 A 
ATOM      3  C   UNL     1      16.551  -9.906  27.464  0.00  0.00    +0.000 A 
ATOM      4  C   UNL     1      17.257  -8.798  27.642  0.00  0.00    +0.000 A 
ATOM      5  C   UNL     1      18.355  -8.815  28.514  0.00  0.00    +0.000 A 
ATOM      6  C   UNL     1      18.697  -9.983  29.184  0.00  0.00    +0.000 A 
ATOM      7  C   UNL     1      16.987  -7.410  26.989  0.00  0.00    +0.000 C 
ATOM      8  C   UNL     1      16.213  -7.775  25.606  0.00  0.00    +0.000 C 
ATOM      9  C   UNL     1      15.155  -8.726  25.891  0.00  0.00    +0.000 C 
ATOM     10  O   UNL     1      14.001  -8.408  25.492  0.00  0.00    +0.000 OA
ATOM     11  N   UNL     1      15.462  -9.917  26.575  0.00  0.00    +0.000 NA
ENDROOT
BRANCH   7  12
ATOM     12  C   UNL     1      18.437  -7.186  26.341  0.00  0.00    +0.000 A 
ATOM     13  C   UNL     1      19.121  -8.161  25.762  0.00  0.00    +0.000 A 
ATOM     14  C   UNL     1      20.363  -7.937  25.237  0.00  0.00    +0.000 A 
ATOM     15  C   UNL     1      20.897  -6.680  25.318  0.00  0.00    +0.000 A 
ATOM     16  C   UNL     1      20.175  -5.676  25.923  0.00  0.00    +0.000 A 
ATOM     17  C   UNL     1      18.925  -5.908  26.450  0.00  0.00    +0.000 A 
ATOM     18  F   UNL     1      18.177  -4.954  27.044  0.00  0.00    +0.000 F 
ENDBRANCH   7  12
BRANCH   1  20
ATOM     19  C   UNL     1      17.390 -13.367  29.812  0.00  0.00    +0.000 C 
ATOM     20  O   UNL     1      18.292 -12.316  29.665  0.00  0.00    +0.000 OA
ENDBRANCH   1  20
BRANCH   6  21
ATOM     21  O   UNL     1      19.771 -10.060  30.058  0.00  0.00    +0.000 OA
ATOM     22  C   UNL     1      19.678  -9.745  31.435  0.00  0.00    +0.000 C 
ENDBRANCH   6  21
TORSDOF 3
ENDMDL
MODEL 9
REMARK VINA RESULT:      -5.8      2.873      4.333
REMARK  Name = 
REMARK  3 active torsions:
REMARK  status: ('A' for Active; 'I' for Inactive)
REMARK    1  A    between atoms: O_2  and  C_3
REMARK    2  A    between atoms: C_8  and  O_9
REMARK    3  A    between atoms: C_11  and  C_12
REMARK                            x       y       z     vdW  Elec       q    Type
REMARK                         _______ _______ _______ _____ _____    ______ ____
ROOT
ATOM      1  C   UNL     1      29.456  26.416  24.419  0.00  0.00    +0.000 A 
ATOM      2  C   UNL     1      28.464  26.044  23.552  0.00  0.00    +0.000 A 
ATOM      3  C   UNL     1      27.685  24.888  23.830  0.00  0.00    +0.000 A 
ATOM      4  C   UNL     1      27.903  24.159  24.917  0.00  0.00    +0.000 A 
ATOM      5  C   UNL     1      28.919  24.539  25.806  0.00  0.00    +0.000 A 
ATOM      6  C   UNL     1      29.688  25.666  25.549  0.00  0.00    +0.000 A 
ATOM      7  C   UNL     1      27.149  22.860  25.331  0.00  0.00    +0.000 C 
ATOM      8  C   UNL     1      25.692  23.014  24.624  0.00  0.00    +0.000 C 
ATOM      9  C   UNL     1      25.875  23.407  23.239  0.00  0.00    +0.000 C 
ATOM     10  O   UNL     1      25.305  22.683  22.377  0.00  0.00    +0.000 OA
ATOM     11  N   UNL     1      26.655  24.539  22.939  0.00  0.00    +0.000 NA
ENDROOT
BRANCH   7  12
ATOM     12  C   UNL     1      26.699  23.326  26.798  0.00  0.00    +0.000 A 
ATOM     13  C   UNL     1      25.793  24.269  27.003  0.00  0.00    +0.000 A 
ATOM     14  C   UNL     1      25.447  24.654  28.269  0.00  0.00    +0.000 A 
ATOM     15  C   UNL     1      26.055  24.045  29.333  0.00  0.00    +0.000 A 
ATOM     16  C   UNL     1      26.995  23.064  29.104  0.00  0.00    +0.000 A 
ATOM     17  C   UNL     1      27.339  22.683  27.827  0.00  0.00    +0.000 A 
ATOM     18  F   UNL     1      28.247  21.722  27.555  0.00  0.00    +0.000 F 
ENDBRANCH   7  12
BRANCH   1  20
ATOM     19  C   UNL     1      29.805  28.840  24.487  0.00  0.00    +0.000 C 
ATOM     20  O   UNL     1      30.226  27.558  24.145  0.00  0.00    +0.000 OA
ENDBRANCH   1  20
BRANCH   6  21
ATOM     21  O   UNL     1      30.706  26.089  26.390  0.00  0.00    +0.000 OA
ATOM     22  C   UNL     1      30.858  25.628  27.720  0.00  0.00    +0.000 C 
ENDBRANCH   6  21
TORSDOF 3
ENDMDL
MODEL 10
REMARK VINA RESULT:      -5.8     19.929     21.234
REMARK  Name = 
REMARK  3 active torsions:
REMARK  status: ('A' for Active; 'I' for Inactive)
REMARK    1  A    between atoms: O_2  and  C_3
REMARK    2  A    between atoms: C_8  and  O_9
REMARK    3  A    between atoms: C_11  and  C_12
REMARK                            x       y       z     vdW  Elec       q    Type
REMARK                         _______ _______ _______ _____ _____    ______ ____
ROOT
ATOM      1  C   UNL     1      27.300   6.636  13.794  0.00  0.00    +0.000 A 
ATOM      2  C   UNL     1      28.064   7.056  14.851  0.00  0.00    +0.000 A 
ATOM      3  C   UNL     1      27.613   6.821  16.179  0.00  0.00    +0.000 A 
ATOM      4  C   UNL     1      26.463   6.204  16.414  0.00  0.00    +0.000 A 
ATOM      5  C   UNL     1      25.681   5.773  15.333  0.00  0.00    +0.000 A 
ATOM      6  C   UNL     1      26.107   5.994  14.030  0.00  0.00    +0.000 A 
ATOM      7  C   UNL     1      25.837   5.906  17.809  0.00  0.00    +0.000 C 
ATOM      8  C   UNL     1      27.121   5.833  18.805  0.00  0.00    +0.000 C 
ATOM      9  C   UNL     1      27.979   6.978  18.557  0.00  0.00    +0.000 C 
ATOM     10  O   UNL     1      28.272   7.679  19.565  0.00  0.00    +0.000 OA
ATOM     11  N   UNL     1      28.424   7.238  17.249  0.00  0.00    +0.000 NA
ENDROOT
BRANCH   7  12
ATOM     12  C   UNL     1      25.645   4.324  17.631  0.00  0.00    +0.000 A 
ATOM     13  C   UNL     1      26.592   3.538  17.141  0.00  0.00    +0.000 A 
ATOM     14  C   UNL     1      26.386   2.196  16.986  0.00  0.00    +0.000 A 
ATOM     15  C   UNL     1      25.177   1.667  17.348  0.00  0.00    +0.000 A 
ATOM     16  C   UNL     1      24.201   2.496  17.856  0.00  0.00    +0.000 A 
ATOM     17  C   UNL     1      24.415   3.847  18.009  0.00  0.00    +0.000 A 
ATOM     18  F   UNL     1      23.494   4.696  18.511  0.00  0.00    +0.000 F 
ENDBRANCH   7  12
BRANCH   1  20
ATOM     19  C   UNL     1      29.043   7.282  12.197  0.00  0.00    +0.000 C 
ATOM     20  O   UNL     1      27.745   6.867  12.482  0.00  0.00    +0.000 OA
ENDBRANCH   1  20
BRANCH   6  21
ATOM     21  O   UNL     1      25.376   5.592  12.922  0.00  0.00    +0.000 OA
ATOM     22  C   UNL     1      24.302   4.672  12.990  0.00  0.00    +0.000 C 
ENDBRANCH   6  21
TORSDOF 3
ENDMDL
