MODEL 1
REMARK VINA RESULT:      -6.4      0.000      0.000
REMARK  Name = 
REMARK  4 active torsions:
REMARK  status: ('A' for Active; 'I' for Inactive)
REMARK    1  A    between atoms: C_2  and  C_3
REMARK    2  A    between atoms: C_7  and  N_8
REMARK    3  A    between atoms: C_9  and  C_11
REMARK    4  A    between atoms: C_18  and  C_19
REMARK                            x       y       z     vdW  Elec       q    Type
REMARK                         _______ _______ _______ _____ _____    ______ ____
ROOT
ATOM      1  C   UNL     1      33.241  20.892   8.358  0.00  0.00    +0.000 A 
ATOM      2  C   UNL     1      32.282  20.447   7.512  0.00  0.00    +0.000 A 
ATOM      3  C   UNL     1      32.498  19.839   6.136  0.00  0.00    +0.000 C 
ATOM      4  S   UNL     1      30.858  20.723   8.333  0.00  0.00    +0.000 S 
ATOM      5  C   UNL     1      31.515  21.440   9.824  0.00  0.00    +0.000 A 
ATOM      6  C   UNL     1      32.852  21.408   9.557  0.00  0.00    +0.000 A 
ENDROOT
BRANCH   5   7
ATOM      7  N   UNL     1      30.656  21.829  10.814  0.00  0.00    +0.000 NA
ATOM      8  C   UNL     1      30.169  21.743  12.034  0.00  0.00    +0.000 C 
ATOM      9  O   UNL     1      30.653  20.897  12.814  0.00  0.00    +0.000 OA
BRANCH   8  10
ATOM     10  C   UNL     1      29.055  22.621  12.522  0.00  0.00    +0.000 A 
ATOM     11  C   UNL     1      29.305  23.416  13.615  0.00  0.00    +0.000 A 
ATOM     12  C   UNL     1      28.262  24.224  14.055  0.00  0.00    +0.000 A 
ATOM     13  C   UNL     1      27.027  24.237  13.431  0.00  0.00    +0.000 A 
ATOM     14  C   UNL     1      26.803  23.431  12.335  0.00  0.00    +0.000 A 
ATOM     15  C   UNL     1      27.830  22.635  11.902  0.00  0.00    +0.000 A 
ATOM     16  F   UNL     1      27.697  21.803  10.823  0.00  0.00    +0.000 F 
ENDBRANCH   8  10
ENDBRANCH   5   7
BRANCH   6  17
ATOM     17  C   UNL     1      33.881  21.905  10.522  0.00  0.00    +0.000 C 
ATOM     18  N   UNL     1      34.442  20.983  11.494  0.00  0.00    +0.000 NA
ATOM     19  O   UNL     1      34.320  23.035  10.589  0.00  0.00    +0.000 OA
ENDBRANCH   6  17
BRANCH   1  21
ATOM     20  C   UNL     1      35.065  22.087   7.202  0.00  0.00    +0.000 C 
ATOM     21  C   UNL     1      34.711  20.785   7.901  0.00  0.00    +0.000 C 
ENDBRANCH   1  21
TORSDOF 4
ENDMDL
MODEL 2
REMARK VINA RESULT:      -6.1     30.013     31.478
REMARK  Name = 
REMARK  4 active torsions:
REMARK  status: ('A' for Active; 'I' for Inactive)
REMARK    1  A    between atoms: C_2  and  C_3
REMARK    2  A    between atoms: C_7  and  N_8
REMARK    3  A    between atoms: C_9  and  C_11
REMARK    4  A    between atoms: C_18  and  C_19
REMARK                            x       y       z     vdW  Elec       q    Type
REMARK                         _______ _______ _______ _____ _____    ______ ____
ROOT
ATOM      1  C   UNL     1      22.092  12.428  38.504  0.00  0.00    +0.000 A 
ATOM      2  C   UNL     1      21.825  13.735  38.735  0.00  0.00    +0.000 A 
ATOM      3  C   UNL     1      22.818  14.799  39.172  0.00  0.00    +0.000 C 
ATOM      4  S   UNL     1      20.193  13.875  38.428  0.00  0.00    +0.000 S 
ATOM      5  C   UNL     1      19.833  12.190  37.985  0.00  0.00    +0.000 A 
ATOM      6  C   UNL     1      21.066  11.621  38.115  0.00  0.00    +0.000 A 
ENDROOT
BRANCH   5   7
ATOM      7  N   UNL     1      18.555  11.845  37.644  0.00  0.00    +0.000 NA
ATOM      8  C   UNL     1      17.654  10.984  37.222  0.00  0.00    +0.000 C 
ATOM      9  O   UNL     1      18.018   9.822  36.948  0.00  0.00    +0.000 OA
BRANCH   8  10
ATOM     10  C   UNL     1      16.207  11.344  37.058  0.00  0.00    +0.000 A 
ATOM     11  C   UNL     1      15.359  11.058  38.101  0.00  0.00    +0.000 A 
ATOM     12  C   UNL     1      14.021  11.398  37.932  0.00  0.00    +0.000 A 
ATOM     13  C   UNL     1      13.553  11.997  36.776  0.00  0.00    +0.000 A 
ATOM     14  C   UNL     1      14.426  12.275  35.745  0.00  0.00    +0.000 A 
ATOM     15  C   UNL     1      15.742  11.939  35.911  0.00  0.00    +0.000 A 
ATOM     16  F   UNL     1      16.679  12.177  34.941  0.00  0.00    +0.000 F 
ENDBRANCH   8  10
ENDBRANCH   5   7
BRANCH   6  17
ATOM     17  C   UNL     1      21.321  10.172  37.845  0.00  0.00    +0.000 C 
ATOM     18  N   UNL     1      21.627   9.750  36.489  0.00  0.00    +0.000 NA
ATOM     19  O   UNL     1      21.301   9.272  38.660  0.00  0.00    +0.000 OA
ENDBRANCH   6  17
BRANCH   1  21
ATOM     20  C   UNL     1      24.265  12.122  37.373  0.00  0.00    +0.000 C 
ATOM     21  C   UNL     1      23.544  11.943  38.700  0.00  0.00    +0.000 C 
ENDBRANCH   1  21
TORSDOF 4
ENDMDL
MODEL 3
REMARK VINA RESULT:      -5.8     15.320     19.109
REMARK  Name = 
REMARK  4 active torsions:
REMARK  status: ('A' for Active; 'I' for Inactive)
REMARK    1  A    between atoms: C_2  and  C_3
REMARK    2  A    between atoms: C_7  and  N_8
REMARK    3  A    between atoms: C_9  and  C_11
REMARK    4  A    between atoms: C_18  and  C_19
REMARK                            x       y       z     vdW  Elec       q    Type
REMARK                         _______ _______ _______ _____ _____    ______ ____
ROOT
ATOM      1  C   UNL     1      24.281  26.053  29.444  0.00  0.00    +0.000 A 
ATOM      2  C   UNL     1      23.466  26.499  28.459  0.00  0.00    +0.000 A 
ATOM      3  C   UNL     1      22.238  27.377  28.627  0.00  0.00    +0.000 C 
ATOM      4  S   UNL     1      24.130  25.865  27.068  0.00  0.00    +0.000 S 
ATOM      5  C   UNL     1      25.509  24.990  27.774  0.00  0.00    +0.000 A 
ATOM      6  C   UNL     1      25.341  25.271  29.098  0.00  0.00    +0.000 A 
ENDROOT
BRANCH   5   7
ATOM      7  N   UNL     1      26.356  24.299  26.952  0.00  0.00    +0.000 NA
ATOM      8  C   UNL     1      26.596  23.465  25.963  0.00  0.00    +0.000 C 
ATOM      9  O   UNL     1      25.628  22.953  25.363  0.00  0.00    +0.000 OA
BRANCH   8  10
ATOM     10  C   UNL     1      27.986  23.105  25.530  0.00  0.00    +0.000 A 
ATOM     11  C   UNL     1      28.353  23.424  24.245  0.00  0.00    +0.000 A 
ATOM     12  C   UNL     1      29.645  23.083  23.859  0.00  0.00    +0.000 A 
ATOM     13  C   UNL     1      30.528  22.454  24.717  0.00  0.00    +0.000 A 
ATOM     14  C   UNL     1      30.135  22.146  26.003  0.00  0.00    +0.000 A 
ATOM     15  C   UNL     1      28.863  22.481  26.382  0.00  0.00    +0.000 A 
ATOM     16  F   UNL     1      28.387  22.214  27.638  0.00  0.00    +0.000 F 
ENDBRANCH   8  10
ENDBRANCH   5   7
BRANCH   6  17
ATOM     17  C   UNL     1      26.267  24.763  30.157  0.00  0.00    +0.000 C 
ATOM     18  N   UNL     1      26.026  23.454  30.739  0.00  0.00    +0.000 NA
ATOM     19  O   UNL     1      27.237  25.342  30.605  0.00  0.00    +0.000 OA
ENDBRANCH   6  17
BRANCH   1  21
ATOM     20  C   UNL     1      24.673  27.769  31.175  0.00  0.00    +0.000 C 
ATOM     21  C   UNL     1      23.948  26.462  30.895  0.00  0.00    +0.000 C 
ENDBRANCH   1  21
TORSDOF 4
ENDMDL
MODEL 4
REMARK VINA RESULT:      -5.8     12.809     15.842
REMARK  Name = 
REMARK  4 active torsions:
REMARK  status: ('A' for Active; 'I' for Inactive)
REMARK    1  A    between atoms: C_2  and  C_3
REMARK    2  A    between atoms: C_7  and  N_8
REMARK    3  A    between atoms: C_9  and  C_11
REMARK    4  A    between atoms: C_18  and  C_19
REMARK                            x       y       z     vdW  Elec       q    Type
REMARK                         _______ _______ _______ _____ _____    ______ ____
ROOT
ATOM      1  C   UNL     1      27.824  26.312  22.456  0.00  0.00    +0.000 A 
ATOM      2  C   UNL     1      27.933  27.497  23.102  0.00  0.00    +0.000 A 
ATOM      3  C   UNL     1      28.210  28.851  22.470  0.00  0.00    +0.000 C 
ATOM      4  S   UNL     1      27.693  27.107  24.704  0.00  0.00    +0.000 S 
ATOM      5  C   UNL     1      27.443  25.352  24.545  0.00  0.00    +0.000 A 
ATOM      6  C   UNL     1      27.570  25.196  23.196  0.00  0.00    +0.000 A 
ENDROOT
BRANCH   5   7
ATOM      7  N   UNL     1      27.203  24.605  25.664  0.00  0.00    +0.000 NA
ATOM      8  C   UNL     1      26.780  23.515  26.269  0.00  0.00    +0.000 C 
ATOM      9  O   UNL     1      26.331  22.581  25.573  0.00  0.00    +0.000 OA
BRANCH   8  10
ATOM     10  C   UNL     1      26.816  23.354  27.759  0.00  0.00    +0.000 A 
ATOM     11  C   UNL     1      25.884  24.045  28.495  0.00  0.00    +0.000 A 
ATOM     12  C   UNL     1      25.931  23.885  29.876  0.00  0.00    +0.000 A 
ATOM     13  C   UNL     1      26.865  23.070  30.492  0.00  0.00    +0.000 A 
ATOM     14  C   UNL     1      27.788  22.386  29.729  0.00  0.00    +0.000 A 
ATOM     15  C   UNL     1      27.742  22.545  28.370  0.00  0.00    +0.000 A 
ATOM     16  F   UNL     1      28.618  21.905  27.535  0.00  0.00    +0.000 F 
ENDBRANCH   8  10
ENDBRANCH   5   7
BRANCH   6  17
ATOM     17  C   UNL     1      27.437  23.870  22.518  0.00  0.00    +0.000 C 
ATOM     18  N   UNL     1      26.126  23.434  22.069  0.00  0.00    +0.000 NA
ATOM     19  O   UNL     1      28.334  23.082  22.292  0.00  0.00    +0.000 OA
ENDBRANCH   6  17
BRANCH   1  21
ATOM     20  C   UNL     1      29.468  26.060  20.631  0.00  0.00    +0.000 C 
ATOM     21  C   UNL     1      27.996  26.308  20.922  0.00  0.00    +0.000 C 
ENDBRANCH   1  21
TORSDOF 4
ENDMDL
MODEL 5
REMARK VINA RESULT:      -5.8      4.390      6.795
REMARK  Name = 
REMARK  4 active torsions:
REMARK  status: ('A' for Active; 'I' for Inactive)
REMARK    1  A    between atoms: C_2  and  C_3
REMARK    2  A    between atoms: C_7  and  N_8
REMARK    3  A    between atoms: C_9  and  C_11
REMARK    4  A    between atoms: C_18  and  C_19
REMARK                            x       y       z     vdW  Elec       q    Type
REMARK                         _______ _______ _______ _____ _____    ______ ____
ROOT
ATOM      1  C   UNL     1      31.763  20.913  10.007  0.00  0.00    +0.000 A 
ATOM      2  C   UNL     1      31.000  21.193  11.090  0.00  0.00    +0.000 A 
ATOM      3  C   UNL     1      29.554  21.662  11.083  0.00  0.00    +0.000 C 
ATOM      4  S   UNL     1      32.010  20.901  12.383  0.00  0.00    +0.000 S 
ATOM      5  C   UNL     1      33.474  20.400  11.504  0.00  0.00    +0.000 A 
ATOM      6  C   UNL     1      33.046  20.502  10.213  0.00  0.00    +0.000 A 
ENDROOT
BRANCH   5   7
ATOM      7  N   UNL     1      34.593  20.055  12.209  0.00  0.00    +0.000 NA
ATOM      8  C   UNL     1      35.767  19.469  12.318  0.00  0.00    +0.000 C 
ATOM      9  O   UNL     1      36.230  18.867  11.327  0.00  0.00    +0.000 OA
BRANCH   8  10
ATOM     10  C   UNL     1      36.567  19.496  13.585  0.00  0.00    +0.000 A 
ATOM     11  C   UNL     1      37.451  20.534  13.756  0.00  0.00    +0.000 A 
ATOM     12  C   UNL     1      38.187  20.544  14.937  0.00  0.00    +0.000 A 
ATOM     13  C   UNL     1      38.044  19.563  15.901  0.00  0.00    +0.000 A 
ATOM     14  C   UNL     1      37.149  18.532  15.706  0.00  0.00    +0.000 A 
ATOM     15  C   UNL     1      36.426  18.522  14.543  0.00  0.00    +0.000 A 
ATOM     16  F   UNL     1      35.515  17.539  14.264  0.00  0.00    +0.000 F 
ENDBRANCH   8  10
ENDBRANCH   5   7
BRANCH   6  17
ATOM     17  C   UNL     1      33.919  20.178   9.043  0.00  0.00    +0.000 C 
ATOM     18  N   UNL     1      33.946  18.816   8.537  0.00  0.00    +0.000 NA
ATOM     19  O   UNL     1      34.637  20.952   8.442  0.00  0.00    +0.000 OA
ENDBRANCH   6  17
BRANCH   1  21
ATOM     20  C   UNL     1      31.361  22.519   8.176  0.00  0.00    +0.000 C 
ATOM     21  C   UNL     1      31.125  21.082   8.612  0.00  0.00    +0.000 C 
ENDBRANCH   1  21
TORSDOF 4
ENDMDL
MODEL 6
REMARK VINA RESULT:      -5.7     33.039     34.191
REMARK  Name = 
REMARK  4 active torsions:
REMARK  status: ('A' for Active; 'I' for Inactive)
REMARK    1  A    between atoms: C_2  and  C_3
REMARK    2  A    between atoms: C_7  and  N_8
REMARK    3  A    between atoms: C_9  and  C_11
REMARK    4  A    between atoms: C_18  and  C_19
REMARK                            x       y       z     vdW  Elec       q    Type
REMARK                         _______ _______ _______ _____ _____    ______ ____
ROOT
ATOM      1  C   UNL     1      35.407  -4.356  35.437  0.00  0.00    +0.000 A 
ATOM      2  C   UNL     1      36.400  -4.003  36.288  0.00  0.00    +0.000 A 
ATOM      3  C   UNL     1      37.412  -4.934  36.935  0.00  0.00    +0.000 C 
ATOM      4  S   UNL     1      36.237  -2.351  36.436  0.00  0.00    +0.000 S 
ATOM      5  C   UNL     1      34.838  -2.098  35.366  0.00  0.00    +0.000 A 
ATOM      6  C   UNL     1      34.594  -3.375  34.955  0.00  0.00    +0.000 A 
ENDROOT
BRANCH   5   7
ATOM      7  N   UNL     1      34.350  -0.833  35.190  0.00  0.00    +0.000 NA
ATOM      8  C   UNL     1      33.384   0.059  35.235  0.00  0.00    +0.000 C 
ATOM      9  O   UNL     1      32.255  -0.300  35.628  0.00  0.00    +0.000 OA
BRANCH   8  10
ATOM     10  C   UNL     1      33.586   1.489  34.831  0.00  0.00    +0.000 A 
ATOM     11  C   UNL     1      33.447   1.799  33.499  0.00  0.00    +0.000 A 
ATOM     12  C   UNL     1      33.638   3.129  33.141  0.00  0.00    +0.000 A 
ATOM     13  C   UNL     1      33.953   4.104  34.070  0.00  0.00    +0.000 A 
ATOM     14  C   UNL     1      34.086   3.767  35.401  0.00  0.00    +0.000 A 
ATOM     15  C   UNL     1      33.898   2.457  35.753  0.00  0.00    +0.000 A 
ATOM     16  F   UNL     1      34.010   2.032  37.049  0.00  0.00    +0.000 F 
ENDBRANCH   8  10
ENDBRANCH   5   7
BRANCH   6  17
ATOM     17  C   UNL     1      33.489  -3.724  34.009  0.00  0.00    +0.000 C 
ATOM     18  N   UNL     1      32.184  -4.072  34.543  0.00  0.00    +0.000 NA
ATOM     19  O   UNL     1      33.560  -3.752  32.797  0.00  0.00    +0.000 OA
ENDBRANCH   6  17
BRANCH   1  21
ATOM     20  C   UNL     1      36.095  -6.093  33.823  0.00  0.00    +0.000 C 
ATOM     21  C   UNL     1      35.266  -5.850  35.074  0.00  0.00    +0.000 C 
ENDBRANCH   1  21
TORSDOF 4
ENDMDL
MODEL 7
REMARK VINA RESULT:      -5.6     32.753     34.147
REMARK  Name = 
REMARK  4 active torsions:
REMARK  status: ('A' for Active; 'I' for Inactive)
REMARK    1  A    between atoms: C_2  and  C_3
REMARK    2  A    between atoms: C_7  and  N_8
REMARK    3  A    between atoms: C_9  and  C_11
REMARK    4  A    between atoms: C_18  and  C_19
REMARK                            x       y       z     vdW  Elec       q    Type
REMARK                         _______ _______ _______ _____ _____    ______ ____
ROOT
ATOM      1  C   UNL     1      33.806   2.126  35.605  0.00  0.00    +0.000 A 
ATOM      2  C   UNL     1      33.653   2.568  34.334  0.00  0.00    +0.000 A 
ATOM      3  C   UNL     1      33.589   4.017  33.880  0.00  0.00    +0.000 C 
ATOM      4  S   UNL     1      33.559   1.172  33.429  0.00  0.00    +0.000 S 
ATOM      5  C   UNL     1      33.722  -0.032  34.730  0.00  0.00    +0.000 A 
ATOM      6  C   UNL     1      33.842   0.781  35.819  0.00  0.00    +0.000 A 
ENDROOT
BRANCH   5   7
ATOM      7  N   UNL     1      33.697  -1.363  34.418  0.00  0.00    +0.000 NA
ATOM      8  C   UNL     1      33.124  -2.547  34.412  0.00  0.00    +0.000 C 
ATOM      9  O   UNL     1      31.998  -2.670  34.937  0.00  0.00    +0.000 OA
BRANCH   8  10
ATOM     10  C   UNL     1      33.770  -3.754  33.800  0.00  0.00    +0.000 A 
ATOM     11  C   UNL     1      33.484  -4.029  32.484  0.00  0.00    +0.000 A 
ATOM     12  C   UNL     1      34.092  -5.151  31.931  0.00  0.00    +0.000 A 
ATOM     13  C   UNL     1      34.945  -5.960  32.660  0.00  0.00    +0.000 A 
ATOM     14  C   UNL     1      35.217  -5.661  33.978  0.00  0.00    +0.000 A 
ATOM     15  C   UNL     1      34.618  -4.557  34.522  0.00  0.00    +0.000 A 
ATOM     16  F   UNL     1      34.829  -4.184  35.822  0.00  0.00    +0.000 F 
ENDBRANCH   8  10
ENDBRANCH   5   7
BRANCH   6  17
ATOM     17  C   UNL     1      34.015   0.254  37.207  0.00  0.00    +0.000 C 
ATOM     18  N   UNL     1      32.841  -0.139  37.966  0.00  0.00    +0.000 NA
ATOM     19  O   UNL     1      35.067   0.110  37.798  0.00  0.00    +0.000 OA
ENDBRANCH   6  17
BRANCH   1  21
ATOM     20  C   UNL     1      35.404   3.503  36.888  0.00  0.00    +0.000 C 
ATOM     21  C   UNL     1      33.927   3.181  36.726  0.00  0.00    +0.000 C 
ENDBRANCH   1  21
TORSDOF 4
ENDMDL
MODEL 8
REMARK VINA RESULT:      -5.5     17.784     19.406
REMARK  Name = 
REMARK  4 active torsions:
REMARK  status: ('A' for Active; 'I' for Inactive)
REMARK    1  A    between atoms: C_2  and  C_3
REMARK    2  A    between atoms: C_7  and  N_8
REMARK    3  A    between atoms: C_9  and  C_11
REMARK    4  A    between atoms: C_18  and  C_19
REMARK                            x       y       z     vdW  Elec       q    Type
REMARK                         _______ _______ _______ _____ _____    ______ ____
ROOT
ATOM      1  C   UNL     1      31.363  22.053  29.828  0.00  0.00    +0.000 A 
ATOM      2  C   UNL     1      31.258  21.922  31.172  0.00  0.00    +0.000 A 
ATOM      3  C   UNL     1      32.320  21.384  32.116  0.00  0.00    +0.000 C 
ATOM      4  S   UNL     1      29.725  22.482  31.514  0.00  0.00    +0.000 S 
ATOM      5  C   UNL     1      29.193  22.902  29.868  0.00  0.00    +0.000 A 
ATOM      6  C   UNL     1      30.298  22.560  29.146  0.00  0.00    +0.000 A 
ENDROOT
BRANCH   5   7
ATOM      7  N   UNL     1      27.942  23.420  29.680  0.00  0.00    +0.000 NA
ATOM      8  C   UNL     1      26.645  23.443  29.905  0.00  0.00    +0.000 C 
ATOM      9  O   UNL     1      26.157  22.598  30.684  0.00  0.00    +0.000 OA
BRANCH   8  10
ATOM     10  C   UNL     1      25.732  24.443  29.260  0.00  0.00    +0.000 A 
ATOM     11  C   UNL     1      25.548  24.351  27.902  0.00  0.00    +0.000 A 
ATOM     12  C   UNL     1      24.698  25.286  27.319  0.00  0.00    +0.000 A 
ATOM     13  C   UNL     1      24.063  26.266  28.061  0.00  0.00    +0.000 A 
ATOM     14  C   UNL     1      24.264  26.335  29.423  0.00  0.00    +0.000 A 
ATOM     15  C   UNL     1      25.101  25.415  29.996  0.00  0.00    +0.000 A 
ATOM     16  F   UNL     1      25.359  25.408  31.340  0.00  0.00    +0.000 F 
ENDBRANCH   8  10
ENDBRANCH   5   7
BRANCH   6  17
ATOM     17  C   UNL     1      30.378  22.726  27.661  0.00  0.00    +0.000 C 
ATOM     18  N   UNL     1      30.837  23.991  27.115  0.00  0.00    +0.000 NA
ATOM     19  O   UNL     1      30.091  21.892  26.826  0.00  0.00    +0.000 OA
ENDBRANCH   6  17
BRANCH   1  21
ATOM     20  C   UNL     1      33.613  22.822  29.163  0.00  0.00    +0.000 C 
ATOM     21  C   UNL     1      32.685  21.617  29.163  0.00  0.00    +0.000 C 
ENDBRANCH   1  21
TORSDOF 4
ENDMDL
MODEL 9
REMARK VINA RESULT:      -5.5     11.529     14.353
REMARK  Name = 
REMARK  4 active torsions:
REMARK  status: ('A' for Active; 'I' for Inactive)
REMARK    1  A    between atoms: C_2  and  C_3
REMARK    2  A    between atoms: C_7  and  N_8
REMARK    3  A    between atoms: C_9  and  C_11
REMARK    4  A    between atoms: C_18  and  C_19
REMARK                            x       y       z     vdW  Elec       q    Type
REMARK                         _______ _______ _______ _____ _____    ______ ____
ROOT
ATOM      1  C   UNL     1      28.476  23.220  25.246  0.00  0.00    +0.000 A 
ATOM      2  C   UNL     1      29.810  23.198  25.478  0.00  0.00    +0.000 A 
ATOM      3  C   UNL     1      30.536  22.363  26.519  0.00  0.00    +0.000 C 
ATOM      4  S   UNL     1      30.430  24.279  24.370  0.00  0.00    +0.000 S 
ATOM      5  C   UNL     1      28.919  24.783  23.575  0.00  0.00    +0.000 A 
ATOM      6  C   UNL     1      28.007  24.038  24.263  0.00  0.00    +0.000 A 
ENDROOT
BRANCH   5   7
ATOM      7  N   UNL     1      28.969  25.699  22.562  0.00  0.00    +0.000 NA
ATOM      8  C   UNL     1      28.435  26.340  21.544  0.00  0.00    +0.000 C 
ATOM      9  O   UNL     1      27.262  26.069  21.215  0.00  0.00    +0.000 OA
BRANCH   8  10
ATOM     10  C   UNL     1      29.182  27.382  20.765  0.00  0.00    +0.000 A 
ATOM     11  C   UNL     1      29.138  28.674  21.230  0.00  0.00    +0.000 A 
ATOM     12  C   UNL     1      29.835  29.628  20.495  0.00  0.00    +0.000 A 
ATOM     13  C   UNL     1      30.543  29.305  19.352  0.00  0.00    +0.000 A 
ATOM     14  C   UNL     1      30.571  28.000  18.908  0.00  0.00    +0.000 A 
ATOM     15  C   UNL     1      29.885  27.061  19.630  0.00  0.00    +0.000 A 
ATOM     16  F   UNL     1      29.858  25.742  19.264  0.00  0.00    +0.000 F 
ENDBRANCH   8  10
ENDBRANCH   5   7
BRANCH   6  17
ATOM     17  C   UNL     1      26.540  24.086  23.973  0.00  0.00    +0.000 C 
ATOM     18  N   UNL     1      25.982  23.166  22.996  0.00  0.00    +0.000 NA
ATOM     19  O   UNL     1      25.729  24.835  24.479  0.00  0.00    +0.000 OA
ENDBRANCH   6  17
BRANCH   1  21
ATOM     20  C   UNL     1      27.167  23.124  27.337  0.00  0.00    +0.000 C 
ATOM     21  C   UNL     1      27.579  22.315  26.117  0.00  0.00    +0.000 C 
ENDBRANCH   1  21
TORSDOF 4
ENDMDL
MODEL 10
REMARK VINA RESULT:      -5.5     16.824     19.589
REMARK  Name = 
REMARK  4 active torsions:
REMARK  status: ('A' for Active; 'I' for Inactive)
REMARK    1  A    between atoms: C_2  and  C_3
REMARK    2  A    between atoms: C_7  and  N_8
REMARK    3  A    between atoms: C_9  and  C_11
REMARK    4  A    between atoms: C_18  and  C_19
REMARK                            x       y       z     vdW  Elec       q    Type
REMARK                         _______ _______ _______ _____ _____    ______ ____
ROOT
ATOM      1  C   UNL     1      26.265  23.848  27.194  0.00  0.00    +0.000 A 
ATOM      2  C   UNL     1      26.681  23.136  26.120  0.00  0.00    +0.000 A 
ATOM      3  C   UNL     1      25.964  23.006  24.786  0.00  0.00    +0.000 C 
ATOM      4  S   UNL     1      28.124  22.465  26.614  0.00  0.00    +0.000 S 
ATOM      5  C   UNL     1      28.202  23.122  28.266  0.00  0.00    +0.000 A 
ATOM      6  C   UNL     1      27.047  23.846  28.309  0.00  0.00    +0.000 A 
ENDROOT
BRANCH   5   7
ATOM      7  N   UNL     1      29.269  22.810  29.061  0.00  0.00    +0.000 NA
ATOM      8  C   UNL     1      29.837  22.644  30.237  0.00  0.00    +0.000 C 
ATOM      9  O   UNL     1      29.156  22.844  31.264  0.00  0.00    +0.000 OA
BRANCH   8  10
ATOM     10  C   UNL     1      31.268  22.225  30.391  0.00  0.00    +0.000 A 
ATOM     11  C   UNL     1      32.149  22.602  29.405  0.00  0.00    +0.000 A 
ATOM     12  C   UNL     1      33.473  22.205  29.563  0.00  0.00    +0.000 A 
ATOM     13  C   UNL     1      33.896  21.467  30.654  0.00  0.00    +0.000 A 
ATOM     14  C   UNL     1      32.992  21.104  31.629  0.00  0.00    +0.000 A 
ATOM     15  C   UNL     1      31.689  21.493  31.474  0.00  0.00    +0.000 A 
ATOM     16  F   UNL     1      30.723  21.178  32.392  0.00  0.00    +0.000 F 
ENDBRANCH   8  10
ENDBRANCH   5   7
BRANCH   6  17
ATOM     17  C   UNL     1      26.625  24.625  29.514  0.00  0.00    +0.000 C 
ATOM     18  N   UNL     1      25.863  23.959  30.556  0.00  0.00    +0.000 NA
ATOM     19  O   UNL     1      26.854  25.798  29.731  0.00  0.00    +0.000 OA
ENDBRANCH   6  17
BRANCH   1  21
ATOM     20  C   UNL     1      25.246  26.001  26.543  0.00  0.00    +0.000 C 
ATOM     21  C   UNL     1      24.929  24.613  27.078  0.00  0.00    +0.000 C 
ENDBRANCH   1  21
TORSDOF 4
ENDMDL
