MODEL 1
REMARK VINA RESULT:      -6.7      0.000      0.000
REMARK  Name = 
REMARK  4 active torsions:
REMARK  status: ('A' for Active; 'I' for Inactive)
REMARK    1  A    between atoms: C_2  and  C_3
REMARK    2  A    between atoms: C_3  and  C_4
REMARK    3  A    between atoms: C_4  and  S_5
REMARK    4  A    between atoms: S_5  and  C_6
REMARK                            x       y       z     vdW  Elec       q    Type
REMARK                         _______ _______ _______ _____ _____    ______ ____
ROOT
ATOM      1  C   UNL     1      14.853  12.189  36.057  0.00  0.00    +0.000 A 
ATOM      2  N   UNL     1      16.090  11.730  36.287  0.00  0.00    +0.000 NA
ATOM      3  C   UNL     1      16.431  11.039  37.390  0.00  0.00    +0.000 A 
ATOM      4  C   UNL     1      15.466  10.781  38.349  0.00  0.00    +0.000 A 
ATOM      5  N   UNL     1      16.043  10.082  39.345  0.00  0.00    +0.000 NA
ATOM      6  C   UNL     1      17.348   9.863  39.095  0.00  0.00    +0.000 A 
ATOM      7  C   UNL     1      18.328   9.222  39.788  0.00  0.00    +0.000 A 
ATOM      8  C   UNL     1      19.605   9.155  39.279  0.00  0.00    +0.000 A 
ATOM      9  C   UNL     1      19.875   9.736  38.072  0.00  0.00    +0.000 A 
ATOM     10  C   UNL     1      18.868  10.392  37.365  0.00  0.00    +0.000 A 
ATOM     11  C   UNL     1      17.587  10.465  37.866  0.00  0.00    +0.000 A 
ATOM     12  C   UNL     1      14.190  11.258  38.109  0.00  0.00    +0.000 A 
ATOM     13  O   UNL     1      13.287  11.043  38.959  0.00  0.00    +0.000 OA
ATOM     14  N   UNL     1      13.902  11.948  36.978  0.00  0.00    +0.000 N 
ATOM     15  C   UNL     1      12.566  12.454  36.714  0.00  0.00    +0.000 C 
ENDROOT
BRANCH   1  16
ATOM     16  S   UNL     1      14.426  13.112  34.570  0.00  0.00    +0.000 S 
BRANCH  16  17
ATOM     17  C   UNL     1      15.040  12.182  33.133  0.00  0.00    +0.000 C 
BRANCH  17  18
ATOM     18  C   UNL     1      14.662  12.875  31.847  0.00  0.00    +0.000 C 
BRANCH  18  20
ATOM     19  C   UNL     1      16.255  13.911  30.248  0.00  0.00    +0.000 C 
ATOM     20  C   UNL     1      15.669  12.613  30.750  0.00  0.00    +0.000 C 
ENDBRANCH  18  20
ENDBRANCH  17  18
ENDBRANCH  16  17
ENDBRANCH   1  16
TORSDOF 4
ENDMDL
MODEL 2
REMARK VINA RESULT:      -6.6     29.202     31.679
REMARK  Name = 
REMARK  4 active torsions:
REMARK  status: ('A' for Active; 'I' for Inactive)
REMARK    1  A    between atoms: C_2  and  C_3
REMARK    2  A    between atoms: C_3  and  C_4
REMARK    3  A    between atoms: C_4  and  S_5
REMARK    4  A    between atoms: S_5  and  C_6
REMARK                            x       y       z     vdW  Elec       q    Type
REMARK                         _______ _______ _______ _____ _____    ______ ____
ROOT
ATOM      1  C   UNL     1      31.168  20.977   9.478  0.00  0.00    +0.000 A 
ATOM      2  N   UNL     1      30.045  21.586   9.876  0.00  0.00    +0.000 NA
ATOM      3  C   UNL     1      29.837  22.009  11.137  0.00  0.00    +0.000 A 
ATOM      4  C   UNL     1      30.828  21.811  12.085  0.00  0.00    +0.000 A 
ATOM      5  N   UNL     1      30.392  22.316  13.255  0.00  0.00    +0.000 NA
ATOM      6  C   UNL     1      29.157  22.840  13.131  0.00  0.00    +0.000 A 
ATOM      7  C   UNL     1      28.317  23.448  14.012  0.00  0.00    +0.000 A 
ATOM      8  C   UNL     1      27.082  23.892  13.598  0.00  0.00    +0.000 A 
ATOM      9  C   UNL     1      26.712  23.717  12.294  0.00  0.00    +0.000 A 
ATOM     10  C   UNL     1      27.576  23.093  11.394  0.00  0.00    +0.000 A 
ATOM     11  C   UNL     1      28.813  22.646  11.799  0.00  0.00    +0.000 A 
ATOM     12  C   UNL     1      31.987  21.181  11.670  0.00  0.00    +0.000 A 
ATOM     13  O   UNL     1      32.908  20.985  12.505  0.00  0.00    +0.000 OA
ATOM     14  N   UNL     1      32.142  20.776  10.386  0.00  0.00    +0.000 N 
ATOM     15  C   UNL     1      33.354  20.113   9.937  0.00  0.00    +0.000 C 
ENDROOT
BRANCH   1  16
ATOM     16  S   UNL     1      31.416  20.420   7.782  0.00  0.00    +0.000 S 
BRANCH  16  17
ATOM     17  C   UNL     1      29.877  19.632   7.218  0.00  0.00    +0.000 C 
BRANCH  17  18
ATOM     18  C   UNL     1      29.886  19.456   5.718  0.00  0.00    +0.000 C 
BRANCH  18  20
ATOM     19  C   UNL     1      29.109  17.313   4.734  0.00  0.00    +0.000 C 
ATOM     20  C   UNL     1      30.287  18.054   5.319  0.00  0.00    +0.000 C 
ENDBRANCH  18  20
ENDBRANCH  17  18
ENDBRANCH  16  17
ENDBRANCH   1  16
TORSDOF 4
ENDMDL
MODEL 3
REMARK VINA RESULT:      -6.3     22.262     24.754
REMARK  Name = 
REMARK  4 active torsions:
REMARK  status: ('A' for Active; 'I' for Inactive)
REMARK    1  A    between atoms: C_2  and  C_3
REMARK    2  A    between atoms: C_3  and  C_4
REMARK    3  A    between atoms: C_4  and  S_5
REMARK    4  A    between atoms: S_5  and  C_6
REMARK                            x       y       z     vdW  Elec       q    Type
REMARK                         _______ _______ _______ _____ _____    ______ ____
ROOT
ATOM      1  C   UNL     1      33.746  -3.600  33.688  0.00  0.00    +0.000 A 
ATOM      2  N   UNL     1      33.640  -3.969  32.405  0.00  0.00    +0.000 NA
ATOM      3  C   UNL     1      34.116  -5.134  31.927  0.00  0.00    +0.000 A 
ATOM      4  C   UNL     1      34.752  -6.008  32.793  0.00  0.00    +0.000 A 
ATOM      5  N   UNL     1      35.133  -7.091  32.088  0.00  0.00    +0.000 NA
ATOM      6  C   UNL     1      34.781  -6.978  30.792  0.00  0.00    +0.000 A 
ATOM      7  C   UNL     1      34.946  -7.793  29.715  0.00  0.00    +0.000 A 
ATOM      8  C   UNL     1      34.476  -7.410  28.479  0.00  0.00    +0.000 A 
ATOM      9  C   UNL     1      33.842  -6.206  28.349  0.00  0.00    +0.000 A 
ATOM     10  C   UNL     1      33.676  -5.374  29.456  0.00  0.00    +0.000 A 
ATOM     11  C   UNL     1      34.142  -5.748  30.696  0.00  0.00    +0.000 A 
ATOM     12  C   UNL     1      34.860  -5.624  34.117  0.00  0.00    +0.000 A 
ATOM     13  O   UNL     1      35.432  -6.393  34.932  0.00  0.00    +0.000 OA
ATOM     14  N   UNL     1      34.361  -4.437  34.544  0.00  0.00    +0.000 N 
ATOM     15  C   UNL     1      34.467  -4.021  35.932  0.00  0.00    +0.000 C 
ENDROOT
BRANCH   1  16
ATOM     16  S   UNL     1      33.100  -2.033  34.299  0.00  0.00    +0.000 S 
BRANCH  16  17
ATOM     17  C   UNL     1      34.071  -0.692  33.545  0.00  0.00    +0.000 C 
BRANCH  17  18
ATOM     18  C   UNL     1      33.274   0.590  33.513  0.00  0.00    +0.000 C 
BRANCH  18  20
ATOM     19  C   UNL     1      33.575   3.030  33.162  0.00  0.00    +0.000 C 
ATOM     20  C   UNL     1      33.950   1.651  32.675  0.00  0.00    +0.000 C 
ENDBRANCH  18  20
ENDBRANCH  17  18
ENDBRANCH  16  17
ENDBRANCH   1  16
TORSDOF 4
ENDMDL
MODEL 4
REMARK VINA RESULT:      -6.3     29.478     32.129
REMARK  Name = 
REMARK  4 active torsions:
REMARK  status: ('A' for Active; 'I' for Inactive)
REMARK    1  A    between atoms: C_2  and  C_3
REMARK    2  A    between atoms: C_3  and  C_4
REMARK    3  A    between atoms: C_4  and  S_5
REMARK    4  A    between atoms: S_5  and  C_6
REMARK                            x       y       z     vdW  Elec       q    Type
REMARK                         _______ _______ _______ _____ _____    ______ ____
ROOT
ATOM      1  C   UNL     1      32.576  21.403  10.850  0.00  0.00    +0.000 A 
ATOM      2  N   UNL     1      31.810  22.049  11.738  0.00  0.00    +0.000 NA
ATOM      3  C   UNL     1      30.471  22.139  11.636  0.00  0.00    +0.000 A 
ATOM      4  C   UNL     1      29.836  21.541  10.560  0.00  0.00    +0.000 A 
ATOM      5  N   UNL     1      28.513  21.766  10.678  0.00  0.00    +0.000 NA
ATOM      6  C   UNL     1      28.237  22.487  11.782  0.00  0.00    +0.000 A 
ATOM      7  C   UNL     1      27.077  22.956  12.314  0.00  0.00    +0.000 A 
ATOM      8  C   UNL     1      27.095  23.687  13.481  0.00  0.00    +0.000 A 
ATOM      9  C   UNL     1      28.290  23.933  14.096  0.00  0.00    +0.000 A 
ATOM     10  C   UNL     1      29.478  23.451  13.546  0.00  0.00    +0.000 A 
ATOM     11  C   UNL     1      29.470  22.719  12.380  0.00  0.00    +0.000 A 
ATOM     12  C   UNL     1      30.630  20.876   9.644  0.00  0.00    +0.000 A 
ATOM     13  O   UNL     1      30.087  20.320   8.654  0.00  0.00    +0.000 OA
ATOM     14  N   UNL     1      31.976  20.815   9.798  0.00  0.00    +0.000 N 
ATOM     15  C   UNL     1      32.822  20.120   8.844  0.00  0.00    +0.000 C 
ENDROOT
BRANCH   1  16
ATOM     16  S   UNL     1      34.367  21.300  11.014  0.00  0.00    +0.000 S 
BRANCH  16  17
ATOM     17  C   UNL     1      35.067  22.920  10.573  0.00  0.00    +0.000 C 
BRANCH  17  18
ATOM     18  C   UNL     1      34.752  23.265   9.137  0.00  0.00    +0.000 C 
BRANCH  18  20
ATOM     19  C   UNL     1      35.827  25.373   9.889  0.00  0.00    +0.000 C 
ATOM     20  C   UNL     1      34.913  24.743   8.865  0.00  0.00    +0.000 C 
ENDBRANCH  18  20
ENDBRANCH  17  18
ENDBRANCH  16  17
ENDBRANCH   1  16
TORSDOF 4
ENDMDL
MODEL 5
REMARK VINA RESULT:      -6.2     29.649     31.689
REMARK  Name = 
REMARK  4 active torsions:
REMARK  status: ('A' for Active; 'I' for Inactive)
REMARK    1  A    between atoms: C_2  and  C_3
REMARK    2  A    between atoms: C_3  and  C_4
REMARK    3  A    between atoms: C_4  and  S_5
REMARK    4  A    between atoms: S_5  and  C_6
REMARK                            x       y       z     vdW  Elec       q    Type
REMARK                         _______ _______ _______ _____ _____    ______ ____
ROOT
ATOM      1  C   UNL     1      32.986  21.312  10.995  0.00  0.00    +0.000 A 
ATOM      2  N   UNL     1      32.167  21.933  11.853  0.00  0.00    +0.000 NA
ATOM      3  C   UNL     1      30.841  22.053  11.658  0.00  0.00    +0.000 A 
ATOM      4  C   UNL     1      30.277  21.513  10.514  0.00  0.00    +0.000 A 
ATOM      5  N   UNL     1      28.953  21.757  10.545  0.00  0.00    +0.000 NA
ATOM      6  C   UNL     1      28.609  22.437  11.656  0.00  0.00    +0.000 A 
ATOM      7  C   UNL     1      27.420  22.905  12.123  0.00  0.00    +0.000 A 
ATOM      8  C   UNL     1      27.364  23.585  13.318  0.00  0.00    +0.000 A 
ATOM      9  C   UNL     1      28.515  23.783  14.028  0.00  0.00    +0.000 A 
ATOM     10  C   UNL     1      29.732  23.302  13.546  0.00  0.00    +0.000 A 
ATOM     11  C   UNL     1      29.797  22.620  12.352  0.00  0.00    +0.000 A 
ATOM     12  C   UNL     1      31.126  20.872   9.630  0.00  0.00    +0.000 A 
ATOM     13  O   UNL     1      30.649  20.368   8.580  0.00  0.00    +0.000 OA
ATOM     14  N   UNL     1      32.456  20.779   9.879  0.00  0.00    +0.000 N 
ATOM     15  C   UNL     1      33.358  20.109   8.959  0.00  0.00    +0.000 C 
ENDROOT
BRANCH   1  16
ATOM     16  S   UNL     1      34.759  21.168  11.284  0.00  0.00    +0.000 S 
BRANCH  16  17
ATOM     17  C   UNL     1      35.035  19.760  12.403  0.00  0.00    +0.000 C 
BRANCH  17  18
ATOM     18  C   UNL     1      36.478  19.703  12.842  0.00  0.00    +0.000 C 
BRANCH  18  20
ATOM     19  C   UNL     1      37.595  18.699  14.820  0.00  0.00    +0.000 C 
ATOM     20  C   UNL     1      36.609  19.741  14.347  0.00  0.00    +0.000 C 
ENDBRANCH  18  20
ENDBRANCH  17  18
ENDBRANCH  16  17
ENDBRANCH   1  16
TORSDOF 4
ENDMDL
MODEL 6
REMARK VINA RESULT:      -6.1     20.926     23.161
REMARK  Name = 
REMARK  4 active torsions:
REMARK  status: ('A' for Active; 'I' for Inactive)
REMARK    1  A    between atoms: C_2  and  C_3
REMARK    2  A    between atoms: C_3  and  C_4
REMARK    3  A    between atoms: C_4  and  S_5
REMARK    4  A    between atoms: S_5  and  C_6
REMARK                            x       y       z     vdW  Elec       q    Type
REMARK                         _______ _______ _______ _____ _____    ______ ____
ROOT
ATOM      1  C   UNL     1      33.542  -4.361  33.299  0.00  0.00    +0.000 A 
ATOM      2  N   UNL     1      33.728  -3.097  32.900  0.00  0.00    +0.000 NA
ATOM      3  C   UNL     1      33.562  -2.032  33.706  0.00  0.00    +0.000 A 
ATOM      4  C   UNL     1      33.176  -2.236  35.020  0.00  0.00    +0.000 A 
ATOM      5  N   UNL     1      33.078  -1.034  35.619  0.00  0.00    +0.000 NA
ATOM      6  C   UNL     1      33.380  -0.037  34.763  0.00  0.00    +0.000 A 
ATOM      7  C   UNL     1      33.420   1.316  34.897  0.00  0.00    +0.000 A 
ATOM      8  C   UNL     1      33.768   2.108  33.826  0.00  0.00    +0.000 A 
ATOM      9  C   UNL     1      34.073   1.519  32.632  0.00  0.00    +0.000 A 
ATOM     10  C   UNL     1      34.030   0.132  32.498  0.00  0.00    +0.000 A 
ATOM     11  C   UNL     1      33.684  -0.669  33.564  0.00  0.00    +0.000 A 
ATOM     12  C   UNL     1      32.983  -3.543  35.429  0.00  0.00    +0.000 A 
ATOM     13  O   UNL     1      32.632  -3.767  36.617  0.00  0.00    +0.000 OA
ATOM     14  N   UNL     1      33.167  -4.579  34.573  0.00  0.00    +0.000 N 
ATOM     15  C   UNL     1      32.968  -5.956  34.990  0.00  0.00    +0.000 C 
ENDROOT
BRANCH   1  16
ATOM     16  S   UNL     1      33.772  -5.767  32.196  0.00  0.00    +0.000 S 
BRANCH  16  17
ATOM     17  C   UNL     1      32.949  -5.385  30.619  0.00  0.00    +0.000 C 
BRANCH  17  18
ATOM     18  C   UNL     1      33.965  -5.215  29.515  0.00  0.00    +0.000 C 
BRANCH  18  20
ATOM     19  C   UNL     1      34.523  -7.286  28.263  0.00  0.00    +0.000 C 
ATOM     20  C   UNL     1      33.634  -6.066  28.310  0.00  0.00    +0.000 C 
ENDBRANCH  18  20
ENDBRANCH  17  18
ENDBRANCH  16  17
ENDBRANCH   1  16
TORSDOF 4
ENDMDL
MODEL 7
REMARK VINA RESULT:      -6.0      2.009      2.866
REMARK  Name = 
REMARK  4 active torsions:
REMARK  status: ('A' for Active; 'I' for Inactive)
REMARK    1  A    between atoms: C_2  and  C_3
REMARK    2  A    between atoms: C_3  and  C_4
REMARK    3  A    between atoms: C_4  and  S_5
REMARK    4  A    between atoms: S_5  and  C_6
REMARK                            x       y       z     vdW  Elec       q    Type
REMARK                         _______ _______ _______ _____ _____    ______ ____
ROOT
ATOM      1  C   UNL     1      16.850  10.889  36.549  0.00  0.00    +0.000 A 
ATOM      2  N   UNL     1      18.161  10.664  36.394  0.00  0.00    +0.000 NA
ATOM      3  C   UNL     1      18.958  10.212  37.379  0.00  0.00    +0.000 A 
ATOM      4  C   UNL     1      18.410   9.963  38.627  0.00  0.00    +0.000 A 
ATOM      5  N   UNL     1      19.394   9.522  39.435  0.00  0.00    +0.000 NA
ATOM      6  C   UNL     1      20.572   9.467  38.783  0.00  0.00    +0.000 A 
ATOM      7  C   UNL     1      21.824   9.098  39.166  0.00  0.00    +0.000 A 
ATOM      8  C   UNL     1      22.866   9.147  38.267  0.00  0.00    +0.000 A 
ATOM      9  C   UNL     1      22.627   9.568  36.990  0.00  0.00    +0.000 A 
ATOM     10  C   UNL     1      21.342   9.947  36.602  0.00  0.00    +0.000 A 
ATOM     11  C   UNL     1      20.293   9.901  37.493  0.00  0.00    +0.000 A 
ATOM     12  C   UNL     1      17.057  10.197  38.784  0.00  0.00    +0.000 A 
ATOM     13  O   UNL     1      16.524   9.981  39.904  0.00  0.00    +0.000 OA
ATOM     14  N   UNL     1      16.301  10.652  37.754  0.00  0.00    +0.000 N 
ATOM     15  C   UNL     1      14.878  10.902  37.906  0.00  0.00    +0.000 C 
ENDROOT
BRANCH   1  16
ATOM     16  S   UNL     1      15.809  11.496  35.210  0.00  0.00    +0.000 S 
BRANCH  16  17
ATOM     17  C   UNL     1      16.790  11.470  33.678  0.00  0.00    +0.000 C 
BRANCH  17  18
ATOM     18  C   UNL     1      16.133  10.592  32.639  0.00  0.00    +0.000 C 
BRANCH  18  20
ATOM     19  C   UNL     1      14.510  11.889  31.278  0.00  0.00    +0.000 C 
ATOM     20  C   UNL     1      15.912  11.330  31.339  0.00  0.00    +0.000 C 
ENDBRANCH  18  20
ENDBRANCH  17  18
ENDBRANCH  16  17
ENDBRANCH   1  16
TORSDOF 4
ENDMDL
MODEL 8
REMARK VINA RESULT:      -5.7     22.567     23.814
REMARK  Name = 
REMARK  4 active torsions:
REMARK  status: ('A' for Active; 'I' for Inactive)
REMARK    1  A    between atoms: C_2  and  C_3
REMARK    2  A    between atoms: C_3  and  C_4
REMARK    3  A    between atoms: C_4  and  S_5
REMARK    4  A    between atoms: S_5  and  C_6
REMARK                            x       y       z     vdW  Elec       q    Type
REMARK                         _______ _______ _______ _____ _____    ______ ____
ROOT
ATOM      1  C   UNL     1      23.210  -8.863  24.866  0.00  0.00    +0.000 A 
ATOM      2  N   UNL     1      22.058  -8.928  25.546  0.00  0.00    +0.000 NA
ATOM      3  C   UNL     1      21.198  -7.898  25.649  0.00  0.00    +0.000 A 
ATOM      4  C   UNL     1      21.506  -6.699  25.027  0.00  0.00    +0.000 A 
ATOM      5  N   UNL     1      20.503  -5.833  25.270  0.00  0.00    +0.000 NA
ATOM      6  C   UNL     1      19.542  -6.399  26.026  0.00  0.00    +0.000 A 
ATOM      7  C   UNL     1      18.364  -5.935  26.524  0.00  0.00    +0.000 A 
ATOM      8  C   UNL     1      17.564  -6.755  27.287  0.00  0.00    +0.000 A 
ATOM      9  C   UNL     1      17.967  -8.036  27.537  0.00  0.00    +0.000 A 
ATOM     10  C   UNL     1      19.176  -8.508  27.026  0.00  0.00    +0.000 A 
ATOM     11  C   UNL     1      19.983  -7.695  26.261  0.00  0.00    +0.000 A 
ATOM     12  C   UNL     1      22.696  -6.635  24.327  0.00  0.00    +0.000 A 
ATOM     13  O   UNL     1      23.009  -5.562  23.749  0.00  0.00    +0.000 OA
ATOM     14  N   UNL     1      23.525  -7.706  24.255  0.00  0.00    +0.000 N 
ATOM     15  C   UNL     1      24.779  -7.652  23.523  0.00  0.00    +0.000 C 
ENDROOT
BRANCH   1  16
ATOM     16  S   UNL     1      24.341 -10.260  24.747  0.00  0.00    +0.000 S 
BRANCH  16  17
ATOM     17  C   UNL     1      24.469 -11.023  26.393  0.00  0.00    +0.000 C 
BRANCH  17  18
ATOM     18  C   UNL     1      23.353 -12.017  26.609  0.00  0.00    +0.000 C 
BRANCH  18  20
ATOM     19  C   UNL     1      21.927 -10.863  28.283  0.00  0.00    +0.000 C 
ATOM     20  C   UNL     1      22.870 -12.017  28.041  0.00  0.00    +0.000 C 
ENDBRANCH  18  20
ENDBRANCH  17  18
ENDBRANCH  16  17
ENDBRANCH   1  16
TORSDOF 4
ENDMDL
MODEL 9
REMARK VINA RESULT:      -5.7     22.072     23.205
REMARK  Name = 
REMARK  4 active torsions:
REMARK  status: ('A' for Active; 'I' for Inactive)
REMARK    1  A    between atoms: C_2  and  C_3
REMARK    2  A    between atoms: C_3  and  C_4
REMARK    3  A    between atoms: C_4  and  S_5
REMARK    4  A    between atoms: S_5  and  C_6
REMARK                            x       y       z     vdW  Elec       q    Type
REMARK                         _______ _______ _______ _____ _____    ______ ____
ROOT
ATOM      1  C   UNL     1      19.470  -8.336  26.868  0.00  0.00    +0.000 A 
ATOM      2  N   UNL     1      20.622  -8.783  26.352  0.00  0.00    +0.000 NA
ATOM      3  C   UNL     1      21.437  -8.029  25.593  0.00  0.00    +0.000 A 
ATOM      4  C   UNL     1      21.081  -6.718  25.319  0.00  0.00    +0.000 A 
ATOM      5  N   UNL     1      22.045  -6.174  24.552  0.00  0.00    +0.000 NA
ATOM      6  C   UNL     1      23.027  -7.062  24.301  0.00  0.00    +0.000 A 
ATOM      7  C   UNL     1      24.184  -6.985  23.588  0.00  0.00    +0.000 A 
ATOM      8  C   UNL     1      25.016  -8.078  23.497  0.00  0.00    +0.000 A 
ATOM      9  C   UNL     1      24.667  -9.237  24.131  0.00  0.00    +0.000 A 
ATOM     10  C   UNL     1      23.480  -9.312  24.860  0.00  0.00    +0.000 A 
ATOM     11  C   UNL     1      22.642  -8.224  24.956  0.00  0.00    +0.000 A 
ATOM     12  C   UNL     1      19.890  -6.260  25.853  0.00  0.00    +0.000 A 
ATOM     13  O   UNL     1      19.534  -5.074  25.625  0.00  0.00    +0.000 OA
ATOM     14  N   UNL     1      19.108  -7.065  26.613  0.00  0.00    +0.000 N 
ATOM     15  C   UNL     1      17.855  -6.597  27.179  0.00  0.00    +0.000 C 
ENDROOT
BRANCH   1  16
ATOM     16  S   UNL     1      18.399  -9.372  27.881  0.00  0.00    +0.000 S 
BRANCH  16  17
ATOM     17  C   UNL     1      19.265 -10.940  28.195  0.00  0.00    +0.000 C 
BRANCH  17  18
ATOM     18  C   UNL     1      20.112 -10.841  29.441  0.00  0.00    +0.000 C 
BRANCH  18  20
ATOM     19  C   UNL     1      19.094 -10.216  31.618  0.00  0.00    +0.000 C 
ATOM     20  C   UNL     1      19.678  -9.696  30.327  0.00  0.00    +0.000 C 
ENDBRANCH  18  20
ENDBRANCH  17  18
ENDBRANCH  16  17
ENDBRANCH   1  16
TORSDOF 4
ENDMDL
MODEL 10
REMARK VINA RESULT:      -5.6      3.557      5.254
REMARK  Name = 
REMARK  4 active torsions:
REMARK  status: ('A' for Active; 'I' for Inactive)
REMARK    1  A    between atoms: C_2  and  C_3
REMARK    2  A    between atoms: C_3  and  C_4
REMARK    3  A    between atoms: C_4  and  S_5
REMARK    4  A    between atoms: S_5  and  C_6
REMARK                            x       y       z     vdW  Elec       q    Type
REMARK                         _______ _______ _______ _____ _____    ______ ____
ROOT
ATOM      1  C   UNL     1      18.453  10.093  38.348  0.00  0.00    +0.000 A 
ATOM      2  N   UNL     1      19.551  10.186  37.587  0.00  0.00    +0.000 NA
ATOM      3  C   UNL     1      20.774   9.811  38.002  0.00  0.00    +0.000 A 
ATOM      4  C   UNL     1      20.925   9.301  39.281  0.00  0.00    +0.000 A 
ATOM      5  N   UNL     1      22.226   8.999  39.460  0.00  0.00    +0.000 NA
ATOM      6  C   UNL     1      22.949   9.286  38.360  0.00  0.00    +0.000 A 
ATOM      7  C   UNL     1      24.271   9.164  38.065  0.00  0.00    +0.000 A 
ATOM      8  C   UNL     1      24.744   9.550  36.831  0.00  0.00    +0.000 A 
ATOM      9  C   UNL     1      23.871  10.054  35.909  0.00  0.00    +0.000 A 
ATOM     10  C   UNL     1      22.516  10.179  36.216  0.00  0.00    +0.000 A 
ATOM     11  C   UNL     1      22.034   9.795  37.448  0.00  0.00    +0.000 A 
ATOM     12  C   UNL     1      19.789   9.206  40.064  0.00  0.00    +0.000 A 
ATOM     13  O   UNL     1      19.888   8.747  41.232  0.00  0.00    +0.000 OA
ATOM     14  N   UNL     1      18.580   9.599  39.594  0.00  0.00    +0.000 N 
ATOM     15  C   UNL     1      17.379   9.505  40.406  0.00  0.00    +0.000 C 
ENDROOT
BRANCH   1  16
ATOM     16  S   UNL     1      16.827  10.605  37.765  0.00  0.00    +0.000 S 
BRANCH  16  17
ATOM     17  C   UNL     1      16.774  10.365  35.962  0.00  0.00    +0.000 C 
BRANCH  17  18
ATOM     18  C   UNL     1      16.560  11.682  35.255  0.00  0.00    +0.000 C 
BRANCH  18  20
ATOM     19  C   UNL     1      17.284  10.249  33.361  0.00  0.00    +0.000 C 
ATOM     20  C   UNL     1      16.571  11.521  33.752  0.00  0.00    +0.000 C 
ENDBRANCH  18  20
ENDBRANCH  17  18
ENDBRANCH  16  17
ENDBRANCH   1  16
TORSDOF 4
ENDMDL
