MODEL 1
REMARK VINA RESULT:      -7.4      0.000      0.000
REMARK  Name = 
REMARK  1 active torsions:
REMARK  status: ('A' for Active; 'I' for Inactive)
REMARK    1  A    between atoms: C_2  and  C_4
REMARK                            x       y       z     vdW  Elec       q    Type
REMARK                         _______ _______ _______ _____ _____    ______ ____
ROOT
ATOM      1  C   UNL     1      19.754  11.092  38.128  0.00  0.00    +0.000 A 
ATOM      2  C   UNL     1      20.153  10.024  37.357  0.00  0.00    +0.000 A 
ATOM      3  C   UNL     1      19.419   9.559  36.288  0.00  0.00    +0.000 A 
ATOM      4  C   UNL     1      18.230  10.186  35.971  0.00  0.00    +0.000 A 
ATOM      5  C   UNL     1      17.792  11.260  36.716  0.00  0.00    +0.000 A 
ATOM      6  C   UNL     1      18.576  11.698  37.798  0.00  0.00    +0.000 A 
ATOM      7  C   UNL     1      16.591  12.062  36.564  0.00  0.00    +0.000 C 
ATOM      8  O   UNL     1      16.615  13.204  37.074  0.00  0.00    +0.000 OA
ATOM      9  C   UNL     1      15.327  11.724  35.889  0.00  0.00    +0.000 C 
ATOM     10  C   UNL     1      15.498  11.583  34.419  0.00  0.00    +0.000 A 
ATOM     11  C   UNL     1      14.745  12.444  33.662  0.00  0.00    +0.000 A 
ATOM     12  C   UNL     1      14.853  12.373  32.292  0.00  0.00    +0.000 A 
ATOM     13  N   UNL     1      14.090  13.249  31.439  0.00  0.00    +0.000 NA
ATOM     14  C   UNL     1      15.685  11.474  31.652  0.00  0.00    +0.000 A 
ATOM     15  C   UNL     1      16.432  10.616  32.453  0.00  0.00    +0.000 A 
ATOM     16  C   UNL     1      16.338  10.674  33.824  0.00  0.00    +0.000 A 
ATOM     17  S   UNL     1      17.409   9.457  34.563  0.00  0.00    +0.000 S 
ENDROOT
BRANCH   1  19
ATOM     18  C   UNL     1      21.999  10.956  39.170  0.00  0.00    +0.000 C 
ATOM     19  C   UNL     1      20.619  11.514  39.260  0.00  0.00    +0.000 C 
ATOM     20  C   UNL     1      20.692  13.041  39.270  0.00  0.00    +0.000 C 
ENDBRANCH   1  19
TORSDOF 1
ENDMDL
MODEL 2
REMARK VINA RESULT:      -6.9     17.550     18.382
REMARK  Name = 
REMARK  1 active torsions:
REMARK  status: ('A' for Active; 'I' for Inactive)
REMARK    1  A    between atoms: C_2  and  C_4
REMARK                            x       y       z     vdW  Elec       q    Type
REMARK                         _______ _______ _______ _____ _____    ______ ____
ROOT
ATOM      1  C   UNL     1      25.642  24.863  29.952  0.00  0.00    +0.000 A 
ATOM      2  C   UNL     1      26.715  24.141  30.424  0.00  0.00    +0.000 A 
ATOM      3  C   UNL     1      27.509  23.364  29.610  0.00  0.00    +0.000 A 
ATOM      4  C   UNL     1      27.223  23.301  28.261  0.00  0.00    +0.000 A 
ATOM      5  C   UNL     1      26.158  24.008  27.744  0.00  0.00    +0.000 A 
ATOM      6  C   UNL     1      25.375  24.787  28.615  0.00  0.00    +0.000 A 
ATOM      7  C   UNL     1      25.680  24.090  26.375  0.00  0.00    +0.000 C 
ATOM      8  O   UNL     1      24.984  25.089  26.087  0.00  0.00    +0.000 OA
ATOM      9  C   UNL     1      25.895  23.156  25.258  0.00  0.00    +0.000 C 
ATOM     10  C   UNL     1      27.318  23.115  24.828  0.00  0.00    +0.000 A 
ATOM     11  C   UNL     1      27.540  23.473  23.523  0.00  0.00    +0.000 A 
ATOM     12  C   UNL     1      28.834  23.462  23.055  0.00  0.00    +0.000 A 
ATOM     13  N   UNL     1      29.136  23.827  21.694  0.00  0.00    +0.000 NA
ATOM     14  C   UNL     1      29.912  23.105  23.843  0.00  0.00    +0.000 A 
ATOM     15  C   UNL     1      29.648  22.748  25.161  0.00  0.00    +0.000 A 
ATOM     16  C   UNL     1      28.361  22.755  25.646  0.00  0.00    +0.000 A 
ATOM     17  S   UNL     1      28.347  22.251  27.355  0.00  0.00    +0.000 S 
ENDROOT
BRANCH   1  19
ATOM     18  C   UNL     1      25.703  26.455  31.850  0.00  0.00    +0.000 C 
ATOM     19  C   UNL     1      24.848  25.669  30.915  0.00  0.00    +0.000 C 
ATOM     20  C   UNL     1      23.954  26.624  30.124  0.00  0.00    +0.000 C 
ENDBRANCH   1  19
TORSDOF 1
ENDMDL
MODEL 3
REMARK VINA RESULT:      -6.6     17.512     18.507
REMARK  Name = 
REMARK  1 active torsions:
REMARK  status: ('A' for Active; 'I' for Inactive)
REMARK    1  A    between atoms: C_2  and  C_4
REMARK                            x       y       z     vdW  Elec       q    Type
REMARK                         _______ _______ _______ _____ _____    ______ ____
ROOT
ATOM      1  C   UNL     1      24.478  25.895  29.171  0.00  0.00    +0.000 A 
ATOM      2  C   UNL     1      25.107  25.367  30.275  0.00  0.00    +0.000 A 
ATOM      3  C   UNL     1      26.091  24.408  30.187  0.00  0.00    +0.000 A 
ATOM      4  C   UNL     1      26.468  23.949  28.940  0.00  0.00    +0.000 A 
ATOM      5  C   UNL     1      25.864  24.450  27.806  0.00  0.00    +0.000 A 
ATOM      6  C   UNL     1      24.864  25.428  27.947  0.00  0.00    +0.000 A 
ATOM      7  C   UNL     1      26.099  24.120  26.412  0.00  0.00    +0.000 C 
ATOM      8  O   UNL     1      25.747  24.976  25.569  0.00  0.00    +0.000 OA
ATOM      9  C   UNL     1      26.701  22.908  25.831  0.00  0.00    +0.000 C 
ATOM     10  C   UNL     1      28.142  22.780  26.173  0.00  0.00    +0.000 A 
ATOM     11  C   UNL     1      28.993  22.750  25.099  0.00  0.00    +0.000 A 
ATOM     12  C   UNL     1      30.344  22.635  25.338  0.00  0.00    +0.000 A 
ATOM     13  N   UNL     1      31.291  22.598  24.253  0.00  0.00    +0.000 NA
ATOM     14  C   UNL     1      30.872  22.548  26.612  0.00  0.00    +0.000 A 
ATOM     15  C   UNL     1      29.979  22.581  27.677  0.00  0.00    +0.000 A 
ATOM     16  C   UNL     1      28.626  22.697  27.456  0.00  0.00    +0.000 A 
ATOM     17  S   UNL     1      27.751  22.710  29.008  0.00  0.00    +0.000 S 
ENDROOT
BRANCH   1  19
ATOM     18  C   UNL     1      22.277  26.769  28.441  0.00  0.00    +0.000 C 
ATOM     19  C   UNL     1      23.428  26.925  29.376  0.00  0.00    +0.000 C 
ATOM     20  C   UNL     1      22.925  26.824  30.816  0.00  0.00    +0.000 C 
ENDBRANCH   1  19
TORSDOF 1
ENDMDL
MODEL 4
REMARK VINA RESULT:      -6.4     18.429     19.191
REMARK  Name = 
REMARK  1 active torsions:
REMARK  status: ('A' for Active; 'I' for Inactive)
REMARK    1  A    between atoms: C_2  and  C_4
REMARK                            x       y       z     vdW  Elec       q    Type
REMARK                         _______ _______ _______ _____ _____    ______ ____
ROOT
ATOM      1  C   UNL     1      27.939  22.707  28.698  0.00  0.00    +0.000 A 
ATOM      2  C   UNL     1      29.241  22.392  28.385  0.00  0.00    +0.000 A 
ATOM      3  C   UNL     1      29.731  22.434  27.098  0.00  0.00    +0.000 A 
ATOM      4  C   UNL     1      28.885  22.807  26.073  0.00  0.00    +0.000 A 
ATOM      5  C   UNL     1      27.572  23.131  26.341  0.00  0.00    +0.000 A 
ATOM      6  C   UNL     1      27.118  23.073  27.670  0.00  0.00    +0.000 A 
ATOM      7  C   UNL     1      26.519  23.547  25.431  0.00  0.00    +0.000 C 
ATOM      8  O   UNL     1      25.561  24.173  25.937  0.00  0.00    +0.000 OA
ATOM      9  C   UNL     1      26.408  23.337  23.978  0.00  0.00    +0.000 C 
ATOM     10  C   UNL     1      27.447  24.087  23.224  0.00  0.00    +0.000 A 
ATOM     11  C   UNL     1      26.963  25.000  22.322  0.00  0.00    +0.000 A 
ATOM     12  C   UNL     1      27.866  25.735  21.588  0.00  0.00    +0.000 A 
ATOM     13  N   UNL     1      27.422  26.710  20.624  0.00  0.00    +0.000 NA
ATOM     14  C   UNL     1      29.233  25.589  21.722  0.00  0.00    +0.000 A 
ATOM     15  C   UNL     1      29.687  24.653  22.646  0.00  0.00    +0.000 A 
ATOM     16  C   UNL     1      28.799  23.911  23.389  0.00  0.00    +0.000 A 
ATOM     17  S   UNL     1      29.680  22.806  24.474  0.00  0.00    +0.000 S 
ENDROOT
BRANCH   1  19
ATOM     18  C   UNL     1      26.526  21.537  30.364  0.00  0.00    +0.000 C 
ATOM     19  C   UNL     1      27.510  22.629  30.118  0.00  0.00    +0.000 C 
ATOM     20  C   UNL     1      28.748  22.396  30.985  0.00  0.00    +0.000 C 
ENDBRANCH   1  19
TORSDOF 1
ENDMDL
MODEL 5
REMARK VINA RESULT:      -6.3     22.291     23.708
REMARK  Name = 
REMARK  1 active torsions:
REMARK  status: ('A' for Active; 'I' for Inactive)
REMARK    1  A    between atoms: C_2  and  C_4
REMARK                            x       y       z     vdW  Elec       q    Type
REMARK                         _______ _______ _______ _____ _____    ______ ____
ROOT
ATOM      1  C   UNL     1      30.044  28.043  19.727  0.00  0.00    +0.000 A 
ATOM      2  C   UNL     1      29.372  29.030  20.411  0.00  0.00    +0.000 A 
ATOM      3  C   UNL     1      28.459  28.759  21.407  0.00  0.00    +0.000 A 
ATOM      4  C   UNL     1      28.202  27.444  21.738  0.00  0.00    +0.000 A 
ATOM      5  C   UNL     1      28.853  26.423  21.078  0.00  0.00    +0.000 A 
ATOM      6  C   UNL     1      29.775  26.749  20.069  0.00  0.00    +0.000 A 
ATOM      7  C   UNL     1      28.741  24.986  21.260  0.00  0.00    +0.000 C 
ATOM      8  O   UNL     1      29.704  24.297  20.857  0.00  0.00    +0.000 OA
ATOM      9  C   UNL     1      27.644  24.207  21.857  0.00  0.00    +0.000 C 
ATOM     10  C   UNL     1      27.499  24.469  23.314  0.00  0.00    +0.000 A 
ATOM     11  C   UNL     1      27.650  23.369  24.118  0.00  0.00    +0.000 A 
ATOM     12  C   UNL     1      27.533  23.535  25.480  0.00  0.00    +0.000 A 
ATOM     13  N   UNL     1      27.680  22.420  26.380  0.00  0.00    +0.000 NA
ATOM     14  C   UNL     1      27.269  24.759  26.063  0.00  0.00    +0.000 A 
ATOM     15  C   UNL     1      27.121  25.852  25.216  0.00  0.00    +0.000 A 
ATOM     16  C   UNL     1      27.237  25.704  23.853  0.00  0.00    +0.000 A 
ATOM     17  S   UNL     1      26.997  27.274  23.044  0.00  0.00    +0.000 S 
ENDROOT
BRANCH   1  19
ATOM     18  C   UNL     1      31.052  27.474  17.535  0.00  0.00    +0.000 C 
ATOM     19  C   UNL     1      31.007  28.442  18.669  0.00  0.00    +0.000 C 
ATOM     20  C   UNL     1      30.604  29.819  18.141  0.00  0.00    +0.000 C 
ENDBRANCH   1  19
TORSDOF 1
ENDMDL
MODEL 6
REMARK VINA RESULT:      -6.3     19.389     20.326
REMARK  Name = 
REMARK  1 active torsions:
REMARK  status: ('A' for Active; 'I' for Inactive)
REMARK    1  A    between atoms: C_2  and  C_4
REMARK                            x       y       z     vdW  Elec       q    Type
REMARK                         _______ _______ _______ _____ _____    ______ ____
ROOT
ATOM      1  C   UNL     1      33.332  24.446  25.638  0.00  0.00    +0.000 A 
ATOM      2  C   UNL     1      32.553  23.966  24.611  0.00  0.00    +0.000 A 
ATOM      3  C   UNL     1      31.338  23.351  24.819  0.00  0.00    +0.000 A 
ATOM      4  C   UNL     1      30.876  23.206  26.112  0.00  0.00    +0.000 A 
ATOM      5  C   UNL     1      31.624  23.673  27.172  0.00  0.00    +0.000 A 
ATOM      6  C   UNL     1      32.858  24.293  26.909  0.00  0.00    +0.000 A 
ATOM      7  C   UNL     1      31.337  23.630  28.595  0.00  0.00    +0.000 C 
ATOM      8  O   UNL     1      31.938  24.462  29.310  0.00  0.00    +0.000 OA
ATOM      9  C   UNL     1      30.427  22.739  29.334  0.00  0.00    +0.000 C 
ATOM     10  C   UNL     1      29.002  22.979  28.987  0.00  0.00    +0.000 A 
ATOM     11  C   UNL     1      28.204  23.350  30.038  0.00  0.00    +0.000 A 
ATOM     12  C   UNL     1      26.871  23.593  29.792  0.00  0.00    +0.000 A 
ATOM     13  N   UNL     1      25.979  23.986  30.853  0.00  0.00    +0.000 NA
ATOM     14  C   UNL     1      26.310  23.477  28.535  0.00  0.00    +0.000 A 
ATOM     15  C   UNL     1      27.150  23.098  27.493  0.00  0.00    +0.000 A 
ATOM     16  C   UNL     1      28.484  22.853  27.721  0.00  0.00    +0.000 A 
ATOM     17  S   UNL     1      29.291  22.389  26.201  0.00  0.00    +0.000 S 
ENDROOT
BRANCH   1  19
ATOM     18  C   UNL     1      35.298  24.468  24.130  0.00  0.00    +0.000 C 
ATOM     19  C   UNL     1      34.628  25.092  25.306  0.00  0.00    +0.000 C 
ATOM     20  C   UNL     1      34.370  26.571  25.012  0.00  0.00    +0.000 C 
ENDBRANCH   1  19
TORSDOF 1
ENDMDL
MODEL 7
REMARK VINA RESULT:      -6.3     19.510     21.024
REMARK  Name = 
REMARK  1 active torsions:
REMARK  status: ('A' for Active; 'I' for Inactive)
REMARK    1  A    between atoms: C_2  and  C_4
REMARK                            x       y       z     vdW  Elec       q    Type
REMARK                         _______ _______ _______ _____ _____    ______ ____
ROOT
ATOM      1  C   UNL     1      27.959  25.080  22.480  0.00  0.00    +0.000 A 
ATOM      2  C   UNL     1      26.788  25.003  23.199  0.00  0.00    +0.000 A 
ATOM      3  C   UNL     1      26.685  24.318  24.389  0.00  0.00    +0.000 A 
ATOM      4  C   UNL     1      27.802  23.678  24.889  0.00  0.00    +0.000 A 
ATOM      5  C   UNL     1      28.997  23.729  24.203  0.00  0.00    +0.000 A 
ATOM      6  C   UNL     1      29.051  24.440  22.991  0.00  0.00    +0.000 A 
ATOM      7  C   UNL     1      30.281  23.139  24.537  0.00  0.00    +0.000 C 
ATOM      8  O   UNL     1      31.287  23.655  24.002  0.00  0.00    +0.000 OA
ATOM      9  C   UNL     1      30.581  22.006  25.428  0.00  0.00    +0.000 C 
ATOM     10  C   UNL     1      30.278  22.317  26.850  0.00  0.00    +0.000 A 
ATOM     11  C   UNL     1      31.349  22.235  27.702  0.00  0.00    +0.000 A 
ATOM     12  C   UNL     1      31.146  22.512  29.035  0.00  0.00    +0.000 A 
ATOM     13  N   UNL     1      32.230  22.445  29.983  0.00  0.00    +0.000 NA
ATOM     14  C   UNL     1      29.911  22.866  29.545  0.00  0.00    +0.000 A 
ATOM     15  C   UNL     1      28.848  22.937  28.651  0.00  0.00    +0.000 A 
ATOM     16  C   UNL     1      29.034  22.665  27.316  0.00  0.00    +0.000 A 
ATOM     17  S   UNL     1      27.494  22.839  26.436  0.00  0.00    +0.000 S 
ENDROOT
BRANCH   1  19
ATOM     18  C   UNL     1      27.550  27.265  21.385  0.00  0.00    +0.000 C 
ATOM     19  C   UNL     1      27.962  25.844  21.206  0.00  0.00    +0.000 C 
ATOM     20  C   UNL     1      29.372  25.798  20.617  0.00  0.00    +0.000 C 
ENDBRANCH   1  19
TORSDOF 1
ENDMDL
MODEL 8
REMARK VINA RESULT:      -6.1     17.483     18.897
REMARK  Name = 
REMARK  1 active torsions:
REMARK  status: ('A' for Active; 'I' for Inactive)
REMARK    1  A    between atoms: C_2  and  C_4
REMARK                            x       y       z     vdW  Elec       q    Type
REMARK                         _______ _______ _______ _____ _____    ______ ____
ROOT
ATOM      1  C   UNL     1      33.488   1.351  34.972  0.00  0.00    +0.000 A 
ATOM      2  C   UNL     1      33.813   1.059  36.277  0.00  0.00    +0.000 A 
ATOM      3  C   UNL     1      34.356   1.987  37.138  0.00  0.00    +0.000 A 
ATOM      4  C   UNL     1      34.586   3.269  36.679  0.00  0.00    +0.000 A 
ATOM      5  C   UNL     1      34.275   3.606  35.378  0.00  0.00    +0.000 A 
ATOM      6  C   UNL     1      33.724   2.624  34.538  0.00  0.00    +0.000 A 
ATOM      7  C   UNL     1      34.429   4.876  34.691  0.00  0.00    +0.000 C 
ATOM      8  O   UNL     1      33.712   5.053  33.681  0.00  0.00    +0.000 OA
ATOM      9  C   UNL     1      35.317   6.006  35.012  0.00  0.00    +0.000 C 
ATOM     10  C   UNL     1      34.943   6.667  36.290  0.00  0.00    +0.000 A 
ATOM     11  C   UNL     1      34.615   7.994  36.182  0.00  0.00    +0.000 A 
ATOM     12  C   UNL     1      34.255   8.673  37.324  0.00  0.00    +0.000 A 
ATOM     13  N   UNL     1      33.898  10.068  37.279  0.00  0.00    +0.000 NA
ATOM     14  C   UNL     1      34.213   8.073  38.568  0.00  0.00    +0.000 A 
ATOM     15  C   UNL     1      34.553   6.726  38.639  0.00  0.00    +0.000 A 
ATOM     16  C   UNL     1      34.914   6.033  37.507  0.00  0.00    +0.000 A 
ATOM     17  S   UNL     1      35.292   4.341  37.920  0.00  0.00    +0.000 S 
ENDROOT
BRANCH   1  19
ATOM     18  C   UNL     1      33.926  -0.391  33.265  0.00  0.00    +0.000 C 
ATOM     19  C   UNL     1      32.908   0.276  34.126  0.00  0.00    +0.000 C 
ATOM     20  C   UNL     1      32.263  -0.765  35.041  0.00  0.00    +0.000 C 
ENDBRANCH   1  19
TORSDOF 1
ENDMDL
MODEL 9
REMARK VINA RESULT:      -6.1     18.496     19.761
REMARK  Name = 
REMARK  1 active torsions:
REMARK  status: ('A' for Active; 'I' for Inactive)
REMARK    1  A    between atoms: C_2  and  C_4
REMARK                            x       y       z     vdW  Elec       q    Type
REMARK                         _______ _______ _______ _____ _____    ______ ____
ROOT
ATOM      1  C   UNL     1      24.068  26.102  26.417  0.00  0.00    +0.000 A 
ATOM      2  C   UNL     1      24.257  25.534  27.656  0.00  0.00    +0.000 A 
ATOM      3  C   UNL     1      25.228  24.590  27.904  0.00  0.00    +0.000 A 
ATOM      4  C   UNL     1      26.052  24.191  26.871  0.00  0.00    +0.000 A 
ATOM      5  C   UNL     1      25.899  24.734  25.613  0.00  0.00    +0.000 A 
ATOM      6  C   UNL     1      24.892  25.694  25.408  0.00  0.00    +0.000 A 
ATOM      7  C   UNL     1      26.643  24.468  24.395  0.00  0.00    +0.000 C 
ATOM      8  O   UNL     1      26.605  25.356  23.514  0.00  0.00    +0.000 OA
ATOM      9  C   UNL     1      27.448  23.289  24.035  0.00  0.00    +0.000 C 
ATOM     10  C   UNL     1      28.663  23.161  24.883  0.00  0.00    +0.000 A 
ATOM     11  C   UNL     1      29.852  23.187  24.201  0.00  0.00    +0.000 A 
ATOM     12  C   UNL     1      31.020  23.077  24.921  0.00  0.00    +0.000 A 
ATOM     13  N   UNL     1      32.303  23.097  24.265  0.00  0.00    +0.000 NA
ATOM     14  C   UNL     1      31.041  22.940  26.296  0.00  0.00    +0.000 A 
ATOM     15  C   UNL     1      29.815  22.917  26.954  0.00  0.00    +0.000 A 
ATOM     16  C   UNL     1      28.639  23.028  26.250  0.00  0.00    +0.000 A 
ATOM     17  S   UNL     1      27.250  22.963  27.365  0.00  0.00    +0.000 S 
ENDROOT
BRANCH   1  19
ATOM     18  C   UNL     1      21.934  26.679  25.295  0.00  0.00    +0.000 C 
ATOM     19  C   UNL     1      22.990  27.112  26.254  0.00  0.00    +0.000 C 
ATOM     20  C   UNL     1      22.355  27.366  27.622  0.00  0.00    +0.000 C 
ENDBRANCH   1  19
TORSDOF 1
ENDMDL
MODEL 10
REMARK VINA RESULT:      -6.0     20.527     21.688
REMARK  Name = 
REMARK  1 active torsions:
REMARK  status: ('A' for Active; 'I' for Inactive)
REMARK    1  A    between atoms: C_2  and  C_4
REMARK                            x       y       z     vdW  Elec       q    Type
REMARK                         _______ _______ _______ _____ _____    ______ ____
ROOT
ATOM      1  C   UNL     1      27.470   5.497  17.073  0.00  0.00    +0.000 A 
ATOM      2  C   UNL     1      27.351   5.419  15.704  0.00  0.00    +0.000 A 
ATOM      3  C   UNL     1      26.412   4.628  15.079  0.00  0.00    +0.000 A 
ATOM      4  C   UNL     1      25.550   3.878  15.853  0.00  0.00    +0.000 A 
ATOM      5  C   UNL     1      25.633   3.925  17.228  0.00  0.00    +0.000 A 
ATOM      6  C   UNL     1      26.608   4.746  17.820  0.00  0.00    +0.000 A 
ATOM      7  C   UNL     1      24.839   3.230  18.226  0.00  0.00    +0.000 C 
ATOM      8  O   UNL     1      24.817   3.735  19.371  0.00  0.00    +0.000 OA
ATOM      9  C   UNL     1      24.042   2.000  18.090  0.00  0.00    +0.000 C 
ATOM     10  C   UNL     1      22.871   2.187  17.193  0.00  0.00    +0.000 A 
ATOM     11  C   UNL     1      21.652   1.959  17.776  0.00  0.00    +0.000 A 
ATOM     12  C   UNL     1      20.521   2.116  17.007  0.00  0.00    +0.000 A 
ATOM     13  N   UNL     1      19.209   1.892  17.560  0.00  0.00    +0.000 NA
ATOM     14  C   UNL     1      20.567   2.491  15.678  0.00  0.00    +0.000 A 
ATOM     15  C   UNL     1      21.821   2.712  15.120  0.00  0.00    +0.000 A 
ATOM     16  C   UNL     1      22.961   2.562  15.875  0.00  0.00    +0.000 A 
ATOM     17  S   UNL     1      24.402   2.912  14.885  0.00  0.00    +0.000 S 
ENDROOT
BRANCH   1  19
ATOM     18  C   UNL     1      29.091   7.321  16.642  0.00  0.00    +0.000 C 
ATOM     19  C   UNL     1      28.518   6.380  17.646  0.00  0.00    +0.000 C 
ATOM     20  C   UNL     1      27.900   7.181  18.793  0.00  0.00    +0.000 C 
ENDBRANCH   1  19
TORSDOF 1
ENDMDL
