MODEL 1
REMARK VINA RESULT:      -6.4      0.000      0.000
REMARK  Name = 
REMARK  10 active torsions:
REMARK  status: ('A' for Active; 'I' for Inactive)
REMARK    1  A    between atoms: C_2  and  N_3
REMARK    2  A    between atoms: N_3  and  C_4
REMARK    3  A    between atoms: N_3  and  C_25
REMARK    4  A    between atoms: C_4  and  C_5
REMARK    5  A    between atoms: C_5  and  C_6
REMARK    6  A    between atoms: C_6  and  C_7
REMARK    7  A    between atoms: C_7  and  C_8
REMARK    8  A    between atoms: C_8  and  N_9
REMARK    9  A    between atoms: C_15  and  C_16
REMARK   10  A    between atoms: C_25  and  C_26
REMARK                            x       y       z     vdW  Elec       q    Type
REMARK                         _______ _______ _______ _____ _____    ______ ____
ROOT
ATOM      1  N   UNL     1      37.220  -2.714  16.692  0.00  0.00    +0.000 N 
ATOM      2  C   UNL     1      35.986  -3.067  16.100  0.00  0.00    +0.000 C 
ATOM      3  O   UNL     1      34.833  -3.231  16.625  0.00  0.00    +0.000 OA
ATOM      4  C   UNL     1      36.214  -3.243  14.660  0.00  0.00    +0.000 C 
ATOM      5  C   UNL     1      37.659  -3.000  14.464  0.00  0.00    +0.000 A 
ATOM      6  C   UNL     1      38.434  -3.046  13.293  0.00  0.00    +0.000 A 
ATOM      7  C   UNL     1      39.782  -2.777  13.301  0.00  0.00    +0.000 A 
ATOM      8  C   UNL     1      40.337  -2.458  14.530  0.00  0.00    +0.000 A 
ATOM      9  C   UNL     1      39.584  -2.410  15.683  0.00  0.00    +0.000 A 
ATOM     10  C   UNL     1      38.226  -2.682  15.670  0.00  0.00    +0.000 A 
ENDROOT
BRANCH   7  11
ATOM     11  C   UNL     1      40.592  -2.814  12.087  0.00  0.00    +0.000 A 
ATOM     12  C   UNL     1      40.099  -2.503  10.832  0.00  0.00    +0.000 A 
ATOM     13  C   UNL     1      40.877  -2.548   9.685  0.00  0.00    +0.000 A 
ATOM     14  C   UNL     1      42.203  -2.914   9.766  0.00  0.00    +0.000 A 
ATOM     15  C   UNL     1      42.716  -3.227  11.010  0.00  0.00    +0.000 A 
ATOM     16  C   UNL     1      41.929  -3.177  12.140  0.00  0.00    +0.000 A 
ENDBRANCH   7  11
BRANCH   1  17
ATOM     17  C   UNL     1      37.415  -2.421  18.088  0.00  0.00    +0.000 C 
BRANCH  17  18
ATOM     18  C   UNL     1      36.510  -1.456  18.715  0.00  0.00    +0.000 C 
BRANCH  18  19
ATOM     19  C   UNL     1      36.476  -0.063  18.237  0.00  0.00    +0.000 C 
BRANCH  19  20
ATOM     20  C   UNL     1      35.285   0.312  17.416  0.00  0.00    +0.000 C 
BRANCH  20  21
ATOM     21  C   UNL     1      35.508   1.743  16.894  0.00  0.00    +0.000 C 
BRANCH  21  22
ATOM     22  N   UNL     1      35.562   1.710  15.494  0.00  0.00    +0.000 NA
BRANCH  22  24
ATOM     23  C   UNL     1      35.761   3.908  14.413  0.00  0.00    +0.000 C 
ATOM     24  C   UNL     1      34.940   2.704  14.730  0.00  0.00    +0.000 C 
ENDBRANCH  22  24
BRANCH  22  25
ATOM     25  C   UNL     1      35.921   0.512  14.885  0.00  0.00    +0.000 C 
BRANCH  25  26
ATOM     26  C   UNL     1      37.203   0.625  14.120  0.00  0.00    +0.000 A 
ATOM     27  C   UNL     1      37.173   0.385  12.775  0.00  0.00    +0.000 A 
ATOM     28  C   UNL     1      38.323   0.489  12.031  0.00  0.00    +0.000 A 
ATOM     29  C   UNL     1      39.507   0.835  12.647  0.00  0.00    +0.000 A 
ATOM     30  C   UNL     1      39.531   1.078  14.014  0.00  0.00    +0.000 A 
ATOM     31  C   UNL     1      38.384   0.969  14.727  0.00  0.00    +0.000 A 
ENDBRANCH  25  26
ENDBRANCH  22  25
ENDBRANCH  21  22
ENDBRANCH  20  21
ENDBRANCH  19  20
ENDBRANCH  18  19
ENDBRANCH  17  18
ENDBRANCH   1  17
TORSDOF 10
ENDMDL
MODEL 2
REMARK VINA RESULT:      -6.1      4.320      7.855
REMARK  Name = 
REMARK  10 active torsions:
REMARK  status: ('A' for Active; 'I' for Inactive)
REMARK    1  A    between atoms: C_2  and  N_3
REMARK    2  A    between atoms: N_3  and  C_4
REMARK    3  A    between atoms: N_3  and  C_25
REMARK    4  A    between atoms: C_4  and  C_5
REMARK    5  A    between atoms: C_5  and  C_6
REMARK    6  A    between atoms: C_6  and  C_7
REMARK    7  A    between atoms: C_7  and  C_8
REMARK    8  A    between atoms: C_8  and  N_9
REMARK    9  A    between atoms: C_15  and  C_16
REMARK   10  A    between atoms: C_25  and  C_26
REMARK                            x       y       z     vdW  Elec       q    Type
REMARK                         _______ _______ _______ _____ _____    ______ ____
ROOT
ATOM      1  N   UNL     1      36.735   3.929  14.757  0.00  0.00    +0.000 N 
ATOM      2  C   UNL     1      37.180   4.458  13.524  0.00  0.00    +0.000 C 
ATOM      3  O   UNL     1      36.706   4.321  12.345  0.00  0.00    +0.000 OA
ATOM      4  C   UNL     1      38.378   5.265  13.789  0.00  0.00    +0.000 C 
ATOM      5  C   UNL     1      38.613   5.143  15.244  0.00  0.00    +0.000 A 
ATOM      6  C   UNL     1      39.627   5.694  16.046  0.00  0.00    +0.000 A 
ATOM      7  C   UNL     1      39.680   5.478  17.401  0.00  0.00    +0.000 A 
ATOM      8  C   UNL     1      38.677   4.685  17.937  0.00  0.00    +0.000 A 
ATOM      9  C   UNL     1      37.679   4.142  17.157  0.00  0.00    +0.000 A 
ATOM     10  C   UNL     1      37.630   4.363  15.791  0.00  0.00    +0.000 A 
ENDROOT
BRANCH   7  11
ATOM     11  C   UNL     1      40.725   6.054  18.243  0.00  0.00    +0.000 A 
ATOM     12  C   UNL     1      40.579   6.259  19.604  0.00  0.00    +0.000 A 
ATOM     13  C   UNL     1      41.577   6.813  20.393  0.00  0.00    +0.000 A 
ATOM     14  C   UNL     1      42.777   7.185  19.825  0.00  0.00    +0.000 A 
ATOM     15  C   UNL     1      42.943   6.987  18.468  0.00  0.00    +0.000 A 
ATOM     16  C   UNL     1      41.941   6.436  17.699  0.00  0.00    +0.000 A 
ENDBRANCH   7  11
BRANCH   1  17
ATOM     17  C   UNL     1      35.565   3.108  14.933  0.00  0.00    +0.000 C 
BRANCH  17  18
ATOM     18  C   UNL     1      35.761   1.667  15.096  0.00  0.00    +0.000 C 
BRANCH  18  19
ATOM     19  C   UNL     1      35.862   1.088  16.447  0.00  0.00    +0.000 C 
BRANCH  19  20
ATOM     20  C   UNL     1      34.888  -0.001  16.760  0.00  0.00    +0.000 C 
BRANCH  20  21
ATOM     21  C   UNL     1      35.629  -1.070  17.583  0.00  0.00    +0.000 C 
BRANCH  21  22
ATOM     22  N   UNL     1      36.496  -1.773  16.736  0.00  0.00    +0.000 NA
BRANCH  22  24
ATOM     23  C   UNL     1      35.094  -3.578  15.830  0.00  0.00    +0.000 C 
ATOM     24  C   UNL     1      36.010  -2.424  15.596  0.00  0.00    +0.000 C 
ENDBRANCH  22  24
BRANCH  22  25
ATOM     25  C   UNL     1      37.752  -2.112  17.226  0.00  0.00    +0.000 C 
BRANCH  25  26
ATOM     26  C   UNL     1      38.827  -1.952  16.196  0.00  0.00    +0.000 A 
ATOM     27  C   UNL     1      38.957  -0.736  15.586  0.00  0.00    +0.000 A 
ATOM     28  C   UNL     1      39.937  -0.539  14.644  0.00  0.00    +0.000 A 
ATOM     29  C   UNL     1      40.789  -1.573  14.317  0.00  0.00    +0.000 A 
ATOM     30  C   UNL     1      40.652  -2.806  14.942  0.00  0.00    +0.000 A 
ATOM     31  C   UNL     1      39.678  -2.976  15.867  0.00  0.00    +0.000 A 
ENDBRANCH  25  26
ENDBRANCH  22  25
ENDBRANCH  21  22
ENDBRANCH  20  21
ENDBRANCH  19  20
ENDBRANCH  18  19
ENDBRANCH  17  18
ENDBRANCH   1  17
TORSDOF 10
ENDMDL
MODEL 3
REMARK VINA RESULT:      -6.0      3.961      8.083
REMARK  Name = 
REMARK  10 active torsions:
REMARK  status: ('A' for Active; 'I' for Inactive)
REMARK    1  A    between atoms: C_2  and  N_3
REMARK    2  A    between atoms: N_3  and  C_4
REMARK    3  A    between atoms: N_3  and  C_25
REMARK    4  A    between atoms: C_4  and  C_5
REMARK    5  A    between atoms: C_5  and  C_6
REMARK    6  A    between atoms: C_6  and  C_7
REMARK    7  A    between atoms: C_7  and  C_8
REMARK    8  A    between atoms: C_8  and  N_9
REMARK    9  A    between atoms: C_15  and  C_16
REMARK   10  A    between atoms: C_25  and  C_26
REMARK                            x       y       z     vdW  Elec       q    Type
REMARK                         _______ _______ _______ _____ _____    ______ ____
ROOT
ATOM      1  N   UNL     1      37.068   2.975  14.411  0.00  0.00    +0.000 N 
ATOM      2  C   UNL     1      36.043   2.484  15.252  0.00  0.00    +0.000 C 
ATOM      3  O   UNL     1      35.033   1.749  14.983  0.00  0.00    +0.000 OA
ATOM      4  C   UNL     1      36.306   2.973  16.612  0.00  0.00    +0.000 C 
ATOM      5  C   UNL     1      37.526   3.800  16.496  0.00  0.00    +0.000 A 
ATOM      6  C   UNL     1      38.224   4.525  17.477  0.00  0.00    +0.000 A 
ATOM      7  C   UNL     1      39.361   5.238  17.183  0.00  0.00    +0.000 A 
ATOM      8  C   UNL     1      39.784   5.204  15.864  0.00  0.00    +0.000 A 
ATOM      9  C   UNL     1      39.106   4.494  14.896  0.00  0.00    +0.000 A 
ATOM     10  C   UNL     1      37.960   3.777  15.197  0.00  0.00    +0.000 A 
ENDROOT
BRANCH   7  11
ATOM     11  C   UNL     1      40.097   5.987  18.198  0.00  0.00    +0.000 A 
ATOM     12  C   UNL     1      41.424   6.356  18.059  0.00  0.00    +0.000 A 
ATOM     13  C   UNL     1      42.115   7.062  19.033  0.00  0.00    +0.000 A 
ATOM     14  C   UNL     1      41.479   7.426  20.200  0.00  0.00    +0.000 A 
ATOM     15  C   UNL     1      40.154   7.067  20.359  0.00  0.00    +0.000 A 
ATOM     16  C   UNL     1      39.484   6.366  19.381  0.00  0.00    +0.000 A 
ENDBRANCH   7  11
BRANCH   1  17
ATOM     17  C   UNL     1      37.193   2.692  13.005  0.00  0.00    +0.000 C 
BRANCH  17  18
ATOM     18  C   UNL     1      37.805   1.420  12.617  0.00  0.00    +0.000 C 
BRANCH  18  19
ATOM     19  C   UNL     1      39.255   1.351  12.362  0.00  0.00    +0.000 C 
BRANCH  19  20
ATOM     20  C   UNL     1      40.076   0.736  13.448  0.00  0.00    +0.000 C 
BRANCH  20  21
ATOM     21  C   UNL     1      39.117   0.290  14.565  0.00  0.00    +0.000 C 
BRANCH  21  22
ATOM     22  N   UNL     1      39.074  -1.111  14.592  0.00  0.00    +0.000 NA
BRANCH  22  24
ATOM     23  C   UNL     1      41.035  -2.584  14.756  0.00  0.00    +0.000 C 
ATOM     24  C   UNL     1      40.034  -1.869  13.912  0.00  0.00    +0.000 C 
ENDBRANCH  22  24
BRANCH  22  25
ATOM     25  C   UNL     1      37.888  -1.718  14.990  0.00  0.00    +0.000 C 
BRANCH  25  26
ATOM     26  C   UNL     1      37.640  -1.576  16.459  0.00  0.00    +0.000 A 
ATOM     27  C   UNL     1      38.456  -2.258  17.318  0.00  0.00    +0.000 A 
ATOM     28  C   UNL     1      38.273  -2.147  18.674  0.00  0.00    +0.000 A 
ATOM     29  C   UNL     1      37.265  -1.345  19.166  0.00  0.00    +0.000 A 
ATOM     30  C   UNL     1      36.440  -0.654  18.288  0.00  0.00    +0.000 A 
ATOM     31  C   UNL     1      36.639  -0.779  16.954  0.00  0.00    +0.000 A 
ENDBRANCH  25  26
ENDBRANCH  22  25
ENDBRANCH  21  22
ENDBRANCH  20  21
ENDBRANCH  19  20
ENDBRANCH  18  19
ENDBRANCH  17  18
ENDBRANCH   1  17
TORSDOF 10
ENDMDL
MODEL 4
REMARK VINA RESULT:      -5.9      2.613      6.312
REMARK  Name = 
REMARK  10 active torsions:
REMARK  status: ('A' for Active; 'I' for Inactive)
REMARK    1  A    between atoms: C_2  and  N_3
REMARK    2  A    between atoms: N_3  and  C_4
REMARK    3  A    between atoms: N_3  and  C_25
REMARK    4  A    between atoms: C_4  and  C_5
REMARK    5  A    between atoms: C_5  and  C_6
REMARK    6  A    between atoms: C_6  and  C_7
REMARK    7  A    between atoms: C_7  and  C_8
REMARK    8  A    between atoms: C_8  and  N_9
REMARK    9  A    between atoms: C_15  and  C_16
REMARK   10  A    between atoms: C_25  and  C_26
REMARK                            x       y       z     vdW  Elec       q    Type
REMARK                         _______ _______ _______ _____ _____    ______ ____
ROOT
ATOM      1  N   UNL     1      41.267  -2.767  12.558  0.00  0.00    +0.000 N 
ATOM      2  C   UNL     1      42.356  -2.358  13.363  0.00  0.00    +0.000 C 
ATOM      3  O   UNL     1      43.612  -2.381  13.129  0.00  0.00    +0.000 OA
ATOM      4  C   UNL     1      41.811  -1.856  14.631  0.00  0.00    +0.000 C 
ATOM      5  C   UNL     1      40.347  -2.028  14.520  0.00  0.00    +0.000 A 
ATOM      6  C   UNL     1      39.329  -1.731  15.442  0.00  0.00    +0.000 A 
ATOM      7  C   UNL     1      38.003  -1.953  15.157  0.00  0.00    +0.000 A 
ATOM      8  C   UNL     1      37.724  -2.488  13.909  0.00  0.00    +0.000 A 
ATOM      9  C   UNL     1      38.717  -2.781  13.000  0.00  0.00    +0.000 A 
ATOM     10  C   UNL     1      40.052  -2.555  13.291  0.00  0.00    +0.000 A 
ENDROOT
BRANCH   7  11
ATOM     11  C   UNL     1      36.938  -1.639  16.105  0.00  0.00    +0.000 A 
ATOM     12  C   UNL     1      35.608  -1.954  15.888  0.00  0.00    +0.000 A 
ATOM     13  C   UNL     1      34.603  -1.645  16.793  0.00  0.00    +0.000 A 
ATOM     14  C   UNL     1      34.913  -0.996  17.969  0.00  0.00    +0.000 A 
ATOM     15  C   UNL     1      36.235  -0.673  18.206  0.00  0.00    +0.000 A 
ATOM     16  C   UNL     1      37.220  -0.988  17.295  0.00  0.00    +0.000 A 
ENDBRANCH   7  11
BRANCH   1  17
ATOM     17  C   UNL     1      41.375  -3.289  11.221  0.00  0.00    +0.000 C 
BRANCH  17  18
ATOM     18  C   UNL     1      41.463  -2.329  10.120  0.00  0.00    +0.000 C 
BRANCH  18  19
ATOM     19  C   UNL     1      40.323  -1.443   9.825  0.00  0.00    +0.000 C 
BRANCH  19  20
ATOM     20  C   UNL     1      40.393  -0.075  10.424  0.00  0.00    +0.000 C 
BRANCH  20  21
ATOM     21  C   UNL     1      38.952   0.444  10.576  0.00  0.00    +0.000 C 
BRANCH  21  22
ATOM     22  N   UNL     1      38.935   1.450  11.552  0.00  0.00    +0.000 NA
BRANCH  22  24
ATOM     23  C   UNL     1      37.795   3.521  10.877  0.00  0.00    +0.000 C 
ATOM     24  C   UNL     1      39.061   2.797  11.192  0.00  0.00    +0.000 C 
ENDBRANCH  22  24
BRANCH  22  25
ATOM     25  C   UNL     1      39.152   1.079  12.874  0.00  0.00    +0.000 C 
BRANCH  25  26
ATOM     26  C   UNL     1      37.978   1.383  13.751  0.00  0.00    +0.000 A 
ATOM     27  C   UNL     1      38.202   2.074  14.909  0.00  0.00    +0.000 A 
ATOM     28  C   UNL     1      37.153   2.386  15.738  0.00  0.00    +0.000 A 
ATOM     29  C   UNL     1      35.873   2.001  15.397  0.00  0.00    +0.000 A 
ATOM     30  C   UNL     1      35.652   1.300  14.218  0.00  0.00    +0.000 A 
ATOM     31  C   UNL     1      36.703   1.003  13.417  0.00  0.00    +0.000 A 
ENDBRANCH  25  26
ENDBRANCH  22  25
ENDBRANCH  21  22
ENDBRANCH  20  21
ENDBRANCH  19  20
ENDBRANCH  18  19
ENDBRANCH  17  18
ENDBRANCH   1  17
TORSDOF 10
ENDMDL
MODEL 5
REMARK VINA RESULT:      -5.8      5.862      9.005
REMARK  Name = 
REMARK  10 active torsions:
REMARK  status: ('A' for Active; 'I' for Inactive)
REMARK    1  A    between atoms: C_2  and  N_3
REMARK    2  A    between atoms: N_3  and  C_4
REMARK    3  A    between atoms: N_3  and  C_25
REMARK    4  A    between atoms: C_4  and  C_5
REMARK    5  A    between atoms: C_5  and  C_6
REMARK    6  A    between atoms: C_6  and  C_7
REMARK    7  A    between atoms: C_7  and  C_8
REMARK    8  A    between atoms: C_8  and  N_9
REMARK    9  A    between atoms: C_15  and  C_16
REMARK   10  A    between atoms: C_25  and  C_26
REMARK                            x       y       z     vdW  Elec       q    Type
REMARK                         _______ _______ _______ _____ _____    ______ ____
ROOT
ATOM      1  N   UNL     1      38.795   5.120  15.948  0.00  0.00    +0.000 N 
ATOM      2  C   UNL     1      39.640   5.348  14.837  0.00  0.00    +0.000 C 
ATOM      3  O   UNL     1      39.451   5.123  13.594  0.00  0.00    +0.000 OA
ATOM      4  C   UNL     1      40.890   5.934  15.339  0.00  0.00    +0.000 C 
ATOM      5  C   UNL     1      40.725   6.000  16.806  0.00  0.00    +0.000 A 
ATOM      6  C   UNL     1      41.611   6.459  17.796  0.00  0.00    +0.000 A 
ATOM      7  C   UNL     1      41.278   6.454  19.129  0.00  0.00    +0.000 A 
ATOM      8  C   UNL     1      40.018   5.970  19.446  0.00  0.00    +0.000 A 
ATOM      9  C   UNL     1      39.144   5.519  18.481  0.00  0.00    +0.000 A 
ATOM     10  C   UNL     1      39.484   5.526  17.139  0.00  0.00    +0.000 A 
ENDROOT
BRANCH   7  11
ATOM     11  C   UNL     1      42.189   6.937  20.163  0.00  0.00    +0.000 A 
ATOM     12  C   UNL     1      42.540   8.268  20.306  0.00  0.00    +0.000 A 
ATOM     13  C   UNL     1      43.412   8.715  21.289  0.00  0.00    +0.000 A 
ATOM     14  C   UNL     1      43.967   7.818  22.176  0.00  0.00    +0.000 A 
ATOM     15  C   UNL     1      43.628   6.484  22.051  0.00  0.00    +0.000 A 
ATOM     16  C   UNL     1      42.761   6.058  21.069  0.00  0.00    +0.000 A 
ENDBRANCH   7  11
BRANCH   1  17
ATOM     17  C   UNL     1      37.460   4.585  15.877  0.00  0.00    +0.000 C 
BRANCH  17  18
ATOM     18  C   UNL     1      37.309   3.130  15.843  0.00  0.00    +0.000 C 
BRANCH  18  19
ATOM     19  C   UNL     1      36.218   2.486  16.594  0.00  0.00    +0.000 C 
BRANCH  19  20
ATOM     20  C   UNL     1      35.759   1.165  16.066  0.00  0.00    +0.000 C 
BRANCH  20  21
ATOM     21  C   UNL     1      35.959   0.121  17.179  0.00  0.00    +0.000 C 
BRANCH  21  22
ATOM     22  N   UNL     1      36.445  -1.062  16.606  0.00  0.00    +0.000 NA
BRANCH  22  24
ATOM     23  C   UNL     1      35.191  -3.146  16.249  0.00  0.00    +0.000 C 
ATOM     24  C   UNL     1      35.646  -1.819  15.741  0.00  0.00    +0.000 C 
ENDBRANCH  22  24
BRANCH  22  25
ATOM     25  C   UNL     1      37.568  -1.649  17.178  0.00  0.00    +0.000 C 
BRANCH  25  26
ATOM     26  C   UNL     1      38.722  -1.717  16.227  0.00  0.00    +0.000 A 
ATOM     27  C   UNL     1      39.417  -2.891  16.142  0.00  0.00    +0.000 A 
ATOM     28  C   UNL     1      40.475  -3.003  15.273  0.00  0.00    +0.000 A 
ATOM     29  C   UNL     1      40.833  -1.928  14.488  0.00  0.00    +0.000 A 
ATOM     30  C   UNL     1      40.122  -0.738  14.580  0.00  0.00    +0.000 A 
ATOM     31  C   UNL     1      39.083  -0.650  15.444  0.00  0.00    +0.000 A 
ENDBRANCH  25  26
ENDBRANCH  22  25
ENDBRANCH  21  22
ENDBRANCH  20  21
ENDBRANCH  19  20
ENDBRANCH  18  19
ENDBRANCH  17  18
ENDBRANCH   1  17
TORSDOF 10
ENDMDL
MODEL 6
REMARK VINA RESULT:      -5.8      2.280      3.364
REMARK  Name = 
REMARK  10 active torsions:
REMARK  status: ('A' for Active; 'I' for Inactive)
REMARK    1  A    between atoms: C_2  and  N_3
REMARK    2  A    between atoms: N_3  and  C_4
REMARK    3  A    between atoms: N_3  and  C_25
REMARK    4  A    between atoms: C_4  and  C_5
REMARK    5  A    between atoms: C_5  and  C_6
REMARK    6  A    between atoms: C_6  and  C_7
REMARK    7  A    between atoms: C_7  and  C_8
REMARK    8  A    between atoms: C_8  and  N_9
REMARK    9  A    between atoms: C_15  and  C_16
REMARK   10  A    between atoms: C_25  and  C_26
REMARK                            x       y       z     vdW  Elec       q    Type
REMARK                         _______ _______ _______ _____ _____    ______ ____
ROOT
ATOM      1  N   UNL     1      36.570  -2.125  17.157  0.00  0.00    +0.000 N 
ATOM      2  C   UNL     1      37.479  -2.276  18.230  0.00  0.00    +0.000 C 
ATOM      3  O   UNL     1      37.287  -2.214  19.492  0.00  0.00    +0.000 OA
ATOM      4  C   UNL     1      38.806  -2.537  17.658  0.00  0.00    +0.000 C 
ATOM      5  C   UNL     1      38.612  -2.496  16.193  0.00  0.00    +0.000 A 
ATOM      6  C   UNL     1      39.542  -2.663  15.153  0.00  0.00    +0.000 A 
ATOM      7  C   UNL     1      39.172  -2.601  13.831  0.00  0.00    +0.000 A 
ATOM      8  C   UNL     1      37.830  -2.363  13.579  0.00  0.00    +0.000 A 
ATOM      9  C   UNL     1      36.913  -2.199  14.594  0.00  0.00    +0.000 A 
ATOM     10  C   UNL     1      37.290  -2.262  15.924  0.00  0.00    +0.000 A 
ENDROOT
BRANCH   7  11
ATOM     11  C   UNL     1      40.130  -2.782  12.743  0.00  0.00    +0.000 A 
ATOM     12  C   UNL     1      39.823  -2.555  11.413  0.00  0.00    +0.000 A 
ATOM     13  C   UNL     1      40.739  -2.737  10.387  0.00  0.00    +0.000 A 
ATOM     14  C   UNL     1      42.018  -3.162  10.675  0.00  0.00    +0.000 A 
ATOM     15  C   UNL     1      42.345  -3.394  11.997  0.00  0.00    +0.000 A 
ATOM     16  C   UNL     1      41.423  -3.208  13.003  0.00  0.00    +0.000 A 
ENDBRANCH   7  11
BRANCH   1  17
ATOM     17  C   UNL     1      35.156  -1.891  17.296  0.00  0.00    +0.000 C 
BRANCH  17  18
ATOM     18  C   UNL     1      34.644  -0.570  16.927  0.00  0.00    +0.000 C 
BRANCH  18  19
ATOM     19  C   UNL     1      35.262   0.642  17.494  0.00  0.00    +0.000 C 
BRANCH  19  20
ATOM     20  C   UNL     1      35.617   1.709  16.510  0.00  0.00    +0.000 C 
BRANCH  20  21
ATOM     21  C   UNL     1      36.983   1.349  15.899  0.00  0.00    +0.000 C 
BRANCH  21  22
ATOM     22  N   UNL     1      37.410   2.410  15.089  0.00  0.00    +0.000 NA
BRANCH  22  24
ATOM     23  C   UNL     1      39.385   1.094  14.448  0.00  0.00    +0.000 C 
ATOM     24  C   UNL     1      38.467   2.241  14.187  0.00  0.00    +0.000 C 
ENDBRANCH  22  24
BRANCH  22  25
ATOM     25  C   UNL     1      37.022   3.697  15.444  0.00  0.00    +0.000 C 
BRANCH  25  26
ATOM     26  C   UNL     1      38.046   4.388  16.288  0.00  0.00    +0.000 A 
ATOM     27  C   UNL     1      39.016   5.115  15.655  0.00  0.00    +0.000 A 
ATOM     28  C   UNL     1      39.969   5.777  16.390  0.00  0.00    +0.000 A 
ATOM     29  C   UNL     1      39.944   5.705  17.767  0.00  0.00    +0.000 A 
ATOM     30  C   UNL     1      38.956   4.966  18.403  0.00  0.00    +0.000 A 
ATOM     31  C   UNL     1      38.027   4.321  17.658  0.00  0.00    +0.000 A 
ENDBRANCH  25  26
ENDBRANCH  22  25
ENDBRANCH  21  22
ENDBRANCH  20  21
ENDBRANCH  19  20
ENDBRANCH  18  19
ENDBRANCH  17  18
ENDBRANCH   1  17
TORSDOF 10
ENDMDL
MODEL 7
REMARK VINA RESULT:      -5.8      6.290      9.594
REMARK  Name = 
REMARK  10 active torsions:
REMARK  status: ('A' for Active; 'I' for Inactive)
REMARK    1  A    between atoms: C_2  and  N_3
REMARK    2  A    between atoms: N_3  and  C_4
REMARK    3  A    between atoms: N_3  and  C_25
REMARK    4  A    between atoms: C_4  and  C_5
REMARK    5  A    between atoms: C_5  and  C_6
REMARK    6  A    between atoms: C_6  and  C_7
REMARK    7  A    between atoms: C_7  and  C_8
REMARK    8  A    between atoms: C_8  and  N_9
REMARK    9  A    between atoms: C_15  and  C_16
REMARK   10  A    between atoms: C_25  and  C_26
REMARK                            x       y       z     vdW  Elec       q    Type
REMARK                         _______ _______ _______ _____ _____    ______ ____
ROOT
ATOM      1  N   UNL     1      36.490   4.477  14.836  0.00  0.00    +0.000 N 
ATOM      2  C   UNL     1      36.006   3.364  15.562  0.00  0.00    +0.000 C 
ATOM      3  O   UNL     1      35.036   2.571  15.312  0.00  0.00    +0.000 OA
ATOM      4  C   UNL     1      36.839   3.217  16.763  0.00  0.00    +0.000 C 
ATOM      5  C   UNL     1      37.810   4.330  16.700  0.00  0.00    +0.000 A 
ATOM      6  C   UNL     1      38.835   4.688  17.593  0.00  0.00    +0.000 A 
ATOM      7  C   UNL     1      39.657   5.764  17.361  0.00  0.00    +0.000 A 
ATOM      8  C   UNL     1      39.420   6.480  16.198  0.00  0.00    +0.000 A 
ATOM      9  C   UNL     1      38.418   6.134  15.318  0.00  0.00    +0.000 A 
ATOM     10  C   UNL     1      37.592   5.049  15.555  0.00  0.00    +0.000 A 
ENDROOT
BRANCH   7  11
ATOM     11  C   UNL     1      40.730   6.138  18.279  0.00  0.00    +0.000 A 
ATOM     12  C   UNL     1      41.999   6.496  17.860  0.00  0.00    +0.000 A 
ATOM     13  C   UNL     1      43.013   6.843  18.741  0.00  0.00    +0.000 A 
ATOM     14  C   UNL     1      42.776   6.840  20.099  0.00  0.00    +0.000 A 
ATOM     15  C   UNL     1      41.515   6.485  20.538  0.00  0.00    +0.000 A 
ATOM     16  C   UNL     1      40.520   6.144  19.648  0.00  0.00    +0.000 A 
ENDBRANCH   7  11
BRANCH   1  17
ATOM     17  C   UNL     1      35.966   4.935  13.575  0.00  0.00    +0.000 C 
BRANCH  17  18
ATOM     18  C   UNL     1      34.868   5.902  13.606  0.00  0.00    +0.000 C 
BRANCH  18  19
ATOM     19  C   UNL     1      35.140   7.314  13.927  0.00  0.00    +0.000 C 
BRANCH  19  20
ATOM     20  C   UNL     1      34.100   8.004  14.748  0.00  0.00    +0.000 C 
BRANCH  20  21
ATOM     21  C   UNL     1      34.681   9.357  15.199  0.00  0.00    +0.000 C 
BRANCH  21  22
ATOM     22  N   UNL     1      34.281   9.603  16.519  0.00  0.00    +0.000 NA
BRANCH  22  24
ATOM     23  C   UNL     1      32.808   9.243  18.453  0.00  0.00    +0.000 C 
ATOM     24  C   UNL     1      33.030   9.178  16.980  0.00  0.00    +0.000 C 
ENDBRANCH  22  24
BRANCH  22  25
ATOM     25  C   UNL     1      34.976  10.569  17.240  0.00  0.00    +0.000 C 
BRANCH  25  26
ATOM     26  C   UNL     1      36.341  10.107  17.641  0.00  0.00    +0.000 A 
ATOM     27  C   UNL     1      36.436   9.126  18.588  0.00  0.00    +0.000 A 
ATOM     28  C   UNL     1      37.669   8.662  18.978  0.00  0.00    +0.000 A 
ATOM     29  C   UNL     1      38.809   9.189  18.410  0.00  0.00    +0.000 A 
ATOM     30  C   UNL     1      38.706  10.186  17.448  0.00  0.00    +0.000 A 
ATOM     31  C   UNL     1      37.480  10.627  17.080  0.00  0.00    +0.000 A 
ENDBRANCH  25  26
ENDBRANCH  22  25
ENDBRANCH  21  22
ENDBRANCH  20  21
ENDBRANCH  19  20
ENDBRANCH  18  19
ENDBRANCH  17  18
ENDBRANCH   1  17
TORSDOF 10
ENDMDL
MODEL 8
REMARK VINA RESULT:      -5.8     23.793     27.992
REMARK  Name = 
REMARK  10 active torsions:
REMARK  status: ('A' for Active; 'I' for Inactive)
REMARK    1  A    between atoms: C_2  and  N_3
REMARK    2  A    between atoms: N_3  and  C_4
REMARK    3  A    between atoms: N_3  and  C_25
REMARK    4  A    between atoms: C_4  and  C_5
REMARK    5  A    between atoms: C_5  and  C_6
REMARK    6  A    between atoms: C_6  and  C_7
REMARK    7  A    between atoms: C_7  and  C_8
REMARK    8  A    between atoms: C_8  and  N_9
REMARK    9  A    between atoms: C_15  and  C_16
REMARK   10  A    between atoms: C_25  and  C_26
REMARK                            x       y       z     vdW  Elec       q    Type
REMARK                         _______ _______ _______ _____ _____    ______ ____
ROOT
ATOM      1  N   UNL     1      13.039   0.424  28.352  0.00  0.00    +0.000 N 
ATOM      2  C   UNL     1      12.843   0.631  29.737  0.00  0.00    +0.000 C 
ATOM      3  O   UNL     1      13.623   0.412  30.725  0.00  0.00    +0.000 OA
ATOM      4  C   UNL     1      11.494   1.182  29.921  0.00  0.00    +0.000 C 
ATOM      5  C   UNL     1      10.915   1.250  28.562  0.00  0.00    +0.000 A 
ATOM      6  C   UNL     1       9.647   1.684  28.140  0.00  0.00    +0.000 A 
ATOM      7  C   UNL     1       9.283   1.687  26.815  0.00  0.00    +0.000 A 
ATOM      8  C   UNL     1      10.237   1.237  25.915  0.00  0.00    +0.000 A 
ATOM      9  C   UNL     1      11.483   0.811  26.321  0.00  0.00    +0.000 A 
ATOM     10  C   UNL     1      11.845   0.810  27.658  0.00  0.00    +0.000 A 
ENDROOT
BRANCH   7  11
ATOM     11  C   UNL     1       7.971   2.144  26.367  0.00  0.00    +0.000 A 
ATOM     12  C   UNL     1       7.365   1.698  25.205  0.00  0.00    +0.000 A 
ATOM     13  C   UNL     1       6.120   2.144  24.786  0.00  0.00    +0.000 A 
ATOM     14  C   UNL     1       5.432   3.072  25.538  0.00  0.00    +0.000 A 
ATOM     15  C   UNL     1       6.019   3.529  26.702  0.00  0.00    +0.000 A 
ATOM     16  C   UNL     1       7.256   3.075  27.104  0.00  0.00    +0.000 A 
ENDBRANCH   7  11
BRANCH   1  17
ATOM     17  C   UNL     1      14.250  -0.073  27.752  0.00  0.00    +0.000 C 
BRANCH  17  18
ATOM     18  C   UNL     1      15.094   0.880  27.030  0.00  0.00    +0.000 C 
BRANCH  18  19
ATOM     19  C   UNL     1      16.561   0.770  27.109  0.00  0.00    +0.000 C 
BRANCH  19  20
ATOM     20  C   UNL     1      17.290   0.879  25.810  0.00  0.00    +0.000 C 
BRANCH  20  21
ATOM     21  C   UNL     1      17.365  -0.529  25.194  0.00  0.00    +0.000 C 
BRANCH  21  22
ATOM     22  N   UNL     1      18.594  -1.109  25.539  0.00  0.00    +0.000 NA
BRANCH  22  24
ATOM     23  C   UNL     1      19.608  -3.223  26.278  0.00  0.00    +0.000 C 
ATOM     24  C   UNL     1      18.667  -2.093  26.531  0.00  0.00    +0.000 C 
ENDBRANCH  22  24
BRANCH  22  25
ATOM     25  C   UNL     1      19.755  -0.452  25.149  0.00  0.00    +0.000 C 
BRANCH  25  26
ATOM     26  C   UNL     1      20.010  -0.569  23.679  0.00  0.00    +0.000 A 
ATOM     27  C   UNL     1      20.132   0.583  22.953  0.00  0.00    +0.000 A 
ATOM     28  C   UNL     1      20.378   0.523  21.604  0.00  0.00    +0.000 A 
ATOM     29  C   UNL     1      20.501  -0.702  20.984  0.00  0.00    +0.000 A 
ATOM     30  C   UNL     1      20.377  -1.869  21.727  0.00  0.00    +0.000 A 
ATOM     31  C   UNL     1      20.133  -1.786  23.057  0.00  0.00    +0.000 A 
ENDBRANCH  25  26
ENDBRANCH  22  25
ENDBRANCH  21  22
ENDBRANCH  20  21
ENDBRANCH  19  20
ENDBRANCH  18  19
ENDBRANCH  17  18
ENDBRANCH   1  17
TORSDOF 10
ENDMDL
MODEL 9
REMARK VINA RESULT:      -5.7      1.408      2.314
REMARK  Name = 
REMARK  10 active torsions:
REMARK  status: ('A' for Active; 'I' for Inactive)
REMARK    1  A    between atoms: C_2  and  N_3
REMARK    2  A    between atoms: N_3  and  C_4
REMARK    3  A    between atoms: N_3  and  C_25
REMARK    4  A    between atoms: C_4  and  C_5
REMARK    5  A    between atoms: C_5  and  C_6
REMARK    6  A    between atoms: C_6  and  C_7
REMARK    7  A    between atoms: C_7  and  C_8
REMARK    8  A    between atoms: C_8  and  N_9
REMARK    9  A    between atoms: C_15  and  C_16
REMARK   10  A    between atoms: C_25  and  C_26
REMARK                            x       y       z     vdW  Elec       q    Type
REMARK                         _______ _______ _______ _____ _____    ______ ____
ROOT
ATOM      1  N   UNL     1      36.670  -2.113  17.153  0.00  0.00    +0.000 N 
ATOM      2  C   UNL     1      37.567  -2.337  18.224  0.00  0.00    +0.000 C 
ATOM      3  O   UNL     1      37.375  -2.296  19.486  0.00  0.00    +0.000 OA
ATOM      4  C   UNL     1      38.881  -2.653  17.648  0.00  0.00    +0.000 C 
ATOM      5  C   UNL     1      38.694  -2.567  16.184  0.00  0.00    +0.000 A 
ATOM      6  C   UNL     1      39.617  -2.758  15.142  0.00  0.00    +0.000 A 
ATOM      7  C   UNL     1      39.255  -2.645  13.821  0.00  0.00    +0.000 A 
ATOM      8  C   UNL     1      37.928  -2.332  13.572  0.00  0.00    +0.000 A 
ATOM      9  C   UNL     1      37.017  -2.145  14.589  0.00  0.00    +0.000 A 
ATOM     10  C   UNL     1      37.386  -2.259  15.918  0.00  0.00    +0.000 A 
ENDROOT
BRANCH   7  11
ATOM     11  C   UNL     1      40.205  -2.851  12.731  0.00  0.00    +0.000 A 
ATOM     12  C   UNL     1      39.882  -2.677  11.397  0.00  0.00    +0.000 A 
ATOM     13  C   UNL     1      40.792  -2.881  10.370  0.00  0.00    +0.000 A 
ATOM     14  C   UNL     1      42.081  -3.274  10.659  0.00  0.00    +0.000 A 
ATOM     15  C   UNL     1      42.424  -3.453  11.986  0.00  0.00    +0.000 A 
ATOM     16  C   UNL     1      41.508  -3.245  12.994  0.00  0.00    +0.000 A 
ENDBRANCH   7  11
BRANCH   1  17
ATOM     17  C   UNL     1      35.270  -1.809  17.295  0.00  0.00    +0.000 C 
BRANCH  17  18
ATOM     18  C   UNL     1      34.833  -0.448  16.980  0.00  0.00    +0.000 C 
BRANCH  18  19
ATOM     19  C   UNL     1      35.396   0.694  17.721  0.00  0.00    +0.000 C 
BRANCH  19  20
ATOM     20  C   UNL     1      36.234   1.637  16.920  0.00  0.00    +0.000 C 
BRANCH  20  21
ATOM     21  C   UNL     1      36.161   1.194  15.448  0.00  0.00    +0.000 C 
BRANCH  21  22
ATOM     22  N   UNL     1      36.866   2.116  14.663  0.00  0.00    +0.000 NA
BRANCH  22  24
ATOM     23  C   UNL     1      36.582   0.908  12.541  0.00  0.00    +0.000 C 
ATOM     24  C   UNL     1      36.642   2.200  13.284  0.00  0.00    +0.000 C 
ENDBRANCH  22  24
BRANCH  22  25
ATOM     25  C   UNL     1      38.020   2.679  15.198  0.00  0.00    +0.000 C 
BRANCH  25  26
ATOM     26  C   UNL     1      39.254   2.250  14.467  0.00  0.00    +0.000 A 
ATOM     27  C   UNL     1      39.688   0.964  14.636  0.00  0.00    +0.000 A 
ATOM     28  C   UNL     1      40.808   0.524  13.976  0.00  0.00    +0.000 A 
ATOM     29  C   UNL     1      41.493   1.382  13.141  0.00  0.00    +0.000 A 
ATOM     30  C   UNL     1      41.046   2.686  12.973  0.00  0.00    +0.000 A 
ATOM     31  C   UNL     1      39.939   3.099  13.635  0.00  0.00    +0.000 A 
ENDBRANCH  25  26
ENDBRANCH  22  25
ENDBRANCH  21  22
ENDBRANCH  20  21
ENDBRANCH  19  20
ENDBRANCH  18  19
ENDBRANCH  17  18
ENDBRANCH   1  17
TORSDOF 10
ENDMDL
MODEL 10
REMARK VINA RESULT:      -5.7      4.513      8.331
REMARK  Name = 
REMARK  10 active torsions:
REMARK  status: ('A' for Active; 'I' for Inactive)
REMARK    1  A    between atoms: C_2  and  N_3
REMARK    2  A    between atoms: N_3  and  C_4
REMARK    3  A    between atoms: N_3  and  C_25
REMARK    4  A    between atoms: C_4  and  C_5
REMARK    5  A    between atoms: C_5  and  C_6
REMARK    6  A    between atoms: C_6  and  C_7
REMARK    7  A    between atoms: C_7  and  C_8
REMARK    8  A    between atoms: C_8  and  N_9
REMARK    9  A    between atoms: C_15  and  C_16
REMARK   10  A    between atoms: C_25  and  C_26
REMARK                            x       y       z     vdW  Elec       q    Type
REMARK                         _______ _______ _______ _____ _____    ______ ____
ROOT
ATOM      1  N   UNL     1      37.128   3.888  14.942  0.00  0.00    +0.000 N 
ATOM      2  C   UNL     1      37.672   4.228  13.682  0.00  0.00    +0.000 C 
ATOM      3  O   UNL     1      37.249   3.976  12.503  0.00  0.00    +0.000 OA
ATOM      4  C   UNL     1      38.911   4.980  13.918  0.00  0.00    +0.000 C 
ATOM      5  C   UNL     1      39.063   5.026  15.387  0.00  0.00    +0.000 A 
ATOM      6  C   UNL     1      40.074   5.604  16.175  0.00  0.00    +0.000 A 
ATOM      7  C   UNL     1      40.042   5.556  17.548  0.00  0.00    +0.000 A 
ATOM      8  C   UNL     1      38.958   4.905  18.115  0.00  0.00    +0.000 A 
ATOM      9  C   UNL     1      37.963   4.337  17.350  0.00  0.00    +0.000 A 
ATOM     10  C   UNL     1      37.999   4.387  15.967  0.00  0.00    +0.000 A 
ENDROOT
BRANCH   7  11
ATOM     11  C   UNL     1      41.083   6.162  18.374  0.00  0.00    +0.000 A 
ATOM     12  C   UNL     1      42.295   6.601  17.871  0.00  0.00    +0.000 A 
ATOM     13  C   UNL     1      43.279   7.169  18.666  0.00  0.00    +0.000 A 
ATOM     14  C   UNL     1      43.069   7.317  20.021  0.00  0.00    +0.000 A 
ATOM     15  C   UNL     1      41.865   6.885  20.543  0.00  0.00    +0.000 A 
ATOM     16  C   UNL     1      40.899   6.323  19.738  0.00  0.00    +0.000 A 
ENDBRANCH   7  11
BRANCH   1  17
ATOM     17  C   UNL     1      35.894   3.176  15.146  0.00  0.00    +0.000 C 
BRANCH  17  18
ATOM     18  C   UNL     1      35.840   1.773  14.733  0.00  0.00    +0.000 C 
BRANCH  18  19
ATOM     19  C   UNL     1      36.717   0.782  15.381  0.00  0.00    +0.000 C 
BRANCH  19  20
ATOM     20  C   UNL     1      37.358  -0.212  14.468  0.00  0.00    +0.000 C 
BRANCH  20  21
ATOM     21  C   UNL     1      38.384  -1.012  15.292  0.00  0.00    +0.000 C 
BRANCH  21  22
ATOM     22  N   UNL     1      38.004  -2.361  15.298  0.00  0.00    +0.000 NA
BRANCH  22  24
ATOM     23  C   UNL     1      36.343  -3.893  14.330  0.00  0.00    +0.000 C 
ATOM     24  C   UNL     1      37.499  -2.968  14.143  0.00  0.00    +0.000 C 
ENDBRANCH  22  24
BRANCH  22  25
ATOM     25  C   UNL     1      37.801  -2.973  16.530  0.00  0.00    +0.000 C 
BRANCH  25  26
ATOM     26  C   UNL     1      36.964  -2.140  17.449  0.00  0.00    +0.000 A 
ATOM     27  C   UNL     1      37.579  -1.534  18.508  0.00  0.00    +0.000 A 
ATOM     28  C   UNL     1      36.852  -0.750  19.370  0.00  0.00    +0.000 A 
ATOM     29  C   UNL     1      35.500  -0.576  19.162  0.00  0.00    +0.000 A 
ATOM     30  C   UNL     1      34.881  -1.194  18.083  0.00  0.00    +0.000 A 
ATOM     31  C   UNL     1      35.618  -1.963  17.247  0.00  0.00    +0.000 A 
ENDBRANCH  25  26
ENDBRANCH  22  25
ENDBRANCH  21  22
ENDBRANCH  20  21
ENDBRANCH  19  20
ENDBRANCH  18  19
ENDBRANCH  17  18
ENDBRANCH   1  17
TORSDOF 10
ENDMDL
