MODEL 1
REMARK VINA RESULT:      -9.0      0.000      0.000
REMARK  Name = 
REMARK  6 active torsions:
REMARK  status: ('A' for Active; 'I' for Inactive)
REMARK    1  A    between atoms: O_2  and  C_3
REMARK    2  A    between atoms: C_8  and  C_9
REMARK    3  A    between atoms: C_11  and  C_12
REMARK    4  A    between atoms: N_14  and  C_15
REMARK    5  A    between atoms: C_15  and  C_17
REMARK    6  A    between atoms: C_20  and  C_21
REMARK                            x       y       z     vdW  Elec       q    Type
REMARK                         _______ _______ _______ _____ _____    ______ ____
ROOT
ATOM      1  C   UNL     1      40.641  -1.731  14.794  0.00  0.00    +0.000 A 
ATOM      2  C   UNL     1      39.902  -0.592  14.472  0.00  0.00    +0.000 A 
ATOM      3  C   UNL     1      38.706  -0.335  15.095  0.00  0.00    +0.000 A 
ATOM      4  C   UNL     1      38.209  -1.187  16.056  0.00  0.00    +0.000 A 
ATOM      5  C   UNL     1      36.985  -0.888  16.688  0.00  0.00    +0.000 A 
ATOM      6  C   UNL     1      36.578  -1.781  17.639  0.00  0.00    +0.000 A 
ATOM      7  C   UNL     1      37.268  -2.889  17.986  0.00  0.00    +0.000 A 
ATOM      8  C   UNL     1      38.472  -3.135  17.326  0.00  0.00    +0.000 A 
ATOM      9  C   UNL     1      38.958  -2.297  16.361  0.00  0.00    +0.000 A 
ATOM     10  N   UNL     1      40.140  -2.544  15.733  0.00  0.00    +0.000 NA
ENDROOT
BRANCH   1  16
ATOM     11  C   UNL     1      41.868  -2.818  12.902  0.00  0.00    +0.000 A 
ATOM     12  C   UNL     1      43.048  -3.129  12.269  0.00  0.00    +0.000 A 
ATOM     13  C   UNL     1      44.314  -2.721  12.735  0.00  0.00    +0.000 A 
ATOM     14  C   UNL     1      44.269  -1.983  13.887  0.00  0.00    +0.000 A 
ATOM     15  C   UNL     1      43.103  -1.665  14.530  0.00  0.00    +0.000 A 
ATOM     16  C   UNL     1      41.843  -2.077  14.054  0.00  0.00    +0.000 A 
BRANCH  11  18
ATOM     17  C   UNL     1      40.141  -2.618  11.200  0.00  0.00    +0.000 C 
ATOM     18  O   UNL     1      40.616  -3.242  12.389  0.00  0.00    +0.000 OA
ENDBRANCH  11  18
ENDBRANCH   1  16
BRANCH   3  19
ATOM     19  C   UNL     1      37.823   0.788  14.675  0.00  0.00    +0.000 C 
ATOM     20  O   UNL     1      37.007   0.672  13.753  0.00  0.00    +0.000 OA
ATOM     21  N   UNL     1      37.971   1.943  15.388  0.00  0.00    +0.000 NA
BRANCH  21  22
ATOM     22  C   UNL     1      37.356   3.290  15.375  0.00  0.00    +0.000 C 
ATOM     23  C   UNL     1      36.149   3.030  16.470  0.00  0.00    +0.000 C 
BRANCH  22  24
ATOM     24  C   UNL     1      38.266   4.173  16.253  0.00  0.00    +0.000 A 
ATOM     25  C   UNL     1      38.136   4.237  17.618  0.00  0.00    +0.000 A 
ATOM     26  C   UNL     1      38.989   5.051  18.381  0.00  0.00    +0.000 A 
ATOM     27  C   UNL     1      39.982   5.812  17.792  0.00  0.00    +0.000 A 
ATOM     28  C   UNL     1      40.100   5.734  16.420  0.00  0.00    +0.000 A 
ATOM     29  C   UNL     1      39.253   4.926  15.656  0.00  0.00    +0.000 A 
BRANCH  27  30
ATOM     30  C   UNL     1      40.864   6.711  18.596  0.00  0.00    +0.000 C 
ATOM     31  C   UNL     1      42.319   6.536  18.178  0.00  0.00    +0.000 C 
ATOM     32  C   UNL     1      40.789   6.454  20.079  0.00  0.00    +0.000 C 
ATOM     33  C   UNL     1      40.517   8.149  18.385  0.00  0.00    +0.000 C 
ENDBRANCH  27  30
ENDBRANCH  22  24
ENDBRANCH  21  22
ENDBRANCH   3  19
TORSDOF 6
ENDMDL
MODEL 2
REMARK VINA RESULT:      -8.9      0.927      1.761
REMARK  Name = 
REMARK  6 active torsions:
REMARK  status: ('A' for Active; 'I' for Inactive)
REMARK    1  A    between atoms: O_2  and  C_3
REMARK    2  A    between atoms: C_8  and  C_9
REMARK    3  A    between atoms: C_11  and  C_12
REMARK    4  A    between atoms: N_14  and  C_15
REMARK    5  A    between atoms: C_15  and  C_17
REMARK    6  A    between atoms: C_20  and  C_21
REMARK                            x       y       z     vdW  Elec       q    Type
REMARK                         _______ _______ _______ _____ _____    ______ ____
ROOT
ATOM      1  C   UNL     1      40.425  -1.838  14.584  0.00  0.00    +0.000 A 
ATOM      2  C   UNL     1      39.604  -0.735  14.350  0.00  0.00    +0.000 A 
ATOM      3  C   UNL     1      38.546  -0.462  15.180  0.00  0.00    +0.000 A 
ATOM      4  C   UNL     1      38.270  -1.263  16.265  0.00  0.00    +0.000 A 
ATOM      5  C   UNL     1      37.184  -0.948  17.107  0.00  0.00    +0.000 A 
ATOM      6  C   UNL     1      36.995  -1.789  18.167  0.00  0.00    +0.000 A 
ATOM      7  C   UNL     1      37.771  -2.862  18.433  0.00  0.00    +0.000 A 
ATOM      8  C   UNL     1      38.831  -3.126  17.566  0.00  0.00    +0.000 A 
ATOM      9  C   UNL     1      39.096  -2.339  16.479  0.00  0.00    +0.000 A 
ATOM     10  N   UNL     1      40.140  -2.602  15.646  0.00  0.00    +0.000 NA
ENDROOT
BRANCH   1  16
ATOM     11  C   UNL     1      42.732  -1.676  13.627  0.00  0.00    +0.000 A 
ATOM     12  C   UNL     1      43.663  -2.055  12.687  0.00  0.00    +0.000 A 
ATOM     13  C   UNL     1      43.410  -3.007  11.679  0.00  0.00    +0.000 A 
ATOM     14  C   UNL     1      42.143  -3.525  11.712  0.00  0.00    +0.000 A 
ATOM     15  C   UNL     1      41.205  -3.159  12.638  0.00  0.00    +0.000 A 
ATOM     16  C   UNL     1      41.470  -2.207  13.643  0.00  0.00    +0.000 A 
BRANCH  11  18
ATOM     17  C   UNL     1      44.407  -0.533  14.972  0.00  0.00    +0.000 C 
ATOM     18  O   UNL     1      43.037  -0.722  14.630  0.00  0.00    +0.000 OA
ENDBRANCH  11  18
ENDBRANCH   1  16
BRANCH   3  19
ATOM     19  C   UNL     1      37.565   0.618  14.879  0.00  0.00    +0.000 C 
ATOM     20  O   UNL     1      36.555   0.415  14.195  0.00  0.00    +0.000 OA
ATOM     21  N   UNL     1      37.855   1.836  15.423  0.00  0.00    +0.000 NA
BRANCH  21  22
ATOM     22  C   UNL     1      37.228   3.178  15.429  0.00  0.00    +0.000 C 
ATOM     23  C   UNL     1      36.076   2.915  16.581  0.00  0.00    +0.000 C 
BRANCH  22  24
ATOM     24  C   UNL     1      38.170   4.075  16.258  0.00  0.00    +0.000 A 
ATOM     25  C   UNL     1      38.068   4.190  17.622  0.00  0.00    +0.000 A 
ATOM     26  C   UNL     1      38.948   5.015  18.340  0.00  0.00    +0.000 A 
ATOM     27  C   UNL     1      39.942   5.737  17.705  0.00  0.00    +0.000 A 
ATOM     28  C   UNL     1      40.033   5.608  16.335  0.00  0.00    +0.000 A 
ATOM     29  C   UNL     1      39.158   4.789  15.616  0.00  0.00    +0.000 A 
BRANCH  27  30
ATOM     30  C   UNL     1      40.855   6.648  18.461  0.00  0.00    +0.000 C 
ATOM     31  C   UNL     1      40.428   8.098  18.275  0.00  0.00    +0.000 C 
ATOM     32  C   UNL     1      42.296   6.545  18.030  0.00  0.00    +0.000 C 
ATOM     33  C   UNL     1      40.818   6.364  19.928  0.00  0.00    +0.000 C 
ENDBRANCH  27  30
ENDBRANCH  22  24
ENDBRANCH  21  22
ENDBRANCH   3  19
TORSDOF 6
ENDMDL
MODEL 3
REMARK VINA RESULT:      -8.4      2.072      5.102
REMARK  Name = 
REMARK  6 active torsions:
REMARK  status: ('A' for Active; 'I' for Inactive)
REMARK    1  A    between atoms: O_2  and  C_3
REMARK    2  A    between atoms: C_8  and  C_9
REMARK    3  A    between atoms: C_11  and  C_12
REMARK    4  A    between atoms: N_14  and  C_15
REMARK    5  A    between atoms: C_15  and  C_17
REMARK    6  A    between atoms: C_20  and  C_21
REMARK                            x       y       z     vdW  Elec       q    Type
REMARK                         _______ _______ _______ _____ _____    ______ ____
ROOT
ATOM      1  C   UNL     1      37.889  -0.518  15.321  0.00  0.00    +0.000 A 
ATOM      2  C   UNL     1      38.047   0.657  14.585  0.00  0.00    +0.000 A 
ATOM      3  C   UNL     1      39.255   0.966  14.012  0.00  0.00    +0.000 A 
ATOM      4  C   UNL     1      40.337   0.126  14.142  0.00  0.00    +0.000 A 
ATOM      5  C   UNL     1      41.562   0.464  13.530  0.00  0.00    +0.000 A 
ATOM      6  C   UNL     1      42.576  -0.436  13.699  0.00  0.00    +0.000 A 
ATOM      7  C   UNL     1      42.461  -1.587  14.396  0.00  0.00    +0.000 A 
ATOM      8  C   UNL     1      41.227  -1.870  14.981  0.00  0.00    +0.000 A 
ATOM      9  C   UNL     1      40.156  -1.028  14.865  0.00  0.00    +0.000 A 
ATOM     10  N   UNL     1      38.954  -1.322  15.432  0.00  0.00    +0.000 NA
ENDROOT
BRANCH   1  16
ATOM     11  C   UNL     1      36.111   0.009  17.003  0.00  0.00    +0.000 A 
ATOM     12  C   UNL     1      34.949  -0.330  17.656  0.00  0.00    +0.000 A 
ATOM     13  C   UNL     1      34.222  -1.508  17.392  0.00  0.00    +0.000 A 
ATOM     14  C   UNL     1      34.779  -2.297  16.422  0.00  0.00    +0.000 A 
ATOM     15  C   UNL     1      35.935  -1.976  15.763  0.00  0.00    +0.000 A 
ATOM     16  C   UNL     1      36.653  -0.794  16.034  0.00  0.00    +0.000 A 
BRANCH  11  18
ATOM     17  C   UNL     1      36.188   2.440  16.913  0.00  0.00    +0.000 C 
ATOM     18  O   UNL     1      36.802   1.212  17.295  0.00  0.00    +0.000 OA
ENDBRANCH  11  18
ENDBRANCH   1  16
BRANCH   3  19
ATOM     19  C   UNL     1      39.501   2.275  13.346  0.00  0.00    +0.000 C 
ATOM     20  O   UNL     1      39.536   2.388  12.115  0.00  0.00    +0.000 OA
ATOM     21  N   UNL     1      39.670   3.335  14.189  0.00  0.00    +0.000 NA
BRANCH  21  22
ATOM     22  C   UNL     1      39.925   4.786  14.040  0.00  0.00    +0.000 C 
ATOM     23  C   UNL     1      38.377   5.290  13.767  0.00  0.00    +0.000 C 
BRANCH  22  24
ATOM     24  C   UNL     1      40.087   5.332  15.474  0.00  0.00    +0.000 A 
ATOM     25  C   UNL     1      39.244   4.976  16.498  0.00  0.00    +0.000 A 
ATOM     26  C   UNL     1      39.429   5.492  17.790  0.00  0.00    +0.000 A 
ATOM     27  C   UNL     1      40.458   6.370  18.078  0.00  0.00    +0.000 A 
ATOM     28  C   UNL     1      41.296   6.715  17.039  0.00  0.00    +0.000 A 
ATOM     29  C   UNL     1      41.116   6.204  15.750  0.00  0.00    +0.000 A 
BRANCH  27  30
ATOM     30  C   UNL     1      40.634   6.954  19.443  0.00  0.00    +0.000 C 
ATOM     31  C   UNL     1      41.476   6.027  20.310  0.00  0.00    +0.000 C 
ATOM     32  C   UNL     1      39.333   7.187  20.167  0.00  0.00    +0.000 C 
ATOM     33  C   UNL     1      41.343   8.268  19.387  0.00  0.00    +0.000 C 
ENDBRANCH  27  30
ENDBRANCH  22  24
ENDBRANCH  21  22
ENDBRANCH   3  19
TORSDOF 6
ENDMDL
MODEL 4
REMARK VINA RESULT:      -8.3      1.685      4.094
REMARK  Name = 
REMARK  6 active torsions:
REMARK  status: ('A' for Active; 'I' for Inactive)
REMARK    1  A    between atoms: O_2  and  C_3
REMARK    2  A    between atoms: C_8  and  C_9
REMARK    3  A    between atoms: C_11  and  C_12
REMARK    4  A    between atoms: N_14  and  C_15
REMARK    5  A    between atoms: C_15  and  C_17
REMARK    6  A    between atoms: C_20  and  C_21
REMARK                            x       y       z     vdW  Elec       q    Type
REMARK                         _______ _______ _______ _____ _____    ______ ____
ROOT
ATOM      1  C   UNL     1      39.182  -1.982  15.408  0.00  0.00    +0.000 A 
ATOM      2  C   UNL     1      38.340  -0.917  15.088  0.00  0.00    +0.000 A 
ATOM      3  C   UNL     1      38.833   0.203  14.468  0.00  0.00    +0.000 A 
ATOM      4  C   UNL     1      40.166   0.303  14.139  0.00  0.00    +0.000 A 
ATOM      5  C   UNL     1      40.640   1.461  13.489  0.00  0.00    +0.000 A 
ATOM      6  C   UNL     1      41.973   1.466  13.187  0.00  0.00    +0.000 A 
ATOM      7  C   UNL     1      42.819   0.453  13.471  0.00  0.00    +0.000 A 
ATOM      8  C   UNL     1      42.295  -0.668  14.117  0.00  0.00    +0.000 A 
ATOM      9  C   UNL     1      40.974  -0.760  14.457  0.00  0.00    +0.000 A 
ATOM     10  N   UNL     1      40.474  -1.865  15.077  0.00  0.00    +0.000 NA
ENDROOT
BRANCH   1  16
ATOM     11  C   UNL     1      37.734  -3.995  15.751  0.00  0.00    +0.000 A 
ATOM     12  C   UNL     1      37.304  -5.033  16.544  0.00  0.00    +0.000 A 
ATOM     13  C   UNL     1      37.805  -5.285  17.837  0.00  0.00    +0.000 A 
ATOM     14  C   UNL     1      38.763  -4.397  18.243  0.00  0.00    +0.000 A 
ATOM     15  C   UNL     1      39.202  -3.358  17.468  0.00  0.00    +0.000 A 
ATOM     16  C   UNL     1      38.696  -3.117  16.175  0.00  0.00    +0.000 A 
BRANCH  11  18
ATOM     17  C   UNL     1      35.793  -3.725  14.310  0.00  0.00    +0.000 C 
ATOM     18  O   UNL     1      37.209  -3.788  14.451  0.00  0.00    +0.000 OA
ENDBRANCH  11  18
ENDBRANCH   1  16
BRANCH   3  19
ATOM     19  C   UNL     1      37.996   1.415  14.244  0.00  0.00    +0.000 C 
ATOM     20  O   UNL     1      37.349   1.582  13.203  0.00  0.00    +0.000 OA
ATOM     21  N   UNL     1      37.986   2.314  15.271  0.00  0.00    +0.000 NA
BRANCH  21  22
ATOM     22  C   UNL     1      37.340   3.619  15.539  0.00  0.00    +0.000 C 
ATOM     23  C   UNL     1      36.372   3.169  16.798  0.00  0.00    +0.000 C 
BRANCH  22  24
ATOM     24  C   UNL     1      38.373   4.441  16.336  0.00  0.00    +0.000 A 
ATOM     25  C   UNL     1      39.430   5.078  15.734  0.00  0.00    +0.000 A 
ATOM     26  C   UNL     1      40.346   5.821  16.496  0.00  0.00    +0.000 A 
ATOM     27  C   UNL     1      40.220   5.938  17.868  0.00  0.00    +0.000 A 
ATOM     28  C   UNL     1      39.151   5.294  18.456  0.00  0.00    +0.000 A 
ATOM     29  C   UNL     1      38.236   4.553  17.702  0.00  0.00    +0.000 A 
BRANCH  27  30
ATOM     30  C   UNL     1      41.215   6.694  18.687  0.00  0.00    +0.000 C 
ATOM     31  C   UNL     1      40.860   8.175  18.717  0.00  0.00    +0.000 C 
ATOM     32  C   UNL     1      42.626   6.582  18.170  0.00  0.00    +0.000 C 
ATOM     33  C   UNL     1      41.231   6.218  20.104  0.00  0.00    +0.000 C 
ENDBRANCH  27  30
ENDBRANCH  22  24
ENDBRANCH  21  22
ENDBRANCH   3  19
TORSDOF 6
ENDMDL
MODEL 5
REMARK VINA RESULT:      -8.3      2.377      8.452
REMARK  Name = 
REMARK  6 active torsions:
REMARK  status: ('A' for Active; 'I' for Inactive)
REMARK    1  A    between atoms: O_2  and  C_3
REMARK    2  A    between atoms: C_8  and  C_9
REMARK    3  A    between atoms: C_11  and  C_12
REMARK    4  A    between atoms: N_14  and  C_15
REMARK    5  A    between atoms: C_15  and  C_17
REMARK    6  A    between atoms: C_20  and  C_21
REMARK                            x       y       z     vdW  Elec       q    Type
REMARK                         _______ _______ _______ _____ _____    ______ ____
ROOT
ATOM      1  C   UNL     1      38.916   5.736  16.972  0.00  0.00    +0.000 A 
ATOM      2  C   UNL     1      38.488   4.408  16.946  0.00  0.00    +0.000 A 
ATOM      3  C   UNL     1      37.549   3.994  16.036  0.00  0.00    +0.000 A 
ATOM      4  C   UNL     1      37.010   4.872  15.123  0.00  0.00    +0.000 A 
ATOM      5  C   UNL     1      36.057   4.414  14.190  0.00  0.00    +0.000 A 
ATOM      6  C   UNL     1      35.589   5.351  13.314  0.00  0.00    +0.000 A 
ATOM      7  C   UNL     1      35.984   6.643  13.300  0.00  0.00    +0.000 A 
ATOM      8  C   UNL     1      36.928   7.041  14.246  0.00  0.00    +0.000 A 
ATOM      9  C   UNL     1      37.452   6.172  15.163  0.00  0.00    +0.000 A 
ATOM     10  N   UNL     1      38.381   6.572  16.074  0.00  0.00    +0.000 NA
ENDROOT
BRANCH   1  16
ATOM     11  C   UNL     1      41.163   6.406  17.852  0.00  0.00    +0.000 A 
ATOM     12  C   UNL     1      41.957   6.834  18.889  0.00  0.00    +0.000 A 
ATOM     13  C   UNL     1      41.469   7.111  20.182  0.00  0.00    +0.000 A 
ATOM     14  C   UNL     1      40.123   6.910  20.321  0.00  0.00    +0.000 A 
ATOM     15  C   UNL     1      39.317   6.483  19.300  0.00  0.00    +0.000 A 
ATOM     16  C   UNL     1      39.816   6.212  18.010  0.00  0.00    +0.000 A 
BRANCH  11  18
ATOM     17  C   UNL     1      42.757   6.986  16.108  0.00  0.00    +0.000 C 
ATOM     18  O   UNL     1      41.697   6.151  16.564  0.00  0.00    +0.000 OA
ENDBRANCH  11  18
ENDBRANCH   1  16
BRANCH   3  19
ATOM     19  C   UNL     1      36.963   2.625  16.073  0.00  0.00    +0.000 C 
ATOM     20  O   UNL     1      35.846   2.402  16.555  0.00  0.00    +0.000 OA
ATOM     21  N   UNL     1      37.740   1.645  15.526  0.00  0.00    +0.000 NA
BRANCH  21  22
ATOM     22  C   UNL     1      37.622   0.183  15.318  0.00  0.00    +0.000 C 
ATOM     23  C   UNL     1      36.907   0.195  13.830  0.00  0.00    +0.000 C 
BRANCH  22  24
ATOM     24  C   UNL     1      39.024  -0.292  14.886  0.00  0.00    +0.000 A 
ATOM     25  C   UNL     1      39.432  -1.597  15.015  0.00  0.00    +0.000 A 
ATOM     26  C   UNL     1      40.716  -1.990  14.605  0.00  0.00    +0.000 A 
ATOM     27  C   UNL     1      41.611  -1.086  14.063  0.00  0.00    +0.000 A 
ATOM     28  C   UNL     1      41.184   0.220  13.939  0.00  0.00    +0.000 A 
ATOM     29  C   UNL     1      39.907   0.616  14.345  0.00  0.00    +0.000 A 
BRANCH  27  30
ATOM     30  C   UNL     1      42.993  -1.492  13.664  0.00  0.00    +0.000 C 
ATOM     31  C   UNL     1      42.974  -2.875  13.025  0.00  0.00    +0.000 C 
ATOM     32  C   UNL     1      43.959  -1.544  14.819  0.00  0.00    +0.000 C 
ATOM     33  C   UNL     1      43.569  -0.550  12.656  0.00  0.00    +0.000 C 
ENDBRANCH  27  30
ENDBRANCH  22  24
ENDBRANCH  21  22
ENDBRANCH   3  19
TORSDOF 6
ENDMDL
MODEL 6
REMARK VINA RESULT:      -8.0      3.358      4.927
REMARK  Name = 
REMARK  6 active torsions:
REMARK  status: ('A' for Active; 'I' for Inactive)
REMARK    1  A    between atoms: O_2  and  C_3
REMARK    2  A    between atoms: C_8  and  C_9
REMARK    3  A    between atoms: C_11  and  C_12
REMARK    4  A    between atoms: N_14  and  C_15
REMARK    5  A    between atoms: C_15  and  C_17
REMARK    6  A    between atoms: C_20  and  C_21
REMARK                            x       y       z     vdW  Elec       q    Type
REMARK                         _______ _______ _______ _____ _____    ______ ____
ROOT
ATOM      1  C   UNL     1      37.045  -0.152  15.459  0.00  0.00    +0.000 A 
ATOM      2  C   UNL     1      38.078   0.626  14.936  0.00  0.00    +0.000 A 
ATOM      3  C   UNL     1      37.859   1.933  14.581  0.00  0.00    +0.000 A 
ATOM      4  C   UNL     1      36.620   2.512  14.736  0.00  0.00    +0.000 A 
ATOM      5  C   UNL     1      36.429   3.862  14.375  0.00  0.00    +0.000 A 
ATOM      6  C   UNL     1      35.172   4.356  14.578  0.00  0.00    +0.000 A 
ATOM      7  C   UNL     1      34.148   3.640  15.090  0.00  0.00    +0.000 A 
ATOM      8  C   UNL     1      34.393   2.309  15.428  0.00  0.00    +0.000 A 
ATOM      9  C   UNL     1      35.620   1.729  15.259  0.00  0.00    +0.000 A 
ATOM     10  N   UNL     1      35.849   0.432  15.604  0.00  0.00    +0.000 NA
ENDROOT
BRANCH   1  16
ATOM     11  C   UNL     1      37.690  -2.094  16.901  0.00  0.00    +0.000 A 
ATOM     12  C   UNL     1      37.869  -3.447  17.069  0.00  0.00    +0.000 A 
ATOM     13  C   UNL     1      37.602  -4.399  16.064  0.00  0.00    +0.000 A 
ATOM     14  C   UNL     1      37.147  -3.855  14.893  0.00  0.00    +0.000 A 
ATOM     15  C   UNL     1      36.964  -2.512  14.709  0.00  0.00    +0.000 A 
ATOM     16  C   UNL     1      37.233  -1.569  15.721  0.00  0.00    +0.000 A 
BRANCH  11  18
ATOM     17  C   UNL     1      37.060  -1.136  19.048  0.00  0.00    +0.000 C 
ATOM     18  O   UNL     1      37.962  -1.175  17.946  0.00  0.00    +0.000 OA
ENDBRANCH  11  18
ENDBRANCH   1  16
BRANCH   3  19
ATOM     19  C   UNL     1      38.895   2.747  13.886  0.00  0.00    +0.000 C 
ATOM     20  O   UNL     1      39.275   2.485  12.739  0.00  0.00    +0.000 OA
ATOM     21  N   UNL     1      39.381   3.803  14.602  0.00  0.00    +0.000 NA
BRANCH  21  22
ATOM     22  C   UNL     1      40.376   4.877  14.375  0.00  0.00    +0.000 C 
ATOM     23  C   UNL     1      39.372   6.024  13.742  0.00  0.00    +0.000 C 
BRANCH  22  24
ATOM     24  C   UNL     1      40.613   5.525  15.754  0.00  0.00    +0.000 A 
ATOM     25  C   UNL     1      41.749   6.240  16.047  0.00  0.00    +0.000 A 
ATOM     26  C   UNL     1      41.924   6.818  17.314  0.00  0.00    +0.000 A 
ATOM     27  C   UNL     1      40.969   6.691  18.306  0.00  0.00    +0.000 A 
ATOM     28  C   UNL     1      39.834   5.972  17.994  0.00  0.00    +0.000 A 
ATOM     29  C   UNL     1      39.655   5.394  16.734  0.00  0.00    +0.000 A 
BRANCH  27  30
ATOM     30  C   UNL     1      41.170   7.270  19.669  0.00  0.00    +0.000 C 
ATOM     31  C   UNL     1      39.826   7.498  20.351  0.00  0.00    +0.000 C 
ATOM     32  C   UNL     1      41.897   8.590  19.658  0.00  0.00    +0.000 C 
ATOM     33  C   UNL     1      41.955   6.347  20.544  0.00  0.00    +0.000 C 
ENDBRANCH  27  30
ENDBRANCH  22  24
ENDBRANCH  21  22
ENDBRANCH   3  19
TORSDOF 6
ENDMDL
MODEL 7
REMARK VINA RESULT:      -8.0      7.397     12.074
REMARK  Name = 
REMARK  6 active torsions:
REMARK  status: ('A' for Active; 'I' for Inactive)
REMARK    1  A    between atoms: O_2  and  C_3
REMARK    2  A    between atoms: C_8  and  C_9
REMARK    3  A    between atoms: C_11  and  C_12
REMARK    4  A    between atoms: N_14  and  C_15
REMARK    5  A    between atoms: C_15  and  C_17
REMARK    6  A    between atoms: C_20  and  C_21
REMARK                            x       y       z     vdW  Elec       q    Type
REMARK                         _______ _______ _______ _____ _____    ______ ____
ROOT
ATOM      1  C   UNL     1      41.991   7.282  20.253  0.00  0.00    +0.000 A 
ATOM      2  C   UNL     1      42.724   6.368  21.011  0.00  0.00    +0.000 A 
ATOM      3  C   UNL     1      43.716   6.797  21.856  0.00  0.00    +0.000 A 
ATOM      4  C   UNL     1      44.011   8.136  21.983  0.00  0.00    +0.000 A 
ATOM      5  C   UNL     1      45.027   8.547  22.870  0.00  0.00    +0.000 A 
ATOM      6  C   UNL     1      45.239   9.894  22.943  0.00  0.00    +0.000 A 
ATOM      7  C   UNL     1      44.547  10.811  22.233  0.00  0.00    +0.000 A 
ATOM      8  C   UNL     1      43.554  10.348  21.370  0.00  0.00    +0.000 A 
ATOM      9  C   UNL     1      43.272   9.017  21.232  0.00  0.00    +0.000 A 
ATOM     10  N   UNL     1      42.293   8.579  20.394  0.00  0.00    +0.000 NA
ENDROOT
BRANCH   1  16
ATOM     11  C   UNL     1      39.669   6.796  19.453  0.00  0.00    +0.000 A 
ATOM     12  C   UNL     1      38.817   6.330  18.480  0.00  0.00    +0.000 A 
ATOM     13  C   UNL     1      39.250   5.860  17.224  0.00  0.00    +0.000 A 
ATOM     14  C   UNL     1      40.608   5.902  17.055  0.00  0.00    +0.000 A 
ATOM     15  C   UNL     1      41.471   6.361  18.013  0.00  0.00    +0.000 A 
ATOM     16  C   UNL     1      41.026   6.831  19.265  0.00  0.00    +0.000 A 
BRANCH  11  18
ATOM     17  C   UNL     1      38.479   8.506  20.709  0.00  0.00    +0.000 C 
ATOM     18  O   UNL     1      39.186   7.270  20.699  0.00  0.00    +0.000 OA
ENDBRANCH  11  18
ENDBRANCH   1  16
BRANCH   3  19
ATOM     19  C   UNL     1      44.613   5.845  22.568  0.00  0.00    +0.000 C 
ATOM     20  O   UNL     1      45.526   5.244  21.989  0.00  0.00    +0.000 OA
ATOM     21  N   UNL     1      44.362   5.695  23.902  0.00  0.00    +0.000 NA
BRANCH  21  22
ATOM     22  C   UNL     1      44.943   4.909  25.014  0.00  0.00    +0.000 C 
ATOM     23  C   UNL     1      46.091   5.983  25.514  0.00  0.00    +0.000 C 
BRANCH  22  24
ATOM     24  C   UNL     1      43.962   5.066  26.194  0.00  0.00    +0.000 A 
ATOM     25  C   UNL     1      43.511   3.996  26.927  0.00  0.00    +0.000 A 
ATOM     26  C   UNL     1      42.622   4.183  27.997  0.00  0.00    +0.000 A 
ATOM     27  C   UNL     1      42.170   5.442  28.350  0.00  0.00    +0.000 A 
ATOM     28  C   UNL     1      42.635   6.506  27.606  0.00  0.00    +0.000 A 
ATOM     29  C   UNL     1      43.520   6.324  26.539  0.00  0.00    +0.000 A 
BRANCH  27  30
ATOM     30  C   UNL     1      41.192   5.641  29.463  0.00  0.00    +0.000 C 
ATOM     31  C   UNL     1      40.241   4.454  29.550  0.00  0.00    +0.000 C 
ATOM     32  C   UNL     1      40.350   6.881  29.305  0.00  0.00    +0.000 C 
ATOM     33  C   UNL     1      41.883   5.748  30.784  0.00  0.00    +0.000 C 
ENDBRANCH  27  30
ENDBRANCH  22  24
ENDBRANCH  21  22
ENDBRANCH   3  19
TORSDOF 6
ENDMDL
MODEL 8
REMARK VINA RESULT:      -7.9      3.737      6.629
REMARK  Name = 
REMARK  6 active torsions:
REMARK  status: ('A' for Active; 'I' for Inactive)
REMARK    1  A    between atoms: O_2  and  C_3
REMARK    2  A    between atoms: C_8  and  C_9
REMARK    3  A    between atoms: C_11  and  C_12
REMARK    4  A    between atoms: N_14  and  C_15
REMARK    5  A    between atoms: C_15  and  C_17
REMARK    6  A    between atoms: C_20  and  C_21
REMARK                            x       y       z     vdW  Elec       q    Type
REMARK                         _______ _______ _______ _____ _____    ______ ____
ROOT
ATOM      1  C   UNL     1      35.997  -1.955  15.325  0.00  0.00    +0.000 A 
ATOM      2  C   UNL     1      36.828  -1.522  14.290  0.00  0.00    +0.000 A 
ATOM      3  C   UNL     1      36.996  -0.182  14.043  0.00  0.00    +0.000 A 
ATOM      4  C   UNL     1      36.358   0.766  14.809  0.00  0.00    +0.000 A 
ATOM      5  C   UNL     1      36.561   2.135  14.539  0.00  0.00    +0.000 A 
ATOM      6  C   UNL     1      35.900   3.005  15.360  0.00  0.00    +0.000 A 
ATOM      7  C   UNL     1      35.096   2.626  16.376  0.00  0.00    +0.000 A 
ATOM      8  C   UNL     1      34.929   1.259  16.597  0.00  0.00    +0.000 A 
ATOM      9  C   UNL     1      35.551   0.316  15.825  0.00  0.00    +0.000 A 
ATOM     10  N   UNL     1      35.389  -1.015  16.059  0.00  0.00    +0.000 NA
ENDROOT
BRANCH   1  16
ATOM     11  C   UNL     1      36.413  -4.201  16.349  0.00  0.00    +0.000 A 
ATOM     12  C   UNL     1      36.105  -5.536  16.459  0.00  0.00    +0.000 A 
ATOM     13  C   UNL     1      35.062  -6.157  15.743  0.00  0.00    +0.000 A 
ATOM     14  C   UNL     1      34.376  -5.309  14.916  0.00  0.00    +0.000 A 
ATOM     15  C   UNL     1      34.670  -3.978  14.793  0.00  0.00    +0.000 A 
ATOM     16  C   UNL     1      35.715  -3.368  15.516  0.00  0.00    +0.000 A 
BRANCH  11  18
ATOM     17  C   UNL     1      38.802  -3.867  16.673  0.00  0.00    +0.000 C 
ATOM     18  O   UNL     1      37.466  -3.618  17.099  0.00  0.00    +0.000 OA
ENDBRANCH  11  18
ENDBRANCH   1  16
BRANCH   3  19
ATOM     19  C   UNL     1      37.755   0.313  12.861  0.00  0.00    +0.000 C 
ATOM     20  O   UNL     1      37.217   0.489  11.762  0.00  0.00    +0.000 OA
ATOM     21  N   UNL     1      39.077   0.568  13.084  0.00  0.00    +0.000 NA
BRANCH  21  22
ATOM     22  C   UNL     1      40.219   1.059  12.279  0.00  0.00    +0.000 C 
ATOM     23  C   UNL     1      40.233   2.629  12.787  0.00  0.00    +0.000 C 
BRANCH  22  24
ATOM     24  C   UNL     1      41.487   0.577  13.013  0.00  0.00    +0.000 A 
ATOM     25  C   UNL     1      41.469  -0.465  13.908  0.00  0.00    +0.000 A 
ATOM     26  C   UNL     1      42.647  -0.876  14.552  0.00  0.00    +0.000 A 
ATOM     27  C   UNL     1      43.859  -0.254  14.311  0.00  0.00    +0.000 A 
ATOM     28  C   UNL     1      43.859   0.788  13.407  0.00  0.00    +0.000 A 
ATOM     29  C   UNL     1      42.689   1.202  12.764  0.00  0.00    +0.000 A 
BRANCH  27  30
ATOM     30  C   UNL     1      45.107  -0.662  15.024  0.00  0.00    +0.000 C 
ATOM     31  C   UNL     1      45.204  -2.181  15.093  0.00  0.00    +0.000 C 
ATOM     32  C   UNL     1      45.187  -0.143  16.436  0.00  0.00    +0.000 C 
ATOM     33  C   UNL     1      46.327  -0.176  14.311  0.00  0.00    +0.000 C 
ENDBRANCH  27  30
ENDBRANCH  22  24
ENDBRANCH  21  22
ENDBRANCH   3  19
TORSDOF 6
ENDMDL
MODEL 9
REMARK VINA RESULT:      -7.7      5.319      8.117
REMARK  Name = 
REMARK  6 active torsions:
REMARK  status: ('A' for Active; 'I' for Inactive)
REMARK    1  A    between atoms: O_2  and  C_3
REMARK    2  A    between atoms: C_8  and  C_9
REMARK    3  A    between atoms: C_11  and  C_12
REMARK    4  A    between atoms: N_14  and  C_15
REMARK    5  A    between atoms: C_15  and  C_17
REMARK    6  A    between atoms: C_20  and  C_21
REMARK                            x       y       z     vdW  Elec       q    Type
REMARK                         _______ _______ _______ _____ _____    ______ ____
ROOT
ATOM      1  C   UNL     1      38.454   5.215  16.909  0.00  0.00    +0.000 A 
ATOM      2  C   UNL     1      38.044   5.870  15.747  0.00  0.00    +0.000 A 
ATOM      3  C   UNL     1      37.097   5.311  14.926  0.00  0.00    +0.000 A 
ATOM      4  C   UNL     1      36.523   4.097  15.229  0.00  0.00    +0.000 A 
ATOM      5  C   UNL     1      35.542   3.555  14.373  0.00  0.00    +0.000 A 
ATOM      6  C   UNL     1      35.017   2.355  14.761  0.00  0.00    +0.000 A 
ATOM      7  C   UNL     1      35.379   1.694  15.881  0.00  0.00    +0.000 A 
ATOM      8  C   UNL     1      36.355   2.276  16.690  0.00  0.00    +0.000 A 
ATOM      9  C   UNL     1      36.937   3.475  16.381  0.00  0.00    +0.000 A 
ATOM     10  N   UNL     1      37.880   4.037  17.185  0.00  0.00    +0.000 NA
ENDROOT
BRANCH   1  16
ATOM     11  C   UNL     1      40.794   6.037  17.247  0.00  0.00    +0.000 A 
ATOM     12  C   UNL     1      41.785   6.503  18.079  0.00  0.00    +0.000 A 
ATOM     13  C   UNL     1      41.608   6.713  19.461  0.00  0.00    +0.000 A 
ATOM     14  C   UNL     1      40.353   6.407  19.912  0.00  0.00    +0.000 A 
ATOM     15  C   UNL     1      39.355   5.941  19.099  0.00  0.00    +0.000 A 
ATOM     16  C   UNL     1      39.543   5.736  17.718  0.00  0.00    +0.000 A 
BRANCH  11  18
ATOM     17  C   UNL     1      42.170   6.458  15.285  0.00  0.00    +0.000 C 
ATOM     18  O   UNL     1      41.016   5.852  15.860  0.00  0.00    +0.000 OA
ENDBRANCH  11  18
ENDBRANCH   1  16
BRANCH   3  19
ATOM     19  C   UNL     1      36.743   5.908  13.608  0.00  0.00    +0.000 C 
ATOM     20  O   UNL     1      37.421   5.708  12.594  0.00  0.00    +0.000 OA
ATOM     21  N   UNL     1      35.614   6.676  13.602  0.00  0.00    +0.000 NA
BRANCH  21  22
ATOM     22  C   UNL     1      34.861   7.455  12.593  0.00  0.00    +0.000 C 
ATOM     23  C   UNL     1      33.360   6.817  12.847  0.00  0.00    +0.000 C 
BRANCH  22  24
ATOM     24  C   UNL     1      34.622   8.841  13.227  0.00  0.00    +0.000 A 
ATOM     25  C   UNL     1      34.698  10.006  12.503  0.00  0.00    +0.000 A 
ATOM     26  C   UNL     1      34.470  11.247  13.118  0.00  0.00    +0.000 A 
ATOM     27  C   UNL     1      34.163  11.343  14.463  0.00  0.00    +0.000 A 
ATOM     28  C   UNL     1      34.088  10.164  15.174  0.00  0.00    +0.000 A 
ATOM     29  C   UNL     1      34.315   8.925  14.567  0.00  0.00    +0.000 A 
BRANCH  27  30
ATOM     30  C   UNL     1      33.959  12.665  15.130  0.00  0.00    +0.000 C 
ATOM     31  C   UNL     1      35.049  13.643  14.710  0.00  0.00    +0.000 C 
ATOM     32  C   UNL     1      33.981  12.588  16.635  0.00  0.00    +0.000 C 
ATOM     33  C   UNL     1      32.650  13.275  14.744  0.00  0.00    +0.000 C 
ENDBRANCH  27  30
ENDBRANCH  22  24
ENDBRANCH  21  22
ENDBRANCH   3  19
TORSDOF 6
ENDMDL
MODEL 10
REMARK VINA RESULT:      -7.7     25.678     29.464
REMARK  Name = 
REMARK  6 active torsions:
REMARK  status: ('A' for Active; 'I' for Inactive)
REMARK    1  A    between atoms: O_2  and  C_3
REMARK    2  A    between atoms: C_8  and  C_9
REMARK    3  A    between atoms: C_11  and  C_12
REMARK    4  A    between atoms: N_14  and  C_15
REMARK    5  A    between atoms: C_15  and  C_17
REMARK    6  A    between atoms: C_20  and  C_21
REMARK                            x       y       z     vdW  Elec       q    Type
REMARK                         _______ _______ _______ _____ _____    ______ ____
ROOT
ATOM      1  C   UNL     1      24.453  19.129  33.420  0.00  0.00    +0.000 A 
ATOM      2  C   UNL     1      24.723  18.932  34.775  0.00  0.00    +0.000 A 
ATOM      3  C   UNL     1      25.075  17.692  35.245  0.00  0.00    +0.000 A 
ATOM      4  C   UNL     1      25.177  16.614  34.395  0.00  0.00    +0.000 A 
ATOM      5  C   UNL     1      25.554  15.355  34.905  0.00  0.00    +0.000 A 
ATOM      6  C   UNL     1      25.645  14.348  33.987  0.00  0.00    +0.000 A 
ATOM      7  C   UNL     1      25.401  14.499  32.667  0.00  0.00    +0.000 A 
ATOM      8  C   UNL     1      25.030  15.766  32.218  0.00  0.00    +0.000 A 
ATOM      9  C   UNL     1      24.914  16.834  33.065  0.00  0.00    +0.000 A 
ATOM     10  N   UNL     1      24.562  18.068  32.611  0.00  0.00    +0.000 NA
ENDROOT
BRANCH   1  16
ATOM     11  C   UNL     1      24.642  21.593  33.013  0.00  0.00    +0.000 A 
ATOM     12  C   UNL     1      24.100  22.770  32.554  0.00  0.00    +0.000 A 
ATOM     13  C   UNL     1      22.822  22.863  31.968  0.00  0.00    +0.000 A 
ATOM     14  C   UNL     1      22.156  21.669  31.897  0.00  0.00    +0.000 A 
ATOM     15  C   UNL     1      22.680  20.489  32.350  0.00  0.00    +0.000 A 
ATOM     16  C   UNL     1      23.960  20.407  32.933  0.00  0.00    +0.000 A 
BRANCH  11  18
ATOM     17  C   UNL     1      27.053  21.503  32.701  0.00  0.00    +0.000 C 
ATOM     18  O   UNL     1      25.938  21.546  33.586  0.00  0.00    +0.000 OA
ENDBRANCH  11  18
ENDBRANCH   1  16
BRANCH   3  19
ATOM     19  C   UNL     1      25.227  17.413  36.700  0.00  0.00    +0.000 C 
ATOM     20  O   UNL     1      24.312  17.618  37.507  0.00  0.00    +0.000 OA
ATOM     21  N   UNL     1      26.438  16.906  37.072  0.00  0.00    +0.000 NA
BRANCH  21  22
ATOM     22  C   UNL     1      27.069  16.472  38.340  0.00  0.00    +0.000 C 
ATOM     23  C   UNL     1      26.155  15.130  38.633  0.00  0.00    +0.000 C 
BRANCH  22  24
ATOM     24  C   UNL     1      28.379  15.766  37.935  0.00  0.00    +0.000 A 
ATOM     25  C   UNL     1      29.173  15.109  38.843  0.00  0.00    +0.000 A 
ATOM     26  C   UNL     1      30.356  14.474  38.433  0.00  0.00    +0.000 A 
ATOM     27  C   UNL     1      30.762  14.486  37.110  0.00  0.00    +0.000 A 
ATOM     28  C   UNL     1      29.951  15.147  36.212  0.00  0.00    +0.000 A 
ATOM     29  C   UNL     1      28.773  15.781  36.616  0.00  0.00    +0.000 A 
BRANCH  27  30
ATOM     30  C   UNL     1      32.041  13.846  36.676  0.00  0.00    +0.000 C 
ATOM     31  C   UNL     1      32.187  13.929  35.162  0.00  0.00    +0.000 C 
ATOM     32  C   UNL     1      32.144  12.392  37.057  0.00  0.00    +0.000 C 
ATOM     33  C   UNL     1      33.226  14.537  37.270  0.00  0.00    +0.000 C 
ENDBRANCH  27  30
ENDBRANCH  22  24
ENDBRANCH  21  22
ENDBRANCH   3  19
TORSDOF 6
ENDMDL
