MODEL 1
REMARK VINA RESULT:      -6.4      0.000      0.000
REMARK  Name = 
REMARK  2 active torsions:
REMARK  status: ('A' for Active; 'I' for Inactive)
REMARK    1  A    between atoms: C_6  and  C_7
REMARK    2  A    between atoms: C_7  and  C_8
REMARK                            x       y       z     vdW  Elec       q    Type
REMARK                         _______ _______ _______ _____ _____    ______ ____
ROOT
ATOM      1  O   UNL     1      27.601  23.564  21.508  0.00  0.00    +0.000 OA
ATOM      2  C   UNL     1      28.135  23.425  22.649  0.00  0.00    +0.000 A 
ATOM      3  N   UNL     1      29.441  23.681  22.844  0.00  0.00    +0.000 NA
ATOM      4  C   UNL     1      30.052  23.557  24.044  0.00  0.00    +0.000 A 
ATOM      5  C   UNL     1      29.302  23.142  25.152  0.00  0.00    +0.000 A 
ATOM      6  C   UNL     1      27.984  22.880  24.970  0.00  0.00    +0.000 A 
ATOM      7  N   UNL     1      27.423  23.029  23.705  0.00  0.00    +0.000 NA
ATOM      8  C   UNL     1      29.732  22.931  26.537  0.00  0.00    +0.000 C 
ATOM      9  C   UNL     1      31.197  22.823  26.764  0.00  0.00    +0.000 C 
ATOM     10  C   UNL     1      31.966  24.078  26.393  0.00  0.00    +0.000 C 
ATOM     11  C   UNL     1      32.488  23.816  24.973  0.00  0.00    +0.000 C 
ATOM     12  N   UNL     1      31.413  23.861  24.018  0.00  0.00    +0.000 NA
ENDROOT
BRANCH   6  13
ATOM     13  C   UNL     1      27.006  22.462  25.986  0.00  0.00    +0.000 C 
BRANCH  13  14
ATOM     14  C   UNL     1      26.320  23.593  26.700  0.00  0.00    +0.000 A 
ATOM     15  C   UNL     1      25.601  24.509  25.965  0.00  0.00    +0.000 A 
ATOM     16  C   UNL     1      24.838  25.480  26.545  0.00  0.00    +0.000 A 
ATOM     17  C   UNL     1      24.765  25.568  27.939  0.00  0.00    +0.000 A 
ATOM     18  C   UNL     1      25.487  24.644  28.699  0.00  0.00    +0.000 A 
ATOM     19  C   UNL     1      26.251  23.678  28.070  0.00  0.00    +0.000 A 
ATOM     20 CL   UNL     1      27.245  22.637  29.089  0.00  0.00    +0.000 Cl
ENDBRANCH  13  14
ENDBRANCH   6  13
TORSDOF 2
ENDMDL
MODEL 2
REMARK VINA RESULT:      -6.3     32.045     33.319
REMARK  Name = 
REMARK  2 active torsions:
REMARK  status: ('A' for Active; 'I' for Inactive)
REMARK    1  A    between atoms: C_6  and  C_7
REMARK    2  A    between atoms: C_7  and  C_8
REMARK                            x       y       z     vdW  Elec       q    Type
REMARK                         _______ _______ _______ _____ _____    ______ ____
ROOT
ATOM      1  O   UNL     1      17.874  -4.902  26.772  0.00  0.00    +0.000 OA
ATOM      2  C   UNL     1      18.595  -5.883  26.424  0.00  0.00    +0.000 A 
ATOM      3  N   UNL     1      19.774  -5.697  25.803  0.00  0.00    +0.000 NA
ATOM      4  C   UNL     1      20.583  -6.712  25.422  0.00  0.00    +0.000 A 
ATOM      5  C   UNL     1      20.189  -8.032  25.679  0.00  0.00    +0.000 A 
ATOM      6  C   UNL     1      19.002  -8.235  26.304  0.00  0.00    +0.000 A 
ATOM      7  N   UNL     1      18.222  -7.140  26.667  0.00  0.00    +0.000 NA
ATOM      8  C   UNL     1      20.880  -9.285  25.363  0.00  0.00    +0.000 C 
ATOM      9  C   UNL     1      21.978  -9.199  24.365  0.00  0.00    +0.000 C 
ATOM     10  C   UNL     1      23.132  -8.315  24.802  0.00  0.00    +0.000 C 
ATOM     11  C   UNL     1      22.858  -6.955  24.146  0.00  0.00    +0.000 C 
ATOM     12  N   UNL     1      21.750  -6.295  24.784  0.00  0.00    +0.000 NA
ENDROOT
BRANCH   6  13
ATOM     13  C   UNL     1      18.405  -9.520  26.697  0.00  0.00    +0.000 C 
BRANCH  13  14
ATOM     14  C   UNL     1      18.402  -9.786  28.176  0.00  0.00    +0.000 A 
ATOM     15  C   UNL     1      19.537  -9.510  28.906  0.00  0.00    +0.000 A 
ATOM     16  C   UNL     1      19.573  -9.592  30.268  0.00  0.00    +0.000 A 
ATOM     17  C   UNL     1      18.424  -9.966  30.972  0.00  0.00    +0.000 A 
ATOM     18  C   UNL     1      17.264 -10.246  30.246  0.00  0.00    +0.000 A 
ATOM     19  C   UNL     1      17.273 -10.155  28.866  0.00  0.00    +0.000 A 
ATOM     20 CL   UNL     1      15.817 -10.659  28.009  0.00  0.00    +0.000 Cl
ENDBRANCH  13  14
ENDBRANCH   6  13
TORSDOF 2
ENDMDL
MODEL 3
REMARK VINA RESULT:      -6.3     20.827     22.049
REMARK  Name = 
REMARK  2 active torsions:
REMARK  status: ('A' for Active; 'I' for Inactive)
REMARK    1  A    between atoms: C_6  and  C_7
REMARK    2  A    between atoms: C_7  and  C_8
REMARK                            x       y       z     vdW  Elec       q    Type
REMARK                         _______ _______ _______ _____ _____    ______ ____
ROOT
ATOM      1  O   UNL     1      24.578   4.494  13.783  0.00  0.00    +0.000 OA
ATOM      2  C   UNL     1      25.071   4.675  14.936  0.00  0.00    +0.000 A 
ATOM      3  N   UNL     1      26.093   5.527  15.132  0.00  0.00    +0.000 NA
ATOM      4  C   UNL     1      26.644   5.761  16.345  0.00  0.00    +0.000 A 
ATOM      5  C   UNL     1      26.137   5.091  17.466  0.00  0.00    +0.000 A 
ATOM      6  C   UNL     1      25.106   4.229  17.283  0.00  0.00    +0.000 A 
ATOM      7  N   UNL     1      24.590   4.038  16.004  0.00  0.00    +0.000 NA
ATOM      8  C   UNL     1      26.563   5.171  18.866  0.00  0.00    +0.000 C 
ATOM      9  C   UNL     1      27.896   5.779  19.117  0.00  0.00    +0.000 C 
ATOM     10  C   UNL     1      27.995   7.230  18.684  0.00  0.00    +0.000 C 
ATOM     11  C   UNL     1      28.632   7.183  17.288  0.00  0.00    +0.000 C 
ATOM     12  N   UNL     1      27.701   6.671  16.319  0.00  0.00    +0.000 NA
ENDROOT
BRANCH   6  13
ATOM     13  C   UNL     1      24.403   3.444  18.308  0.00  0.00    +0.000 C 
BRANCH  13  14
ATOM     14  C   UNL     1      24.049   2.043  17.894  0.00  0.00    +0.000 A 
ATOM     15  C   UNL     1      25.054   1.110  17.768  0.00  0.00    +0.000 A 
ATOM     16  C   UNL     1      24.806  -0.211  17.533  0.00  0.00    +0.000 A 
ATOM     17  C   UNL     1      23.486  -0.660  17.413  0.00  0.00    +0.000 A 
ATOM     18  C   UNL     1      22.455   0.275  17.541  0.00  0.00    +0.000 A 
ATOM     19  C   UNL     1      22.752   1.605  17.776  0.00  0.00    +0.000 A 
ATOM     20 CL   UNL     1      21.410   2.748  17.786  0.00  0.00    +0.000 Cl
ENDBRANCH  13  14
ENDBRANCH   6  13
TORSDOF 2
ENDMDL
MODEL 4
REMARK VINA RESULT:      -6.1      3.028      5.399
REMARK  Name = 
REMARK  2 active torsions:
REMARK  status: ('A' for Active; 'I' for Inactive)
REMARK    1  A    between atoms: C_6  and  C_7
REMARK    2  A    between atoms: C_7  and  C_8
REMARK                            x       y       z     vdW  Elec       q    Type
REMARK                         _______ _______ _______ _____ _____    ______ ____
ROOT
ATOM      1  O   UNL     1      23.881  26.493  25.232  0.00  0.00    +0.000 OA
ATOM      2  C   UNL     1      24.598  25.640  25.835  0.00  0.00    +0.000 A 
ATOM      3  N   UNL     1      24.722  25.656  27.174  0.00  0.00    +0.000 NA
ATOM      4  C   UNL     1      25.466  24.760  27.863  0.00  0.00    +0.000 A 
ATOM      5  C   UNL     1      26.149  23.758  27.162  0.00  0.00    +0.000 A 
ATOM      6  C   UNL     1      26.033  23.730  25.811  0.00  0.00    +0.000 A 
ATOM      7  N   UNL     1      25.249  24.685  25.170  0.00  0.00    +0.000 NA
ATOM      8  C   UNL     1      27.012  22.690  27.675  0.00  0.00    +0.000 C 
ATOM      9  C   UNL     1      27.503  22.851  29.069  0.00  0.00    +0.000 C 
ATOM     10  C   UNL     1      26.396  22.876  30.107  0.00  0.00    +0.000 C 
ATOM     11  C   UNL     1      26.131  24.365  30.366  0.00  0.00    +0.000 C 
ATOM     12  N   UNL     1      25.466  24.968  29.242  0.00  0.00    +0.000 NA
ENDROOT
BRANCH   6  13
ATOM     13  C   UNL     1      26.632  22.762  24.881  0.00  0.00    +0.000 C 
BRANCH  13  14
ATOM     14  C   UNL     1      27.600  23.354  23.894  0.00  0.00    +0.000 A 
ATOM     15  C   UNL     1      27.109  23.962  22.761  0.00  0.00    +0.000 A 
ATOM     16  C   UNL     1      27.906  24.643  21.887  0.00  0.00    +0.000 A 
ATOM     17  C   UNL     1      29.279  24.743  22.133  0.00  0.00    +0.000 A 
ATOM     18  C   UNL     1      29.792  24.133  23.281  0.00  0.00    +0.000 A 
ATOM     19  C   UNL     1      28.948  23.450  24.137  0.00  0.00    +0.000 A 
ATOM     20 CL   UNL     1      29.685  22.589  25.488  0.00  0.00    +0.000 Cl
ENDBRANCH  13  14
ENDBRANCH   6  13
TORSDOF 2
ENDMDL
MODEL 5
REMARK VINA RESULT:      -6.1      3.721      4.730
REMARK  Name = 
REMARK  2 active torsions:
REMARK  status: ('A' for Active; 'I' for Inactive)
REMARK    1  A    between atoms: C_6  and  C_7
REMARK    2  A    between atoms: C_7  and  C_8
REMARK                            x       y       z     vdW  Elec       q    Type
REMARK                         _______ _______ _______ _____ _____    ______ ____
ROOT
ATOM      1  O   UNL     1      25.797  23.516  30.508  0.00  0.00    +0.000 OA
ATOM      2  C   UNL     1      26.795  23.258  29.771  0.00  0.00    +0.000 A 
ATOM      3  N   UNL     1      28.044  23.235  30.270  0.00  0.00    +0.000 NA
ATOM      4  C   UNL     1      29.138  22.954  29.525  0.00  0.00    +0.000 A 
ATOM      5  C   UNL     1      28.981  22.670  28.162  0.00  0.00    +0.000 A 
ATOM      6  C   UNL     1      27.727  22.690  27.645  0.00  0.00    +0.000 A 
ATOM      7  N   UNL     1      26.648  22.988  28.474  0.00  0.00    +0.000 NA
ATOM      8  C   UNL     1      29.999  22.346  27.159  0.00  0.00    +0.000 C 
ATOM      9  C   UNL     1      31.406  22.662  27.520  0.00  0.00    +0.000 C 
ATOM     10  C   UNL     1      31.912  21.895  28.728  0.00  0.00    +0.000 C 
ATOM     11  C   UNL     1      31.727  22.856  29.911  0.00  0.00    +0.000 C 
ATOM     12  N   UNL     1      30.334  22.998  30.241  0.00  0.00    +0.000 NA
ENDROOT
BRANCH   6  13
ATOM     13  C   UNL     1      27.325  22.399  26.261  0.00  0.00    +0.000 C 
BRANCH  13  14
ATOM     14  C   UNL     1      27.098  23.613  25.405  0.00  0.00    +0.000 A 
ATOM     15  C   UNL     1      26.080  24.481  25.733  0.00  0.00    +0.000 A 
ATOM     16  C   UNL     1      25.894  25.671  25.093  0.00  0.00    +0.000 A 
ATOM     17  C   UNL     1      26.761  26.049  24.062  0.00  0.00    +0.000 A 
ATOM     18  C   UNL     1      27.800  25.181  23.720  0.00  0.00    +0.000 A 
ATOM     19  C   UNL     1      27.949  23.982  24.392  0.00  0.00    +0.000 A 
ATOM     20 CL   UNL     1      29.195  22.876  23.813  0.00  0.00    +0.000 Cl
ENDBRANCH  13  14
ENDBRANCH   6  13
TORSDOF 2
ENDMDL
MODEL 6
REMARK VINA RESULT:      -6.1      2.642      4.454
REMARK  Name = 
REMARK  2 active torsions:
REMARK  status: ('A' for Active; 'I' for Inactive)
REMARK    1  A    between atoms: C_6  and  C_7
REMARK    2  A    between atoms: C_7  and  C_8
REMARK                            x       y       z     vdW  Elec       q    Type
REMARK                         _______ _______ _______ _____ _____    ______ ____
ROOT
ATOM      1  O   UNL     1      25.710  26.807  26.813  0.00  0.00    +0.000 OA
ATOM      2  C   UNL     1      26.297  26.040  25.993  0.00  0.00    +0.000 A 
ATOM      3  N   UNL     1      26.674  26.477  24.777  0.00  0.00    +0.000 NA
ATOM      4  C   UNL     1      27.313  25.699  23.873  0.00  0.00    +0.000 A 
ATOM      5  C   UNL     1      27.605  24.369  24.202  0.00  0.00    +0.000 A 
ATOM      6  C   UNL     1      27.231  23.916  25.424  0.00  0.00    +0.000 A 
ATOM      7  N   UNL     1      26.576  24.774  26.303  0.00  0.00    +0.000 NA
ATOM      8  C   UNL     1      28.276  23.341  23.401  0.00  0.00    +0.000 C 
ATOM      9  C   UNL     1      28.385  23.608  21.942  0.00  0.00    +0.000 C 
ATOM     10  C   UNL     1      29.206  24.840  21.609  0.00  0.00    +0.000 C 
ATOM     11  C   UNL     1      28.175  25.961  21.413  0.00  0.00    +0.000 C 
ATOM     12  N   UNL     1      27.599  26.349  22.673  0.00  0.00    +0.000 NA
ENDROOT
BRANCH   6  13
ATOM     13  C   UNL     1      27.456  22.578  25.989  0.00  0.00    +0.000 C 
BRANCH  13  14
ATOM     14  C   UNL     1      28.608  22.487  26.951  0.00  0.00    +0.000 A 
ATOM     15  C   UNL     1      29.884  22.345  26.453  0.00  0.00    +0.000 A 
ATOM     16  C   UNL     1      30.992  22.394  27.247  0.00  0.00    +0.000 A 
ATOM     17  C   UNL     1      30.853  22.598  28.624  0.00  0.00    +0.000 A 
ATOM     18  C   UNL     1      29.565  22.747  29.144  0.00  0.00    +0.000 A 
ATOM     19  C   UNL     1      28.469  22.687  28.303  0.00  0.00    +0.000 A 
ATOM     20 CL   UNL     1      26.871  22.742  29.047  0.00  0.00    +0.000 Cl
ENDBRANCH  13  14
ENDBRANCH   6  13
TORSDOF 2
ENDMDL
MODEL 7
REMARK VINA RESULT:      -6.0     14.145     15.607
REMARK  Name = 
REMARK  2 active torsions:
REMARK  status: ('A' for Active; 'I' for Inactive)
REMARK    1  A    between atoms: C_6  and  C_7
REMARK    2  A    between atoms: C_7  and  C_8
REMARK                            x       y       z     vdW  Elec       q    Type
REMARK                         _______ _______ _______ _____ _____    ______ ____
ROOT
ATOM      1  O   UNL     1      34.065  23.464   8.425  0.00  0.00    +0.000 OA
ATOM      2  C   UNL     1      34.277  22.621   9.348  0.00  0.00    +0.000 A 
ATOM      3  N   UNL     1      35.489  22.504   9.920  0.00  0.00    +0.000 NA
ATOM      4  C   UNL     1      35.760  21.628  10.915  0.00  0.00    +0.000 A 
ATOM      5  C   UNL     1      34.739  20.792  11.386  0.00  0.00    +0.000 A 
ATOM      6  C   UNL     1      33.512  20.900  10.818  0.00  0.00    +0.000 A 
ATOM      7  N   UNL     1      33.307  21.825   9.797  0.00  0.00    +0.000 NA
ATOM      8  C   UNL     1      34.785  19.772  12.436  0.00  0.00    +0.000 C 
ATOM      9  C   UNL     1      36.137  19.315  12.853  0.00  0.00    +0.000 C 
ATOM     10  C   UNL     1      36.993  20.414  13.455  0.00  0.00    +0.000 C 
ATOM     11  C   UNL     1      37.867  20.913  12.297  0.00  0.00    +0.000 C 
ATOM     12  N   UNL     1      37.083  21.664  11.353  0.00  0.00    +0.000 NA
ENDROOT
BRANCH   6  13
ATOM     13  C   UNL     1      32.295  20.152  11.167  0.00  0.00    +0.000 C 
BRANCH  13  14
ATOM     14  C   UNL     1      31.121  21.007  11.555  0.00  0.00    +0.000 A 
ATOM     15  C   UNL     1      31.177  21.725  12.729  0.00  0.00    +0.000 A 
ATOM     16  C   UNL     1      30.218  22.627  13.085  0.00  0.00    +0.000 A 
ATOM     17  C   UNL     1      29.127  22.852  12.240  0.00  0.00    +0.000 A 
ATOM     18  C   UNL     1      29.057  22.134  11.043  0.00  0.00    +0.000 A 
ATOM     19  C   UNL     1      30.050  21.226  10.724  0.00  0.00    +0.000 A 
ATOM     20 CL   UNL     1      29.824  20.255   9.269  0.00  0.00    +0.000 Cl
ENDBRANCH  13  14
ENDBRANCH   6  13
TORSDOF 2
ENDMDL
MODEL 8
REMARK VINA RESULT:      -5.9      1.719      2.283
REMARK  Name = 
REMARK  2 active torsions:
REMARK  status: ('A' for Active; 'I' for Inactive)
REMARK    1  A    between atoms: C_6  and  C_7
REMARK    2  A    between atoms: C_7  and  C_8
REMARK                            x       y       z     vdW  Elec       q    Type
REMARK                         _______ _______ _______ _____ _____    ______ ____
ROOT
ATOM      1  O   UNL     1      29.809  24.009  22.531  0.00  0.00    +0.000 OA
ATOM      2  C   UNL     1      30.024  23.743  23.752  0.00  0.00    +0.000 A 
ATOM      3  N   UNL     1      31.171  24.105  24.353  0.00  0.00    +0.000 NA
ATOM      4  C   UNL     1      31.441  23.853  25.654  0.00  0.00    +0.000 A 
ATOM      5  C   UNL     1      30.487  23.182  26.431  0.00  0.00    +0.000 A 
ATOM      6  C   UNL     1      29.325  22.812  25.838  0.00  0.00    +0.000 A 
ATOM      7  N   UNL     1      29.118  23.105  24.493  0.00  0.00    +0.000 NA
ATOM      8  C   UNL     1      30.547  22.795  27.843  0.00  0.00    +0.000 C 
ATOM      9  C   UNL     1      31.892  22.812  28.476  0.00  0.00    +0.000 C 
ATOM     10  C   UNL     1      32.533  24.186  28.508  0.00  0.00    +0.000 C 
ATOM     11  C   UNL     1      33.459  24.220  27.284  0.00  0.00    +0.000 C 
ATOM     12  N   UNL     1      32.694  24.303  26.068  0.00  0.00    +0.000 NA
ENDROOT
BRANCH   6  13
ATOM     13  C   UNL     1      28.181  22.129  26.459  0.00  0.00    +0.000 C 
BRANCH  13  14
ATOM     14  C   UNL     1      27.118  23.046  26.998  0.00  0.00    +0.000 A 
ATOM     15  C   UNL     1      27.223  23.501  28.293  0.00  0.00    +0.000 A 
ATOM     16  C   UNL     1      26.381  24.441  28.813  0.00  0.00    +0.000 A 
ATOM     17  C   UNL     1      25.365  24.979  28.016  0.00  0.00    +0.000 A 
ATOM     18  C   UNL     1      25.247  24.529  26.699  0.00  0.00    +0.000 A 
ATOM     19  C   UNL     1      26.120  23.572  26.215  0.00  0.00    +0.000 A 
ATOM     20 CL   UNL     1      25.824  22.951  24.591  0.00  0.00    +0.000 Cl
ENDBRANCH  13  14
ENDBRANCH   6  13
TORSDOF 2
ENDMDL
MODEL 9
REMARK VINA RESULT:      -5.8     33.294     34.751
REMARK  Name = 
REMARK  2 active torsions:
REMARK  status: ('A' for Active; 'I' for Inactive)
REMARK    1  A    between atoms: C_6  and  C_7
REMARK    2  A    between atoms: C_7  and  C_8
REMARK                            x       y       z     vdW  Elec       q    Type
REMARK                         _______ _______ _______ _____ _____    ______ ____
ROOT
ATOM      1  O   UNL     1      15.016 -10.943  25.652  0.00  0.00    +0.000 OA
ATOM      2  C   UNL     1      15.843 -10.690  26.580  0.00  0.00    +0.000 A 
ATOM      3  N   UNL     1      15.565 -10.989  27.861  0.00  0.00    +0.000 NA
ATOM      4  C   UNL     1      16.419 -10.749  28.883  0.00  0.00    +0.000 A 
ATOM      5  C   UNL     1      17.660 -10.159  28.610  0.00  0.00    +0.000 A 
ATOM      6  C   UNL     1      17.953  -9.853  27.322  0.00  0.00    +0.000 A 
ATOM      7  N   UNL     1      17.024 -10.129  26.323  0.00  0.00    +0.000 NA
ATOM      8  C   UNL     1      18.740  -9.800  29.534  0.00  0.00    +0.000 C 
ATOM      9  C   UNL     1      18.382  -9.742  30.976  0.00  0.00    +0.000 C 
ATOM     10  C   UNL     1      17.924 -11.073  31.544  0.00  0.00    +0.000 C 
ATOM     11  C   UNL     1      16.391 -11.019  31.488  0.00  0.00    +0.000 C 
ATOM     12  N   UNL     1      15.925 -11.125  30.131  0.00  0.00    +0.000 NA
ENDROOT
BRANCH   6  13
ATOM     13  C   UNL     1      19.194  -9.259  26.803  0.00  0.00    +0.000 C 
BRANCH  13  14
ATOM     14  C   UNL     1      19.125  -7.779  26.548  0.00  0.00    +0.000 A 
ATOM     15  C   UNL     1      18.165  -7.035  27.195  0.00  0.00    +0.000 A 
ATOM     16  C   UNL     1      18.120  -5.673  27.126  0.00  0.00    +0.000 A 
ATOM     17  C   UNL     1      19.080  -4.983  26.377  0.00  0.00    +0.000 A 
ATOM     18  C   UNL     1      20.062  -5.725  25.717  0.00  0.00    +0.000 A 
ATOM     19  C   UNL     1      20.067  -7.104  25.810  0.00  0.00    +0.000 A 
ATOM     20 CL   UNL     1      21.249  -7.981  24.839  0.00  0.00    +0.000 Cl
ENDBRANCH  13  14
ENDBRANCH   6  13
TORSDOF 2
ENDMDL
MODEL 10
REMARK VINA RESULT:      -5.8     31.830     32.996
REMARK  Name = 
REMARK  2 active torsions:
REMARK  status: ('A' for Active; 'I' for Inactive)
REMARK    1  A    between atoms: C_6  and  C_7
REMARK    2  A    between atoms: C_7  and  C_8
REMARK                            x       y       z     vdW  Elec       q    Type
REMARK                         _______ _______ _______ _____ _____    ______ ____
ROOT
ATOM      1  O   UNL     1      18.401 -10.165  22.419  0.00  0.00    +0.000 OA
ATOM      2  C   UNL     1      19.516  -9.851  22.933  0.00  0.00    +0.000 A 
ATOM      3  N   UNL     1      20.644  -9.844  22.200  0.00  0.00    +0.000 NA
ATOM      4  C   UNL     1      21.854  -9.505  22.701  0.00  0.00    +0.000 A 
ATOM      5  C   UNL     1      21.957  -9.140  24.050  0.00  0.00    +0.000 A 
ATOM      6  C   UNL     1      20.827  -9.143  24.800  0.00  0.00    +0.000 A 
ATOM      7  N   UNL     1      19.616  -9.504  24.216  0.00  0.00    +0.000 NA
ATOM      8  C   UNL     1      23.141  -8.743  24.816  0.00  0.00    +0.000 C 
ATOM      9  C   UNL     1      24.459  -9.064  24.208  0.00  0.00    +0.000 C 
ATOM     10  C   UNL     1      24.704  -8.368  22.882  0.00  0.00    +0.000 C 
ATOM     11  C   UNL     1      24.317  -9.401  21.815  0.00  0.00    +0.000 C 
ATOM     12  N   UNL     1      22.890  -9.579  21.771  0.00  0.00    +0.000 NA
ENDROOT
BRANCH   6  13
ATOM     13  C   UNL     1      20.693  -8.773  26.217  0.00  0.00    +0.000 C 
BRANCH  13  14
ATOM     14  C   UNL     1      19.895  -7.523  26.467  0.00  0.00    +0.000 A 
ATOM     15  C   UNL     1      20.298  -6.345  25.879  0.00  0.00    +0.000 A 
ATOM     16  C   UNL     1      19.557  -5.201  25.942  0.00  0.00    +0.000 A 
ATOM     17  C   UNL     1      18.335  -5.201  26.623  0.00  0.00    +0.000 A 
ATOM     18  C   UNL     1      17.912  -6.390  27.223  0.00  0.00    +0.000 A 
ATOM     19  C   UNL     1      18.697  -7.525  27.138  0.00  0.00    +0.000 A 
ATOM     20 CL   UNL     1      18.168  -8.947  28.037  0.00  0.00    +0.000 Cl
ENDBRANCH  13  14
ENDBRANCH   6  13
TORSDOF 2
ENDMDL
