MODEL 1
REMARK VINA RESULT:      -6.2      0.000      0.000
REMARK  Name = 
REMARK  4 active torsions:
REMARK  status: ('A' for Active; 'I' for Inactive)
REMARK    1  A    between atoms: O_2  and  C_3
REMARK    2  A    between atoms: N_5  and  C_6
REMARK    3  A    between atoms: N_10  and  C_11
REMARK    4  A    between atoms: C_11  and  C_12
REMARK                            x       y       z     vdW  Elec       q    Type
REMARK                         _______ _______ _______ _____ _____    ______ ____
ROOT
ATOM      1  C   UNL     1      28.815  23.761  22.792  0.00  0.00    +0.000 A 
ATOM      2  C   UNL     1      29.518  23.661  23.972  0.00  0.00    +0.000 A 
ATOM      3  C   UNL     1      30.996  23.841  24.097  0.00  0.00    +0.000 C 
ATOM      4  N   UNL     1      28.614  23.378  24.925  0.00  0.00    +0.000 NA
ATOM      5  N   UNL     1      27.395  23.295  24.427  0.00  0.00    +0.000 N 
ATOM      6  C   UNL     1      27.497  23.529  23.110  0.00  0.00    +0.000 A 
ATOM      7  C   UNL     1      26.402  23.551  22.081  0.00  0.00    +0.000 C 
ENDROOT
BRANCH   1  10
ATOM      8  C   UNL     1      29.360  25.386  20.973  0.00  0.00    +0.000 C 
ATOM      9  O   UNL     1      28.887  26.285  21.701  0.00  0.00    +0.000 OA
ATOM     10  N   UNL     1      29.352  24.053  21.484  0.00  0.00    +0.000 NA
BRANCH   8  12
ATOM     11  C   UNL     1      30.056  27.038  19.284  0.00  0.00    +0.000 C 
ATOM     12  O   UNL     1      29.869  25.705  19.720  0.00  0.00    +0.000 OA
ENDBRANCH   8  12
ENDBRANCH   1  10
BRANCH   5  13
ATOM     13  C   UNL     1      26.149  23.008  25.125  0.00  0.00    +0.000 C 
BRANCH  13  14
ATOM     14  C   UNL     1      25.586  24.211  25.763  0.00  0.00    +0.000 A 
ATOM     15  C   UNL     1      24.955  25.166  25.016  0.00  0.00    +0.000 A 
ATOM     16  C   UNL     1      24.417  26.302  25.583  0.00  0.00    +0.000 A 
ATOM     17  C   UNL     1      24.528  26.468  26.952  0.00  0.00    +0.000 A 
ATOM     18  C   UNL     1      25.169  25.497  27.705  0.00  0.00    +0.000 A 
ATOM     19  C   UNL     1      25.705  24.360  27.128  0.00  0.00    +0.000 A 
ATOM     20  C   UNL     1      26.389  23.338  27.982  0.00  0.00    +0.000 C 
ENDBRANCH  13  14
ENDBRANCH   5  13
TORSDOF 4
ENDMDL
MODEL 2
REMARK VINA RESULT:      -6.1      1.699      2.716
REMARK  Name = 
REMARK  4 active torsions:
REMARK  status: ('A' for Active; 'I' for Inactive)
REMARK    1  A    between atoms: O_2  and  C_3
REMARK    2  A    between atoms: N_5  and  C_6
REMARK    3  A    between atoms: N_10  and  C_11
REMARK    4  A    between atoms: C_11  and  C_12
REMARK                            x       y       z     vdW  Elec       q    Type
REMARK                         _______ _______ _______ _____ _____    ______ ____
ROOT
ATOM      1  C   UNL     1      28.436  24.056  24.401  0.00  0.00    +0.000 A 
ATOM      2  C   UNL     1      28.859  23.057  25.249  0.00  0.00    +0.000 A 
ATOM      3  C   UNL     1      30.187  22.378  25.165  0.00  0.00    +0.000 C 
ATOM      4  N   UNL     1      27.854  22.850  26.117  0.00  0.00    +0.000 NA
ATOM      5  N   UNL     1      26.832  23.648  25.873  0.00  0.00    +0.000 N 
ATOM      6  C   UNL     1      27.171  24.401  24.816  0.00  0.00    +0.000 A 
ATOM      7  C   UNL     1      26.361  25.469  24.136  0.00  0.00    +0.000 C 
ENDROOT
BRANCH   1  10
ATOM      8  C   UNL     1      28.989  24.145  21.965  0.00  0.00    +0.000 C 
ATOM      9  O   UNL     1      28.170  23.216  21.795  0.00  0.00    +0.000 OA
ATOM     10  N   UNL     1      29.171  24.626  23.297  0.00  0.00    +0.000 NA
BRANCH   8  12
ATOM     11  C   UNL     1      29.491  25.994  20.418  0.00  0.00    +0.000 C 
ATOM     12  O   UNL     1      29.677  24.669  20.878  0.00  0.00    +0.000 OA
ENDBRANCH   8  12
ENDBRANCH   1  10
BRANCH   5  13
ATOM     13  C   UNL     1      25.562  23.734  26.581  0.00  0.00    +0.000 C 
BRANCH  13  14
ATOM     14  C   UNL     1      25.745  24.089  27.999  0.00  0.00    +0.000 A 
ATOM     15  C   UNL     1      26.320  23.206  28.870  0.00  0.00    +0.000 A 
ATOM     16  C   UNL     1      26.506  23.509  30.203  0.00  0.00    +0.000 A 
ATOM     17  C   UNL     1      26.092  24.747  30.659  0.00  0.00    +0.000 A 
ATOM     18  C   UNL     1      25.509  25.638  29.772  0.00  0.00    +0.000 A 
ATOM     19  C   UNL     1      25.327  25.327  28.437  0.00  0.00    +0.000 A 
ATOM     20  C   UNL     1      24.693  26.323  27.515  0.00  0.00    +0.000 C 
ENDBRANCH  13  14
ENDBRANCH   5  13
TORSDOF 4
ENDMDL
MODEL 3
REMARK VINA RESULT:      -6.0      2.078      3.280
REMARK  Name = 
REMARK  4 active torsions:
REMARK  status: ('A' for Active; 'I' for Inactive)
REMARK    1  A    between atoms: O_2  and  C_3
REMARK    2  A    between atoms: N_5  and  C_6
REMARK    3  A    between atoms: N_10  and  C_11
REMARK    4  A    between atoms: C_11  and  C_12
REMARK                            x       y       z     vdW  Elec       q    Type
REMARK                         _______ _______ _______ _____ _____    ______ ____
ROOT
ATOM      1  C   UNL     1      27.967  22.939  24.238  0.00  0.00    +0.000 A 
ATOM      2  C   UNL     1      26.630  23.045  24.550  0.00  0.00    +0.000 A 
ATOM      3  C   UNL     1      25.546  23.315  23.558  0.00  0.00    +0.000 C 
ATOM      4  N   UNL     1      26.538  22.862  25.878  0.00  0.00    +0.000 NA
ATOM      5  N   UNL     1      27.721  22.647  26.420  0.00  0.00    +0.000 N 
ATOM      6  C   UNL     1      28.618  22.691  25.424  0.00  0.00    +0.000 A 
ATOM      7  C   UNL     1      30.108  22.509  25.504  0.00  0.00    +0.000 C 
ENDROOT
BRANCH   1  10
ATOM      8  C   UNL     1      29.020  24.326  22.445  0.00  0.00    +0.000 C 
ATOM      9  O   UNL     1      28.879  25.315  23.196  0.00  0.00    +0.000 OA
ATOM     10  N   UNL     1      28.565  23.062  22.930  0.00  0.00    +0.000 NA
BRANCH   8  12
ATOM     11  C   UNL     1      29.490  25.676  20.440  0.00  0.00    +0.000 C 
ATOM     12  O   UNL     1      29.601  24.484  21.194  0.00  0.00    +0.000 OA
ENDBRANCH   8  12
ENDBRANCH   1  10
BRANCH   5  13
ATOM     13  C   UNL     1      28.046  22.406  27.819  0.00  0.00    +0.000 C 
BRANCH  13  14
ATOM     14  C   UNL     1      27.522  23.466  28.697  0.00  0.00    +0.000 A 
ATOM     15  C   UNL     1      27.752  24.784  28.413  0.00  0.00    +0.000 A 
ATOM     16  C   UNL     1      27.274  25.800  29.215  0.00  0.00    +0.000 A 
ATOM     17  C   UNL     1      26.543  25.461  30.338  0.00  0.00    +0.000 A 
ATOM     18  C   UNL     1      26.312  24.124  30.621  0.00  0.00    +0.000 A 
ATOM     19  C   UNL     1      26.794  23.111  29.812  0.00  0.00    +0.000 A 
ATOM     20  C   UNL     1      26.519  21.681  30.158  0.00  0.00    +0.000 C 
ENDBRANCH  13  14
ENDBRANCH   5  13
TORSDOF 4
ENDMDL
MODEL 4
REMARK VINA RESULT:      -5.8      2.506      4.023
REMARK  Name = 
REMARK  4 active torsions:
REMARK  status: ('A' for Active; 'I' for Inactive)
REMARK    1  A    between atoms: O_2  and  C_3
REMARK    2  A    between atoms: N_5  and  C_6
REMARK    3  A    between atoms: N_10  and  C_11
REMARK    4  A    between atoms: C_11  and  C_12
REMARK                            x       y       z     vdW  Elec       q    Type
REMARK                         _______ _______ _______ _____ _____    ______ ____
ROOT
ATOM      1  C   UNL     1      28.607  24.256  24.385  0.00  0.00    +0.000 A 
ATOM      2  C   UNL     1      27.441  24.740  24.934  0.00  0.00    +0.000 A 
ATOM      3  C   UNL     1      26.646  25.875  24.375  0.00  0.00    +0.000 C 
ATOM      4  N   UNL     1      27.202  23.996  26.026  0.00  0.00    +0.000 NA
ATOM      5  N   UNL     1      28.135  23.079  26.201  0.00  0.00    +0.000 N 
ATOM      6  C   UNL     1      29.013  23.223  25.196  0.00  0.00    +0.000 A 
ATOM      7  C   UNL     1      30.261  22.428  24.929  0.00  0.00    +0.000 C 
ENDROOT
BRANCH   1  10
ATOM      8  C   UNL     1      28.966  24.189  21.912  0.00  0.00    +0.000 C 
ATOM      9  O   UNL     1      28.105  23.285  21.861  0.00  0.00    +0.000 OA
ATOM     10  N   UNL     1      29.271  24.736  23.196  0.00  0.00    +0.000 NA
BRANCH   8  12
ATOM     11  C   UNL     1      29.582  25.980  20.338  0.00  0.00    +0.000 C 
ATOM     12  O   UNL     1      29.583  24.626  20.746  0.00  0.00    +0.000 OA
ENDBRANCH   8  12
ENDBRANCH   1  10
BRANCH   5  13
ATOM     13  C   UNL     1      28.240  22.083  27.258  0.00  0.00    +0.000 C 
BRANCH  13  14
ATOM     14  C   UNL     1      28.821  22.645  28.489  0.00  0.00    +0.000 A 
ATOM     15  C   UNL     1      30.174  22.791  28.618  0.00  0.00    +0.000 A 
ATOM     16  C   UNL     1      30.749  23.315  29.758  0.00  0.00    +0.000 A 
ATOM     17  C   UNL     1      29.919  23.700  30.794  0.00  0.00    +0.000 A 
ATOM     18  C   UNL     1      28.548  23.550  30.658  0.00  0.00    +0.000 A 
ATOM     19  C   UNL     1      27.979  23.024  29.512  0.00  0.00    +0.000 A 
ATOM     20  C   UNL     1      26.492  22.882  29.410  0.00  0.00    +0.000 C 
ENDBRANCH  13  14
ENDBRANCH   5  13
TORSDOF 4
ENDMDL
MODEL 5
REMARK VINA RESULT:      -5.6      2.597      3.827
REMARK  Name = 
REMARK  4 active torsions:
REMARK  status: ('A' for Active; 'I' for Inactive)
REMARK    1  A    between atoms: O_2  and  C_3
REMARK    2  A    between atoms: N_5  and  C_6
REMARK    3  A    between atoms: N_10  and  C_11
REMARK    4  A    between atoms: C_11  and  C_12
REMARK                            x       y       z     vdW  Elec       q    Type
REMARK                         _______ _______ _______ _____ _____    ______ ____
ROOT
ATOM      1  C   UNL     1      28.849  24.724  22.875  0.00  0.00    +0.000 A 
ATOM      2  C   UNL     1      27.886  23.745  22.772  0.00  0.00    +0.000 A 
ATOM      3  C   UNL     1      26.699  23.813  21.868  0.00  0.00    +0.000 C 
ATOM      4  N   UNL     1      28.245  22.773  23.628  0.00  0.00    +0.000 NA
ATOM      5  N   UNL     1      29.365  23.073  24.259  0.00  0.00    +0.000 N 
ATOM      6  C   UNL     1      29.754  24.275  23.808  0.00  0.00    +0.000 A 
ATOM      7  C   UNL     1      30.967  25.070  24.204  0.00  0.00    +0.000 C 
ENDROOT
BRANCH   1  10
ATOM      8  C   UNL     1      29.412  26.029  20.818  0.00  0.00    +0.000 C 
ATOM      9  O   UNL     1      29.813  24.960  20.310  0.00  0.00    +0.000 OA
ATOM     10  N   UNL     1      28.899  25.971  22.150  0.00  0.00    +0.000 NA
BRANCH   8  12
ATOM     11  C   UNL     1      28.937  28.431  20.558  0.00  0.00    +0.000 C 
ATOM     12  O   UNL     1      29.475  27.209  20.090  0.00  0.00    +0.000 OA
ENDBRANCH   8  12
ENDBRANCH   1  10
BRANCH   5  13
ATOM     13  C   UNL     1      30.080  22.290  25.257  0.00  0.00    +0.000 C 
BRANCH  13  14
ATOM     14  C   UNL     1      29.561  22.525  26.616  0.00  0.00    +0.000 A 
ATOM     15  C   UNL     1      28.253  22.264  26.918  0.00  0.00    +0.000 A 
ATOM     16  C   UNL     1      27.737  22.472  28.180  0.00  0.00    +0.000 A 
ATOM     17  C   UNL     1      28.580  22.962  29.160  0.00  0.00    +0.000 A 
ATOM     18  C   UNL     1      29.905  23.224  28.850  0.00  0.00    +0.000 A 
ATOM     19  C   UNL     1      30.415  23.012  27.581  0.00  0.00    +0.000 A 
ATOM     20  C   UNL     1      31.853  23.310  27.292  0.00  0.00    +0.000 C 
ENDBRANCH  13  14
ENDBRANCH   5  13
TORSDOF 4
ENDMDL
MODEL 6
REMARK VINA RESULT:      -5.6     12.525     16.787
REMARK  Name = 
REMARK  4 active torsions:
REMARK  status: ('A' for Active; 'I' for Inactive)
REMARK    1  A    between atoms: O_2  and  C_3
REMARK    2  A    between atoms: N_5  and  C_6
REMARK    3  A    between atoms: N_10  and  C_11
REMARK    4  A    between atoms: C_11  and  C_12
REMARK                            x       y       z     vdW  Elec       q    Type
REMARK                         _______ _______ _______ _____ _____    ______ ____
ROOT
ATOM      1  C   UNL     1      30.971  21.896  10.769  0.00  0.00    +0.000 A 
ATOM      2  C   UNL     1      31.453  20.682  11.206  0.00  0.00    +0.000 A 
ATOM      3  C   UNL     1      31.265  20.140  12.585  0.00  0.00    +0.000 C 
ATOM      4  N   UNL     1      32.096  20.135  10.160  0.00  0.00    +0.000 NA
ATOM      5  N   UNL     1      32.050  20.919   9.099  0.00  0.00    +0.000 N 
ATOM      6  C   UNL     1      31.359  22.013   9.455  0.00  0.00    +0.000 A 
ATOM      7  C   UNL     1      31.020  23.213   8.616  0.00  0.00    +0.000 C 
ENDROOT
BRANCH   1  10
ATOM      8  C   UNL     1      28.785  22.778  11.603  0.00  0.00    +0.000 C 
ATOM      9  O   UNL     1      28.228  21.852  10.975  0.00  0.00    +0.000 OA
ATOM     10  N   UNL     1      30.210  22.854  11.536  0.00  0.00    +0.000 NA
BRANCH   8  12
ATOM     11  C   UNL     1      27.008  23.276  13.233  0.00  0.00    +0.000 C 
ATOM     12  O   UNL     1      28.020  23.680  12.331  0.00  0.00    +0.000 OA
ENDBRANCH   8  12
ENDBRANCH   1  10
BRANCH   5  13
ATOM     13  C   UNL     1      32.620  20.691   7.779  0.00  0.00    +0.000 C 
BRANCH  13  14
ATOM     14  C   UNL     1      31.816  19.741   6.989  0.00  0.00    +0.000 A 
ATOM     15  C   UNL     1      30.494  19.985   6.741  0.00  0.00    +0.000 A 
ATOM     16  C   UNL     1      29.715  19.117   6.004  0.00  0.00    +0.000 A 
ATOM     17  C   UNL     1      30.303  17.968   5.508  0.00  0.00    +0.000 A 
ATOM     18  C   UNL     1      31.643  17.725   5.762  0.00  0.00    +0.000 A 
ATOM     19  C   UNL     1      32.418  18.602   6.502  0.00  0.00    +0.000 A 
ATOM     20  C   UNL     1      33.863  18.298   6.750  0.00  0.00    +0.000 C 
ENDBRANCH  13  14
ENDBRANCH   5  13
TORSDOF 4
ENDMDL
MODEL 7
REMARK VINA RESULT:      -5.5      4.458      7.784
REMARK  Name = 
REMARK  4 active torsions:
REMARK  status: ('A' for Active; 'I' for Inactive)
REMARK    1  A    between atoms: O_2  and  C_3
REMARK    2  A    between atoms: N_5  and  C_6
REMARK    3  A    between atoms: N_10  and  C_11
REMARK    4  A    between atoms: C_11  and  C_12
REMARK                            x       y       z     vdW  Elec       q    Type
REMARK                         _______ _______ _______ _____ _____    ______ ____
ROOT
ATOM      1  C   UNL     1      26.164  23.879  29.346  0.00  0.00    +0.000 A 
ATOM      2  C   UNL     1      25.920  24.476  28.129  0.00  0.00    +0.000 A 
ATOM      3  C   UNL     1      25.021  25.652  27.925  0.00  0.00    +0.000 C 
ATOM      4  N   UNL     1      26.637  23.790  27.224  0.00  0.00    +0.000 NA
ATOM      5  N   UNL     1      27.314  22.806  27.787  0.00  0.00    +0.000 N 
ATOM      6  C   UNL     1      27.035  22.845  29.098  0.00  0.00    +0.000 A 
ATOM      7  C   UNL     1      27.547  21.942  30.186  0.00  0.00    +0.000 C 
ENDROOT
BRANCH   1  10
ATOM      8  C   UNL     1      26.328  25.141  31.498  0.00  0.00    +0.000 C 
ATOM      9  O   UNL     1      27.439  25.561  31.110  0.00  0.00    +0.000 OA
ATOM     10  N   UNL     1      25.615  24.263  30.625  0.00  0.00    +0.000 NA
BRANCH   8  12
ATOM     11  C   UNL     1      26.663  25.755  33.859  0.00  0.00    +0.000 C 
ATOM     12  O   UNL     1      25.833  25.532  32.735  0.00  0.00    +0.000 OA
ENDBRANCH   8  12
ENDBRANCH   1  10
BRANCH   5  13
ATOM     13  C   UNL     1      28.202  21.841  27.155  0.00  0.00    +0.000 C 
BRANCH  13  14
ATOM     14  C   UNL     1      29.151  22.487  26.231  0.00  0.00    +0.000 A 
ATOM     15  C   UNL     1      28.765  22.835  24.966  0.00  0.00    +0.000 A 
ATOM     16  C   UNL     1      29.629  23.443  24.079  0.00  0.00    +0.000 A 
ATOM     17  C   UNL     1      30.922  23.700  24.493  0.00  0.00    +0.000 A 
ATOM     18  C   UNL     1      31.309  23.345  25.776  0.00  0.00    +0.000 A 
ATOM     19  C   UNL     1      30.436  22.737  26.661  0.00  0.00    +0.000 A 
ATOM     20  C   UNL     1      30.898  22.371  28.037  0.00  0.00    +0.000 C 
ENDBRANCH  13  14
ENDBRANCH   5  13
TORSDOF 4
ENDMDL
MODEL 8
REMARK VINA RESULT:      -5.5     19.894     21.101
REMARK  Name = 
REMARK  4 active torsions:
REMARK  status: ('A' for Active; 'I' for Inactive)
REMARK    1  A    between atoms: O_2  and  C_3
REMARK    2  A    between atoms: N_5  and  C_6
REMARK    3  A    between atoms: N_10  and  C_11
REMARK    4  A    between atoms: C_11  and  C_12
REMARK                            x       y       z     vdW  Elec       q    Type
REMARK                         _______ _______ _______ _____ _____    ______ ____
ROOT
ATOM      1  C   UNL     1      21.168  10.446  38.097  0.00  0.00    +0.000 A 
ATOM      2  C   UNL     1      21.496  10.079  36.811  0.00  0.00    +0.000 A 
ATOM      3  C   UNL     1      22.859  10.208  36.213  0.00  0.00    +0.000 C 
ATOM      4  N   UNL     1      20.367   9.609  36.255  0.00  0.00    +0.000 NA
ATOM      5  N   UNL     1      19.355   9.654  37.100  0.00  0.00    +0.000 N 
ATOM      6  C   UNL     1      19.829  10.168  38.245  0.00  0.00    +0.000 A 
ATOM      7  C   UNL     1      19.087  10.430  39.526  0.00  0.00    +0.000 C 
ENDROOT
BRANCH   1  10
ATOM      8  C   UNL     1      22.228  12.422  39.202  0.00  0.00    +0.000 C 
ATOM      9  O   UNL     1      21.589  13.146  38.409  0.00  0.00    +0.000 OA
ATOM     10  N   UNL     1      22.051  11.009  39.091  0.00  0.00    +0.000 NA
BRANCH   8  12
ATOM     11  C   UNL     1      22.636  13.351  41.446  0.00  0.00    +0.000 C 
ATOM     12  O   UNL     1      23.068  13.000  40.145  0.00  0.00    +0.000 OA
ENDBRANCH   8  12
ENDBRANCH   1  10
BRANCH   5  13
ATOM     13  C   UNL     1      17.976   9.240  36.885  0.00  0.00    +0.000 C 
BRANCH  13  14
ATOM     14  C   UNL     1      17.329  10.016  35.813  0.00  0.00    +0.000 A 
ATOM     15  C   UNL     1      17.649   9.795  34.502  0.00  0.00    +0.000 A 
ATOM     16  C   UNL     1      17.060  10.504  33.475  0.00  0.00    +0.000 A 
ATOM     17  C   UNL     1      16.121  11.466  33.796  0.00  0.00    +0.000 A 
ATOM     18  C   UNL     1      15.801  11.687  35.126  0.00  0.00    +0.000 A 
ATOM     19  C   UNL     1      16.395  10.970  36.150  0.00  0.00    +0.000 A 
ATOM     20  C   UNL     1      16.016  11.244  37.573  0.00  0.00    +0.000 C 
ENDBRANCH  13  14
ENDBRANCH   5  13
TORSDOF 4
ENDMDL
MODEL 9
REMARK VINA RESULT:      -5.4      3.826      6.747
REMARK  Name = 
REMARK  4 active torsions:
REMARK  status: ('A' for Active; 'I' for Inactive)
REMARK    1  A    between atoms: O_2  and  C_3
REMARK    2  A    between atoms: N_5  and  C_6
REMARK    3  A    between atoms: N_10  and  C_11
REMARK    4  A    between atoms: C_11  and  C_12
REMARK                            x       y       z     vdW  Elec       q    Type
REMARK                         _______ _______ _______ _____ _____    ______ ____
ROOT
ATOM      1  C   UNL     1      25.283  25.564  27.387  0.00  0.00    +0.000 A 
ATOM      2  C   UNL     1      25.628  24.729  28.427  0.00  0.00    +0.000 A 
ATOM      3  C   UNL     1      25.433  25.051  29.873  0.00  0.00    +0.000 C 
ATOM      4  N   UNL     1      26.150  23.626  27.867  0.00  0.00    +0.000 NA
ATOM      5  N   UNL     1      26.157  23.708  26.549  0.00  0.00    +0.000 N 
ATOM      6  C   UNL     1      25.625  24.899  26.233  0.00  0.00    +0.000 A 
ATOM      7  C   UNL     1      25.403  25.486  24.867  0.00  0.00    +0.000 C 
ENDROOT
BRANCH   1  10
ATOM      8  C   UNL     1      23.264  27.036  27.467  0.00  0.00    +0.000 C 
ATOM      9  O   UNL     1      22.568  26.004  27.359  0.00  0.00    +0.000 OA
ATOM     10  N   UNL     1      24.683  26.873  27.487  0.00  0.00    +0.000 NA
BRANCH   8  12
ATOM     11  C   UNL     1      21.310  28.443  27.980  0.00  0.00    +0.000 C 
ATOM     12  O   UNL     1      22.651  28.279  27.561  0.00  0.00    +0.000 OA
ENDBRANCH   8  12
ENDBRANCH   1  10
BRANCH   5  13
ATOM     13  C   UNL     1      26.635  22.730  25.583  0.00  0.00    +0.000 C 
BRANCH  13  14
ATOM     14  C   UNL     1      28.106  22.726  25.485  0.00  0.00    +0.000 A 
ATOM     15  C   UNL     1      28.875  22.376  26.561  0.00  0.00    +0.000 A 
ATOM     16  C   UNL     1      30.253  22.362  26.501  0.00  0.00    +0.000 A 
ATOM     17  C   UNL     1      30.862  22.716  25.311  0.00  0.00    +0.000 A 
ATOM     18  C   UNL     1      30.078  23.071  24.225  0.00  0.00    +0.000 A 
ATOM     19  C   UNL     1      28.696  23.081  24.292  0.00  0.00    +0.000 A 
ATOM     20  C   UNL     1      27.890  23.471  23.092  0.00  0.00    +0.000 C 
ENDBRANCH  13  14
ENDBRANCH   5  13
TORSDOF 4
ENDMDL
MODEL 10
REMARK VINA RESULT:      -5.3      2.495      4.503
REMARK  Name = 
REMARK  4 active torsions:
REMARK  status: ('A' for Active; 'I' for Inactive)
REMARK    1  A    between atoms: O_2  and  C_3
REMARK    2  A    between atoms: N_5  and  C_6
REMARK    3  A    between atoms: N_10  and  C_11
REMARK    4  A    between atoms: C_11  and  C_12
REMARK                            x       y       z     vdW  Elec       q    Type
REMARK                         _______ _______ _______ _____ _____    ______ ____
ROOT
ATOM      1  C   UNL     1      28.561  26.505  21.683  0.00  0.00    +0.000 A 
ATOM      2  C   UNL     1      29.353  25.845  20.770  0.00  0.00    +0.000 A 
ATOM      3  C   UNL     1      30.014  26.491  19.596  0.00  0.00    +0.000 C 
ATOM      4  N   UNL     1      29.387  24.560  21.161  0.00  0.00    +0.000 NA
ATOM      5  N   UNL     1      28.673  24.367  22.254  0.00  0.00    +0.000 N 
ATOM      6  C   UNL     1      28.154  25.557  22.593  0.00  0.00    +0.000 A 
ATOM      7  C   UNL     1      27.266  25.886  23.760  0.00  0.00    +0.000 C 
ENDROOT
BRANCH   1  10
ATOM      8  C   UNL     1      27.102  28.398  20.950  0.00  0.00    +0.000 C 
ATOM      9  O   UNL     1      26.427  27.564  20.309  0.00  0.00    +0.000 OA
ATOM     10  N   UNL     1      28.225  27.908  21.686  0.00  0.00    +0.000 NA
BRANCH   8  12
ATOM     11  C   UNL     1      27.690  30.781  20.754  0.00  0.00    +0.000 C 
ATOM     12  O   UNL     1      26.747  29.740  20.929  0.00  0.00    +0.000 OA
ENDBRANCH   8  12
ENDBRANCH   1  10
BRANCH   5  13
ATOM     13  C   UNL     1      28.458  23.128  22.988  0.00  0.00    +0.000 C 
BRANCH  13  14
ATOM     14  C   UNL     1      29.298  23.051  24.196  0.00  0.00    +0.000 A 
ATOM     15  C   UNL     1      30.656  23.186  24.111  0.00  0.00    +0.000 A 
ATOM     16  C   UNL     1      31.470  23.120  25.223  0.00  0.00    +0.000 A 
ATOM     17  C   UNL     1      30.880  22.908  26.456  0.00  0.00    +0.000 A 
ATOM     18  C   UNL     1      29.504  22.771  26.537  0.00  0.00    +0.000 A 
ATOM     19  C   UNL     1      28.694  22.840  25.417  0.00  0.00    +0.000 A 
ATOM     20  C   UNL     1      27.211  22.687  25.553  0.00  0.00    +0.000 C 
ENDBRANCH  13  14
ENDBRANCH   5  13
TORSDOF 4
ENDMDL
