MODEL 1
REMARK VINA RESULT:      -6.3      0.000      0.000
REMARK  Name = 
REMARK  3 active torsions:
REMARK  status: ('A' for Active; 'I' for Inactive)
REMARK    1  A    between atoms: C_2  and  N_4
REMARK    2  A    between atoms: N_4  and  C_5
REMARK    3  A    between atoms: C_6  and  C_7
REMARK                            x       y       z     vdW  Elec       q    Type
REMARK                         _______ _______ _______ _____ _____    ______ ____
ROOT
ATOM      1  C   UNL     1      16.658  10.678  38.119  0.00  0.00    +0.000 A 
ATOM      2  C   UNL     1      17.720  11.307  37.518  0.00  0.00    +0.000 A 
ATOM      3  N   UNL     1      17.177  12.234  36.656  0.00  0.00    +0.000 NA
ATOM      4  C   UNL     1      15.862  12.176  36.726  0.00  0.00    +0.000 A 
ATOM      5  C   UNL     1      14.841  12.874  36.082  0.00  0.00    +0.000 A 
ATOM      6  C   UNL     1      13.500  12.611  36.345  0.00  0.00    +0.000 A 
ATOM      7  C   UNL     1      13.184  11.632  37.265  0.00  0.00    +0.000 A 
ATOM      8 CL   UNL     1      11.501  11.248  37.644  0.00  0.00    +0.000 Cl
ATOM      9  C   UNL     1      14.230  10.969  37.874  0.00  0.00    +0.000 A 
ATOM     10  N   UNL     1      15.519  11.237  37.608  0.00  0.00    +0.000 N 
ENDROOT
BRANCH   2  11
ATOM     11  C   UNL     1      19.148  11.085  37.686  0.00  0.00    +0.000 A 
ATOM     12  C   UNL     1      19.835  11.816  38.627  0.00  0.00    +0.000 A 
ATOM     13  C   UNL     1      21.190  11.642  38.854  0.00  0.00    +0.000 A 
ATOM     14  C   UNL     1      21.856  10.707  38.109  0.00  0.00    +0.000 A 
ATOM     15  C   UNL     1      21.210   9.942  37.146  0.00  0.00    +0.000 A 
ATOM     16  C   UNL     1      19.834  10.159  36.956  0.00  0.00    +0.000 A 
ATOM     17  O   UNL     1      19.160   9.398  35.990  0.00  0.00    +0.000 OA
ENDBRANCH   2  11
BRANCH   1  18
ATOM     18  N   UNL     1      16.746   9.677  39.103  0.00  0.00    +0.000 NA
BRANCH  18  20
ATOM     19  C   UNL     1      15.686   9.046  41.164  0.00  0.00    +0.000 C 
ATOM     20  C   UNL     1      16.790   9.904  40.519  0.00  0.00    +0.000 C 
ATOM     21  C   UNL     1      18.116   9.417  41.034  0.00  0.00    +0.000 C 
ENDBRANCH  18  20
ENDBRANCH   1  18
TORSDOF 3
ENDMDL
MODEL 2
REMARK VINA RESULT:      -6.1      2.866      4.616
REMARK  Name = 
REMARK  3 active torsions:
REMARK  status: ('A' for Active; 'I' for Inactive)
REMARK    1  A    between atoms: C_2  and  N_4
REMARK    2  A    between atoms: N_4  and  C_5
REMARK    3  A    between atoms: C_6  and  C_7
REMARK                            x       y       z     vdW  Elec       q    Type
REMARK                         _______ _______ _______ _____ _____    ______ ____
ROOT
ATOM      1  C   UNL     1      20.519  10.914  37.786  0.00  0.00    +0.000 A 
ATOM      2  C   UNL     1      21.364  10.132  37.037  0.00  0.00    +0.000 A 
ATOM      3  N   UNL     1      20.561   9.422  36.172  0.00  0.00    +0.000 NA
ATOM      4  C   UNL     1      19.301   9.750  36.379  0.00  0.00    +0.000 A 
ATOM      5  C   UNL     1      18.101   9.342  35.797  0.00  0.00    +0.000 A 
ATOM      6  C   UNL     1      16.877   9.858  36.212  0.00  0.00    +0.000 A 
ATOM      7  C   UNL     1      16.861  10.795  37.225  0.00  0.00    +0.000 A 
ATOM      8 CL   UNL     1      15.341  11.489  37.800  0.00  0.00    +0.000 Cl
ATOM      9  C   UNL     1      18.074  11.165  37.769  0.00  0.00    +0.000 A 
ATOM     10  N   UNL     1      19.246  10.656  37.356  0.00  0.00    +0.000 N 
ENDROOT
BRANCH   2  11
ATOM     11  C   UNL     1      22.812  10.008  37.097  0.00  0.00    +0.000 A 
ATOM     12  C   UNL     1      23.578  10.607  36.126  0.00  0.00    +0.000 A 
ATOM     13  C   UNL     1      24.962  10.546  36.133  0.00  0.00    +0.000 A 
ATOM     14  C   UNL     1      25.574   9.861  37.147  0.00  0.00    +0.000 A 
ATOM     15  C   UNL     1      24.847   9.237  38.153  0.00  0.00    +0.000 A 
ATOM     16  C   UNL     1      23.445   9.330  38.098  0.00  0.00    +0.000 A 
ATOM     17  O   UNL     1      22.689   8.709  39.103  0.00  0.00    +0.000 OA
ENDBRANCH   2  11
BRANCH   1  18
ATOM     18  N   UNL     1      20.911  11.833  38.776  0.00  0.00    +0.000 NA
BRANCH  18  20
ATOM     19  C   UNL     1      20.627  14.141  39.375  0.00  0.00    +0.000 C 
ATOM     20  C   UNL     1      21.442  13.143  38.533  0.00  0.00    +0.000 C 
ATOM     21  C   UNL     1      22.863  13.175  39.021  0.00  0.00    +0.000 C 
ENDBRANCH  18  20
ENDBRANCH   1  18
TORSDOF 3
ENDMDL
MODEL 3
REMARK VINA RESULT:      -6.0      3.633      6.652
REMARK  Name = 
REMARK  3 active torsions:
REMARK  status: ('A' for Active; 'I' for Inactive)
REMARK    1  A    between atoms: C_2  and  N_4
REMARK    2  A    between atoms: N_4  and  C_5
REMARK    3  A    between atoms: C_6  and  C_7
REMARK                            x       y       z     vdW  Elec       q    Type
REMARK                         _______ _______ _______ _____ _____    ______ ____
ROOT
ATOM      1  C   UNL     1      19.349   9.275  38.341  0.00  0.00    +0.000 A 
ATOM      2  C   UNL     1      19.096   9.061  39.674  0.00  0.00    +0.000 A 
ATOM      3  N   UNL     1      20.284   9.294  40.330  0.00  0.00    +0.000 NA
ATOM      4  C   UNL     1      21.208   9.630  39.452  0.00  0.00    +0.000 A 
ATOM      5  C   UNL     1      22.557   9.964  39.568  0.00  0.00    +0.000 A 
ATOM      6  C   UNL     1      23.326  10.286  38.454  0.00  0.00    +0.000 A 
ATOM      7  C   UNL     1      22.730  10.271  37.209  0.00  0.00    +0.000 A 
ATOM      8 CL   UNL     1      23.651  10.669  35.754  0.00  0.00    +0.000 Cl
ATOM      9  C   UNL     1      21.394   9.934  37.147  0.00  0.00    +0.000 A 
ATOM     10  N   UNL     1      20.667   9.626  38.234  0.00  0.00    +0.000 N 
ENDROOT
BRANCH   2  11
ATOM     11  C   UNL     1      17.864   8.654  40.332  0.00  0.00    +0.000 A 
ATOM     12  C   UNL     1      16.919   9.605  40.636  0.00  0.00    +0.000 A 
ATOM     13  C   UNL     1      15.716   9.285  41.244  0.00  0.00    +0.000 A 
ATOM     14  C   UNL     1      15.474   7.973  41.546  0.00  0.00    +0.000 A 
ATOM     15  C   UNL     1      16.395   6.973  41.260  0.00  0.00    +0.000 A 
ATOM     16  C   UNL     1      17.599   7.352  40.643  0.00  0.00    +0.000 A 
ATOM     17  O   UNL     1      18.544   6.360  40.344  0.00  0.00    +0.000 OA
ENDBRANCH   2  11
BRANCH   1  18
ATOM     18  N   UNL     1      18.407   9.184  37.301  0.00  0.00    +0.000 NA
BRANCH  18  20
ATOM     19  C   UNL     1      17.663   9.834  35.112  0.00  0.00    +0.000 C 
ATOM     20  C   UNL     1      17.867  10.293  36.567  0.00  0.00    +0.000 C 
ATOM     21  C   UNL     1      16.520  10.629  37.142  0.00  0.00    +0.000 C 
ENDBRANCH  18  20
ENDBRANCH   1  18
TORSDOF 3
ENDMDL
MODEL 4
REMARK VINA RESULT:      -6.0     19.753     21.433
REMARK  Name = 
REMARK  3 active torsions:
REMARK  status: ('A' for Active; 'I' for Inactive)
REMARK    1  A    between atoms: C_2  and  N_4
REMARK    2  A    between atoms: N_4  and  C_5
REMARK    3  A    between atoms: C_6  and  C_7
REMARK                            x       y       z     vdW  Elec       q    Type
REMARK                         _______ _______ _______ _____ _____    ______ ____
ROOT
ATOM      1  C   UNL     1      28.305  23.330  25.999  0.00  0.00    +0.000 A 
ATOM      2  C   UNL     1      27.838  24.365  25.226  0.00  0.00    +0.000 A 
ATOM      3  N   UNL     1      26.840  24.968  25.959  0.00  0.00    +0.000 NA
ATOM      4  C   UNL     1      26.706  24.341  27.111  0.00  0.00    +0.000 A 
ATOM      5  C   UNL     1      25.864  24.529  28.207  0.00  0.00    +0.000 A 
ATOM      6  C   UNL     1      25.930  23.705  29.326  0.00  0.00    +0.000 A 
ATOM      7  C   UNL     1      26.853  22.679  29.341  0.00  0.00    +0.000 A 
ATOM      8 CL   UNL     1      26.988  21.596  30.732  0.00  0.00    +0.000 Cl
ATOM      9  C   UNL     1      27.663  22.535  28.234  0.00  0.00    +0.000 A 
ATOM     10  N   UNL     1      27.585  23.341  27.162  0.00  0.00    +0.000 N 
ENDROOT
BRANCH   2  11
ATOM     11  C   UNL     1      28.244  24.787  23.894  0.00  0.00    +0.000 A 
ATOM     12  C   UNL     1      29.148  25.814  23.762  0.00  0.00    +0.000 A 
ATOM     13  C   UNL     1      29.593  26.253  22.526  0.00  0.00    +0.000 A 
ATOM     14  C   UNL     1      29.107  25.634  21.407  0.00  0.00    +0.000 A 
ATOM     15  C   UNL     1      28.192  24.592  21.485  0.00  0.00    +0.000 A 
ATOM     16  C   UNL     1      27.774  24.185  22.763  0.00  0.00    +0.000 A 
ATOM     17  O   UNL     1      26.851  23.134  22.867  0.00  0.00    +0.000 OA
ENDBRANCH   2  11
BRANCH   1  18
ATOM     18  N   UNL     1      29.357  22.460  25.658  0.00  0.00    +0.000 NA
BRANCH  18  20
ATOM     19  C   UNL     1      31.418  22.983  24.541  0.00  0.00    +0.000 C 
ATOM     20  C   UNL     1      30.750  22.704  25.900  0.00  0.00    +0.000 C 
ATOM     21  C   UNL     1      30.874  23.943  26.741  0.00  0.00    +0.000 C 
ENDBRANCH  18  20
ENDBRANCH   1  18
TORSDOF 3
ENDMDL
MODEL 5
REMARK VINA RESULT:      -5.9     19.236     20.939
REMARK  Name = 
REMARK  3 active torsions:
REMARK  status: ('A' for Active; 'I' for Inactive)
REMARK    1  A    between atoms: C_2  and  N_4
REMARK    2  A    between atoms: N_4  and  C_5
REMARK    3  A    between atoms: C_6  and  C_7
REMARK                            x       y       z     vdW  Elec       q    Type
REMARK                         _______ _______ _______ _____ _____    ______ ____
ROOT
ATOM      1  C   UNL     1      28.225  24.134  25.888  0.00  0.00    +0.000 A 
ATOM      2  C   UNL     1      27.130  23.580  26.504  0.00  0.00    +0.000 A 
ATOM      3  N   UNL     1      26.243  23.269  25.497  0.00  0.00    +0.000 NA
ATOM      4  C   UNL     1      26.764  23.612  24.336  0.00  0.00    +0.000 A 
ATOM      5  C   UNL     1      26.306  23.525  23.022  0.00  0.00    +0.000 A 
ATOM      6  C   UNL     1      27.074  23.972  21.951  0.00  0.00    +0.000 A 
ATOM      7  C   UNL     1      28.317  24.514  22.207  0.00  0.00    +0.000 A 
ATOM      8 CL   UNL     1      29.342  25.101  20.892  0.00  0.00    +0.000 Cl
ATOM      9  C   UNL     1      28.725  24.578  23.523  0.00  0.00    +0.000 A 
ATOM     10  N   UNL     1      27.970  24.141  24.544  0.00  0.00    +0.000 N 
ENDROOT
BRANCH   2  11
ATOM     11  C   UNL     1      26.875  23.352  27.918  0.00  0.00    +0.000 A 
ATOM     12  C   UNL     1      27.369  22.216  28.515  0.00  0.00    +0.000 A 
ATOM     13  C   UNL     1      27.181  21.946  29.860  0.00  0.00    +0.000 A 
ATOM     14  C   UNL     1      26.477  22.850  30.609  0.00  0.00    +0.000 A 
ATOM     15  C   UNL     1      25.956  24.012  30.055  0.00  0.00    +0.000 A 
ATOM     16  C   UNL     1      26.176  24.238  28.685  0.00  0.00    +0.000 A 
ATOM     17  O   UNL     1      25.660  25.405  28.103  0.00  0.00    +0.000 OA
ENDBRANCH   2  11
BRANCH   1  18
ATOM     18  N   UNL     1      29.397  24.569  26.533  0.00  0.00    +0.000 NA
BRANCH  18  20
ATOM     19  C   UNL     1      30.695  23.611  28.312  0.00  0.00    +0.000 C 
ATOM     20  C   UNL     1      30.556  23.762  26.786  0.00  0.00    +0.000 C 
ATOM     21  C   UNL     1      30.317  22.397  26.205  0.00  0.00    +0.000 C 
ENDBRANCH  18  20
ENDBRANCH   1  18
TORSDOF 3
ENDMDL
MODEL 6
REMARK VINA RESULT:      -5.7     21.947     22.774
REMARK  Name = 
REMARK  3 active torsions:
REMARK  status: ('A' for Active; 'I' for Inactive)
REMARK    1  A    between atoms: C_2  and  N_4
REMARK    2  A    between atoms: N_4  and  C_5
REMARK    3  A    between atoms: C_6  and  C_7
REMARK                            x       y       z     vdW  Elec       q    Type
REMARK                         _______ _______ _______ _____ _____    ______ ____
ROOT
ATOM      1  C   UNL     1      16.532  -9.273  26.944  0.00  0.00    +0.000 A 
ATOM      2  C   UNL     1      16.681  -8.081  26.279  0.00  0.00    +0.000 A 
ATOM      3  N   UNL     1      15.497  -7.868  25.608  0.00  0.00    +0.000 NA
ATOM      4  C   UNL     1      14.674  -8.869  25.848  0.00  0.00    +0.000 A 
ATOM      5  C   UNL     1      13.375  -9.156  25.431  0.00  0.00    +0.000 A 
ATOM      6  C   UNL     1      12.716 -10.311  25.842  0.00  0.00    +0.000 A 
ATOM      7  C   UNL     1      13.374 -11.187  26.681  0.00  0.00    +0.000 A 
ATOM      8 CL   UNL     1      12.595 -12.672  27.239  0.00  0.00    +0.000 Cl
ATOM      9  C   UNL     1      14.658 -10.858  27.065  0.00  0.00    +0.000 A 
ATOM     10  N   UNL     1      15.277  -9.738  26.658  0.00  0.00    +0.000 N 
ENDROOT
BRANCH   2  11
ATOM     11  C   UNL     1      17.824  -7.182  26.227  0.00  0.00    +0.000 A 
ATOM     12  C   UNL     1      17.754  -5.969  26.869  0.00  0.00    +0.000 A 
ATOM     13  C   UNL     1      18.811  -5.074  26.876  0.00  0.00    +0.000 A 
ATOM     14  C   UNL     1      19.959  -5.424  26.218  0.00  0.00    +0.000 A 
ATOM     15  C   UNL     1      20.082  -6.637  25.554  0.00  0.00    +0.000 A 
ATOM     16  C   UNL     1      18.979  -7.508  25.577  0.00  0.00    +0.000 A 
ATOM     17  O   UNL     1      19.080  -8.740  24.914  0.00  0.00    +0.000 OA
ENDBRANCH   2  11
BRANCH   1  18
ATOM     18  N   UNL     1      17.487  -9.867  27.789  0.00  0.00    +0.000 NA
BRANCH  18  20
ATOM     19  C   UNL     1      17.548  -9.962  30.188  0.00  0.00    +0.000 C 
ATOM     20  C   UNL     1      18.085  -9.245  28.936  0.00  0.00    +0.000 C 
ATOM     21  C   UNL     1      19.570  -9.469  28.873  0.00  0.00    +0.000 C 
ENDBRANCH  18  20
ENDBRANCH   1  18
TORSDOF 3
ENDMDL
MODEL 7
REMARK VINA RESULT:      -5.7      3.045      4.651
REMARK  Name = 
REMARK  3 active torsions:
REMARK  status: ('A' for Active; 'I' for Inactive)
REMARK    1  A    between atoms: C_2  and  N_4
REMARK    2  A    between atoms: N_4  and  C_5
REMARK    3  A    between atoms: C_6  and  C_7
REMARK                            x       y       z     vdW  Elec       q    Type
REMARK                         _______ _______ _______ _____ _____    ______ ____
ROOT
ATOM      1  C   UNL     1      20.570   9.699  39.219  0.00  0.00    +0.000 A 
ATOM      2  C   UNL     1      20.934  10.209  37.997  0.00  0.00    +0.000 A 
ATOM      3  N   UNL     1      19.762  10.575  37.372  0.00  0.00    +0.000 NA
ATOM      4  C   UNL     1      18.744  10.305  38.164  0.00  0.00    +0.000 A 
ATOM      5  C   UNL     1      17.365  10.469  38.034  0.00  0.00    +0.000 A 
ATOM      6  C   UNL     1      16.488  10.092  39.046  0.00  0.00    +0.000 A 
ATOM      7  C   UNL     1      17.005   9.542  40.202  0.00  0.00    +0.000 A 
ATOM      8 CL   UNL     1      15.945   9.042  41.525  0.00  0.00    +0.000 Cl
ATOM      9  C   UNL     1      18.375   9.401  40.282  0.00  0.00    +0.000 A 
ATOM     10  N   UNL     1      19.206   9.771  39.295  0.00  0.00    +0.000 N 
ENDROOT
BRANCH   2  11
ATOM     11  C   UNL     1      22.255  10.349  37.404  0.00  0.00    +0.000 A 
ATOM     12  C   UNL     1      22.710   9.381  36.540  0.00  0.00    +0.000 A 
ATOM     13  C   UNL     1      23.948   9.461  35.925  0.00  0.00    +0.000 A 
ATOM     14  C   UNL     1      24.736  10.546  36.197  0.00  0.00    +0.000 A 
ATOM     15  C   UNL     1      24.325  11.552  37.062  0.00  0.00    +0.000 A 
ATOM     16  C   UNL     1      23.059  11.422  37.660  0.00  0.00    +0.000 A 
ATOM     17  O   UNL     1      22.621  12.425  38.537  0.00  0.00    +0.000 OA
ENDBRANCH   2  11
BRANCH   1  18
ATOM     18  N   UNL     1      21.453   9.232  40.210  0.00  0.00    +0.000 NA
BRANCH  18  20
ATOM     19  C   UNL     1      23.529   8.044  39.997  0.00  0.00    +0.000 C 
ATOM     20  C   UNL     1      22.019   7.915  40.267  0.00  0.00    +0.000 C 
ATOM     21  C   UNL     1      21.840   7.384  41.661  0.00  0.00    +0.000 C 
ENDBRANCH  18  20
ENDBRANCH   1  18
TORSDOF 3
ENDMDL
MODEL 8
REMARK VINA RESULT:      -5.6     18.791     20.549
REMARK  Name = 
REMARK  3 active torsions:
REMARK  status: ('A' for Active; 'I' for Inactive)
REMARK    1  A    between atoms: C_2  and  N_4
REMARK    2  A    between atoms: N_4  and  C_5
REMARK    3  A    between atoms: C_6  and  C_7
REMARK                            x       y       z     vdW  Elec       q    Type
REMARK                         _______ _______ _______ _____ _____    ______ ____
ROOT
ATOM      1  C   UNL     1      28.996  22.667  27.085  0.00  0.00    +0.000 A 
ATOM      2  C   UNL     1      30.359  22.830  27.083  0.00  0.00    +0.000 A 
ATOM      3  N   UNL     1      30.703  23.159  25.791  0.00  0.00    +0.000 NA
ATOM      4  C   UNL     1      29.616  23.194  25.046  0.00  0.00    +0.000 A 
ATOM      5  C   UNL     1      29.392  23.467  23.697  0.00  0.00    +0.000 A 
ATOM      6  C   UNL     1      28.113  23.437  23.150  0.00  0.00    +0.000 A 
ATOM      7  C   UNL     1      27.047  23.127  23.971  0.00  0.00    +0.000 A 
ATOM      8 CL   UNL     1      25.398  23.070  23.338  0.00  0.00    +0.000 Cl
ATOM      9  C   UNL     1      27.321  22.865  25.297  0.00  0.00    +0.000 A 
ATOM     10  N   UNL     1      28.562  22.899  25.808  0.00  0.00    +0.000 N 
ENDROOT
BRANCH   2  11
ATOM     11  C   UNL     1      31.314  22.685  28.172  0.00  0.00    +0.000 A 
ATOM     12  C   UNL     1      31.833  21.442  28.448  0.00  0.00    +0.000 A 
ATOM     13  C   UNL     1      32.759  21.235  29.457  0.00  0.00    +0.000 A 
ATOM     14  C   UNL     1      33.164  22.314  30.195  0.00  0.00    +0.000 A 
ATOM     15  C   UNL     1      32.671  23.591  29.956  0.00  0.00    +0.000 A 
ATOM     16  C   UNL     1      31.732  23.745  28.921  0.00  0.00    +0.000 A 
ATOM     17  O   UNL     1      31.221  25.025  28.661  0.00  0.00    +0.000 OA
ENDBRANCH   2  11
BRANCH   1  18
ATOM     18  N   UNL     1      28.207  22.359  28.208  0.00  0.00    +0.000 NA
BRANCH  18  20
ATOM     19  C   UNL     1      26.348  23.278  29.420  0.00  0.00    +0.000 C 
ATOM     20  C   UNL     1      27.881  23.266  29.270  0.00  0.00    +0.000 C 
ATOM     21  C   UNL     1      28.468  22.731  30.545  0.00  0.00    +0.000 C 
ENDBRANCH  18  20
ENDBRANCH   1  18
TORSDOF 3
ENDMDL
MODEL 9
REMARK VINA RESULT:      -5.5     22.060     23.622
REMARK  Name = 
REMARK  3 active torsions:
REMARK  status: ('A' for Active; 'I' for Inactive)
REMARK    1  A    between atoms: C_2  and  N_4
REMARK    2  A    between atoms: N_4  and  C_5
REMARK    3  A    between atoms: C_6  and  C_7
REMARK                            x       y       z     vdW  Elec       q    Type
REMARK                         _______ _______ _______ _____ _____    ______ ____
ROOT
ATOM      1  C   UNL     1      20.110  -8.538  26.345  0.00  0.00    +0.000 A 
ATOM      2  C   UNL     1      20.054  -9.498  27.326  0.00  0.00    +0.000 A 
ATOM      3  N   UNL     1      21.243 -10.188  27.252  0.00  0.00    +0.000 NA
ATOM      4  C   UNL     1      21.982  -9.681  26.286  0.00  0.00    +0.000 A 
ATOM      5  C   UNL     1      23.248  -9.992  25.789  0.00  0.00    +0.000 A 
ATOM      6  C   UNL     1      23.812  -9.281  24.734  0.00  0.00    +0.000 A 
ATOM      7  C   UNL     1      23.092  -8.247  24.171  0.00  0.00    +0.000 A 
ATOM      8 CL   UNL     1      23.750  -7.306  22.827  0.00  0.00    +0.000 Cl
ATOM      9  C   UNL     1      21.845  -7.979  24.697  0.00  0.00    +0.000 A 
ATOM     10  N   UNL     1      21.317  -8.676  25.717  0.00  0.00    +0.000 N 
ENDROOT
BRANCH   2  11
ATOM     11  C   UNL     1      18.990  -9.800  28.271  0.00  0.00    +0.000 A 
ATOM     12  C   UNL     1      19.125  -9.408  29.582  0.00  0.00    +0.000 A 
ATOM     13  C   UNL     1      18.144  -9.646  30.530  0.00  0.00    +0.000 A 
ATOM     14  C   UNL     1      17.005 -10.293  30.133  0.00  0.00    +0.000 A 
ATOM     15  C   UNL     1      16.818 -10.709  28.822  0.00  0.00    +0.000 A 
ATOM     16  C   UNL     1      17.846 -10.444  27.900  0.00  0.00    +0.000 A 
ATOM     17  O   UNL     1      17.679 -10.854  26.569  0.00  0.00    +0.000 OA
ENDBRANCH   2  11
BRANCH   1  18
ATOM     18  N   UNL     1      19.118  -7.576  26.080  0.00  0.00    +0.000 NA
BRANCH  18  20
ATOM     19  C   UNL     1      18.870  -5.215  26.440  0.00  0.00    +0.000 C 
ATOM     20  C   UNL     1      18.615  -6.618  27.021  0.00  0.00    +0.000 C 
ATOM     21  C   UNL     1      17.129  -6.808  27.141  0.00  0.00    +0.000 C 
ENDBRANCH  18  20
ENDBRANCH   1  18
TORSDOF 3
ENDMDL
MODEL 10
REMARK VINA RESULT:      -5.5     21.846     22.970
REMARK  Name = 
REMARK  3 active torsions:
REMARK  status: ('A' for Active; 'I' for Inactive)
REMARK    1  A    between atoms: C_2  and  N_4
REMARK    2  A    between atoms: N_4  and  C_5
REMARK    3  A    between atoms: C_6  and  C_7
REMARK                            x       y       z     vdW  Elec       q    Type
REMARK                         _______ _______ _______ _____ _____    ______ ____
ROOT
ATOM      1  C   UNL     1      17.008  -9.602  27.681  0.00  0.00    +0.000 A 
ATOM      2  C   UNL     1      18.017  -8.734  28.020  0.00  0.00    +0.000 A 
ATOM      3  N   UNL     1      18.397  -9.072  29.300  0.00  0.00    +0.000 NA
ATOM      4  C   UNL     1      17.665 -10.085  29.719  0.00  0.00    +0.000 A 
ATOM      5  C   UNL     1      17.630 -10.808  30.911  0.00  0.00    +0.000 A 
ATOM      6  C   UNL     1      16.738 -11.858  31.100  0.00  0.00    +0.000 A 
ATOM      7  C   UNL     1      15.869 -12.183  30.078  0.00  0.00    +0.000 A 
ATOM      8 CL   UNL     1      14.710 -13.506  30.254  0.00  0.00    +0.000 Cl
ATOM      9  C   UNL     1      15.942 -11.438  28.919  0.00  0.00    +0.000 A 
ATOM     10  N   UNL     1      16.811 -10.428  28.754  0.00  0.00    +0.000 N 
ENDROOT
BRANCH   2  11
ATOM     11  C   UNL     1      18.604  -7.647  27.252  0.00  0.00    +0.000 A 
ATOM     12  C   UNL     1      18.066  -6.386  27.355  0.00  0.00    +0.000 A 
ATOM     13  C   UNL     1      18.587  -5.301  26.668  0.00  0.00    +0.000 A 
ATOM     14  C   UNL     1      19.675  -5.507  25.864  0.00  0.00    +0.000 A 
ATOM     15  C   UNL     1      20.256  -6.761  25.725  0.00  0.00    +0.000 A 
ATOM     16  C   UNL     1      19.688  -7.827  26.444  0.00  0.00    +0.000 A 
ATOM     17  O   UNL     1      20.259  -9.102  26.321  0.00  0.00    +0.000 OA
ENDBRANCH   2  11
BRANCH   1  18
ATOM     18  N   UNL     1      16.341  -9.644  26.443  0.00  0.00    +0.000 NA
BRANCH  18  20
ATOM     19  C   UNL     1      15.286  -8.601  24.555  0.00  0.00    +0.000 C 
ATOM     20  C   UNL     1      15.217  -8.831  26.075  0.00  0.00    +0.000 C 
ATOM     21  C   UNL     1      13.961  -9.601  26.372  0.00  0.00    +0.000 C 
ENDBRANCH  18  20
ENDBRANCH   1  18
TORSDOF 3
ENDMDL
