MODEL 1
REMARK VINA RESULT:      -6.2      0.000      0.000
REMARK  Name = 
REMARK  3 active torsions:
REMARK  status: ('A' for Active; 'I' for Inactive)
REMARK    1  A    between atoms: C_2  and  C_12
REMARK    2  A    between atoms: N_3  and  N_4
REMARK    3  A    between atoms: N_4  and  C_5
REMARK                            x       y       z     vdW  Elec       q    Type
REMARK                         _______ _______ _______ _____ _____    ______ ____
ROOT
ATOM      1  O   UNL     1      32.337  -5.488  33.110  0.00  0.00    +0.000 OA
ATOM      2  C   UNL     1      33.143  -4.923  32.317  0.00  0.00    +0.000 C 
ATOM      3  N   UNL     1      33.586  -3.631  32.753  0.00  0.00    +0.000 NA
ENDROOT
BRANCH   2   4
ATOM      4  C   UNL     1      33.497  -5.606  31.104  0.00  0.00    +0.000 A 
ATOM      5  C   UNL     1      32.868  -5.447  29.924  0.00  0.00    +0.000 A 
ATOM      6  C   UNL     1      33.293  -6.078  28.789  0.00  0.00    +0.000 A 
ATOM      7  C   UNL     1      34.391  -6.894  28.871  0.00  0.00    +0.000 A 
ATOM      8  C   UNL     1      35.077  -7.087  30.077  0.00  0.00    +0.000 A 
ATOM      9  C   UNL     1      34.628  -6.438  31.202  0.00  0.00    +0.000 A 
ATOM     10 BR   UNL     1      35.473  -6.729  32.908  0.00  0.00    +0.000 Br
ENDBRANCH   2   4
BRANCH   3  11
ATOM     11  N   UNL     1      33.194  -3.046  33.932  0.00  0.00    +0.000 NA
BRANCH  11  12
ATOM     12  C   UNL     1      32.981  -1.793  34.351  0.00  0.00    +0.000 C 
ATOM     13  C   UNL     1      33.545  -0.639  34.176  0.00  0.00    +0.000 C 
ATOM     14  C   UNL     1      34.740  -0.576  33.307  0.00  0.00    +0.000 C 
ATOM     15  C   UNL     1      34.472   0.455  32.270  0.00  0.00    +0.000 C 
ATOM     16  C   UNL     1      33.824   1.557  32.606  0.00  0.00    +0.000 C 
ATOM     17  C   UNL     1      33.344   1.830  33.979  0.00  0.00    +0.000 C 
ATOM     18  C   UNL     1      33.093   0.618  34.812  0.00  0.00    +0.000 C 
ENDBRANCH  11  12
ENDBRANCH   3  11
TORSDOF 3
ENDMDL
MODEL 2
REMARK VINA RESULT:      -6.2     13.798     15.988
REMARK  Name = 
REMARK  3 active torsions:
REMARK  status: ('A' for Active; 'I' for Inactive)
REMARK    1  A    between atoms: C_2  and  C_12
REMARK    2  A    between atoms: N_3  and  N_4
REMARK    3  A    between atoms: N_4  and  C_5
REMARK                            x       y       z     vdW  Elec       q    Type
REMARK                         _______ _______ _______ _____ _____    ______ ____
ROOT
ATOM      1  O   UNL     1      21.893  -8.637  25.991  0.00  0.00    +0.000 OA
ATOM      2  C   UNL     1      20.868  -8.268  25.351  0.00  0.00    +0.000 C 
ATOM      3  N   UNL     1      20.721  -8.888  24.068  0.00  0.00    +0.000 NA
ENDROOT
BRANCH   2   4
ATOM      4  C   UNL     1      20.006  -7.289  25.954  0.00  0.00    +0.000 A 
ATOM      5  C   UNL     1      20.084  -5.962  25.737  0.00  0.00    +0.000 A 
ATOM      6  C   UNL     1      19.193  -5.087  26.291  0.00  0.00    +0.000 A 
ATOM      7  C   UNL     1      18.199  -5.589  27.090  0.00  0.00    +0.000 A 
ATOM      8  C   UNL     1      18.077  -6.962  27.340  0.00  0.00    +0.000 A 
ATOM      9  C   UNL     1      18.987  -7.819  26.768  0.00  0.00    +0.000 A 
ATOM     10 BR   UNL     1      18.929  -9.708  27.143  0.00  0.00    +0.000 Br
ENDBRANCH   2   4
BRANCH   3  11
ATOM     11  N   UNL     1      21.597  -9.816  23.563  0.00  0.00    +0.000 NA
BRANCH  11  12
ATOM     12  C   UNL     1      22.882  -9.812  23.186  0.00  0.00    +0.000 C 
ATOM     13  C   UNL     1      23.746  -8.918  22.820  0.00  0.00    +0.000 C 
ATOM     14  C   UNL     1      23.306  -7.507  22.770  0.00  0.00    +0.000 C 
ATOM     15  C   UNL     1      24.257  -6.722  23.599  0.00  0.00    +0.000 C 
ATOM     16  C   UNL     1      25.543  -7.029  23.572  0.00  0.00    +0.000 C 
ATOM     17  C   UNL     1      26.100  -8.124  22.749  0.00  0.00    +0.000 C 
ATOM     18  C   UNL     1      25.139  -9.216  22.418  0.00  0.00    +0.000 C 
ENDBRANCH  11  12
ENDBRANCH   3  11
TORSDOF 3
ENDMDL
MODEL 3
REMARK VINA RESULT:      -5.9     28.115     30.404
REMARK  Name = 
REMARK  3 active torsions:
REMARK  status: ('A' for Active; 'I' for Inactive)
REMARK    1  A    between atoms: C_2  and  C_12
REMARK    2  A    between atoms: N_3  and  N_4
REMARK    3  A    between atoms: N_4  and  C_5
REMARK                            x       y       z     vdW  Elec       q    Type
REMARK                         _______ _______ _______ _____ _____    ______ ____
ROOT
ATOM      1  O   UNL     1      36.494  18.717  11.885  0.00  0.00    +0.000 OA
ATOM      2  C   UNL     1      35.856  18.997  12.940  0.00  0.00    +0.000 C 
ATOM      3  N   UNL     1      34.750  19.887  12.739  0.00  0.00    +0.000 NA
ENDROOT
BRANCH   2   4
ATOM      4  C   UNL     1      36.306  18.427  14.179  0.00  0.00    +0.000 A 
ATOM      5  C   UNL     1      35.831  17.285  14.714  0.00  0.00    +0.000 A 
ATOM      6  C   UNL     1      36.346  16.759  15.865  0.00  0.00    +0.000 A 
ATOM      7  C   UNL     1      37.374  17.424  16.482  0.00  0.00    +0.000 A 
ATOM      8  C   UNL     1      37.901  18.613  15.960  0.00  0.00    +0.000 A 
ATOM      9  C   UNL     1      37.364  19.118  14.800  0.00  0.00    +0.000 A 
ATOM     10 BR   UNL     1      37.984  20.793  14.078  0.00  0.00    +0.000 Br
ENDBRANCH   2   4
BRANCH   3  11
ATOM     11  N   UNL     1      34.388  20.391  11.515  0.00  0.00    +0.000 NA
BRANCH  11  12
ATOM     12  C   UNL     1      33.241  20.516  10.835  0.00  0.00    +0.000 C 
ATOM     13  C   UNL     1      31.986  20.645  11.132  0.00  0.00    +0.000 C 
ATOM     14  C   UNL     1      31.612  20.673  12.562  0.00  0.00    +0.000 C 
ATOM     15  C   UNL     1      30.819  21.911  12.783  0.00  0.00    +0.000 C 
ATOM     16  C   UNL     1      29.964  22.305  11.854  0.00  0.00    +0.000 C 
ATOM     17  C   UNL     1      29.745  21.571  10.589  0.00  0.00    +0.000 C 
ATOM     18  C   UNL     1      30.895  20.736  10.136  0.00  0.00    +0.000 C 
ENDBRANCH  11  12
ENDBRANCH   3  11
TORSDOF 3
ENDMDL
MODEL 4
REMARK VINA RESULT:      -5.9     18.989     22.018
REMARK  Name = 
REMARK  3 active torsions:
REMARK  status: ('A' for Active; 'I' for Inactive)
REMARK    1  A    between atoms: C_2  and  C_12
REMARK    2  A    between atoms: N_3  and  N_4
REMARK    3  A    between atoms: N_4  and  C_5
REMARK                            x       y       z     vdW  Elec       q    Type
REMARK                         _______ _______ _______ _____ _____    ______ ____
ROOT
ATOM      1  O   UNL     1      17.672   9.691  36.791  0.00  0.00    +0.000 OA
ATOM      2  C   UNL     1      17.273  10.762  37.331  0.00  0.00    +0.000 C 
ATOM      3  N   UNL     1      18.328  11.640  37.743  0.00  0.00    +0.000 NA
ENDROOT
BRANCH   2   4
ATOM      4  C   UNL     1      15.858  10.961  37.482  0.00  0.00    +0.000 A 
ATOM      5  C   UNL     1      15.166  10.717  38.611  0.00  0.00    +0.000 A 
ATOM      6  C   UNL     1      13.831  10.989  38.712  0.00  0.00    +0.000 A 
ATOM      7  C   UNL     1      13.192  11.523  37.623  0.00  0.00    +0.000 A 
ATOM      8  C   UNL     1      13.873  11.796  36.429  0.00  0.00    +0.000 A 
ATOM      9  C   UNL     1      15.216  11.514  36.358  0.00  0.00    +0.000 A 
ATOM     10 BR   UNL     1      16.191  11.784  34.718  0.00  0.00    +0.000 Br
ENDBRANCH   2   4
BRANCH   3  11
ATOM     11  N   UNL     1      19.662  11.370  37.564  0.00  0.00    +0.000 NA
BRANCH  11  12
ATOM     12  C   UNL     1      20.585  10.647  38.210  0.00  0.00    +0.000 C 
ATOM     13  C   UNL     1      21.580   9.886  37.875  0.00  0.00    +0.000 C 
ATOM     14  C   UNL     1      21.856   9.699  36.435  0.00  0.00    +0.000 C 
ATOM     15  C   UNL     1      23.281  10.056  36.212  0.00  0.00    +0.000 C 
ATOM     16  C   UNL     1      24.182   9.720  37.121  0.00  0.00    +0.000 C 
ATOM     17  C   UNL     1      23.847   8.994  38.365  0.00  0.00    +0.000 C 
ATOM     18  C   UNL     1      22.443   9.166  38.838  0.00  0.00    +0.000 C 
ENDBRANCH  11  12
ENDBRANCH   3  11
TORSDOF 3
ENDMDL
MODEL 5
REMARK VINA RESULT:      -5.9     17.598     20.428
REMARK  Name = 
REMARK  3 active torsions:
REMARK  status: ('A' for Active; 'I' for Inactive)
REMARK    1  A    between atoms: C_2  and  C_12
REMARK    2  A    between atoms: N_3  and  N_4
REMARK    3  A    between atoms: N_4  and  C_5
REMARK                            x       y       z     vdW  Elec       q    Type
REMARK                         _______ _______ _______ _____ _____    ______ ____
ROOT
ATOM      1  O   UNL     1      20.036   9.167  40.106  0.00  0.00    +0.000 OA
ATOM      2  C   UNL     1      18.939   9.066  39.487  0.00  0.00    +0.000 C 
ATOM      3  N   UNL     1      19.033   9.316  38.080  0.00  0.00    +0.000 NA
ENDROOT
BRANCH   2   4
ATOM      4  C   UNL     1      17.760   8.741  40.242  0.00  0.00    +0.000 A 
ATOM      5  C   UNL     1      16.786   9.618  40.555  0.00  0.00    +0.000 A 
ATOM      6  C   UNL     1      15.656   9.233  41.221  0.00  0.00    +0.000 A 
ATOM      7  C   UNL     1      15.526   7.915  41.574  0.00  0.00    +0.000 A 
ATOM      8  C   UNL     1      16.513   6.969  41.266  0.00  0.00    +0.000 A 
ATOM      9  C   UNL     1      17.637   7.384  40.594  0.00  0.00    +0.000 A 
ATOM     10 BR   UNL     1      19.069   6.152  40.218  0.00  0.00    +0.000 Br
ENDBRANCH   2   4
BRANCH   3  11
ATOM     11  N   UNL     1      20.205   9.625  37.435  0.00  0.00    +0.000 NA
BRANCH  11  12
ATOM     12  C   UNL     1      21.181  10.526  37.606  0.00  0.00    +0.000 C 
ATOM     13  C   UNL     1      22.475  10.530  37.530  0.00  0.00    +0.000 C 
ATOM     14  C   UNL     1      23.152   9.267  37.168  0.00  0.00    +0.000 C 
ATOM     15  C   UNL     1      24.025   9.557  36.000  0.00  0.00    +0.000 C 
ATOM     16  C   UNL     1      24.673  10.709  35.949  0.00  0.00    +0.000 C 
ATOM     17  C   UNL     1      24.581  11.741  37.004  0.00  0.00    +0.000 C 
ATOM     18  C   UNL     1      23.326  11.709  37.810  0.00  0.00    +0.000 C 
ENDBRANCH  11  12
ENDBRANCH   3  11
TORSDOF 3
ENDMDL
MODEL 6
REMARK VINA RESULT:      -5.8     28.429     31.456
REMARK  Name = 
REMARK  3 active torsions:
REMARK  status: ('A' for Active; 'I' for Inactive)
REMARK    1  A    between atoms: C_2  and  C_12
REMARK    2  A    between atoms: N_3  and  N_4
REMARK    3  A    between atoms: N_4  and  C_5
REMARK                            x       y       z     vdW  Elec       q    Type
REMARK                         _______ _______ _______ _____ _____    ______ ____
ROOT
ATOM      1  O   UNL     1      29.792  26.007  22.868  0.00  0.00    +0.000 OA
ATOM      2  C   UNL     1      29.738  24.764  22.645  0.00  0.00    +0.000 C 
ATOM      3  N   UNL     1      29.650  24.420  21.257  0.00  0.00    +0.000 NA
ENDROOT
BRANCH   2   4
ATOM      4  C   UNL     1      29.754  23.870  23.769  0.00  0.00    +0.000 A 
ATOM      5  C   UNL     1      30.870  23.375  24.339  0.00  0.00    +0.000 A 
ATOM      6  C   UNL     1      30.822  22.579  25.448  0.00  0.00    +0.000 A 
ATOM      7  C   UNL     1      29.595  22.283  25.984  0.00  0.00    +0.000 A 
ATOM      8  C   UNL     1      28.409  22.779  25.427  0.00  0.00    +0.000 A 
ATOM      9  C   UNL     1      28.488  23.578  24.312  0.00  0.00    +0.000 A 
ATOM     10 BR   UNL     1      26.891  24.219  23.446  0.00  0.00    +0.000 Br
ENDBRANCH   2   4
BRANCH   3  11
ATOM     11  N   UNL     1      29.638  25.342  20.240  0.00  0.00    +0.000 NA
BRANCH  11  12
ATOM     12  C   UNL     1      29.511  26.672  20.158  0.00  0.00    +0.000 C 
ATOM     13  C   UNL     1      29.820  27.590  19.297  0.00  0.00    +0.000 C 
ATOM     14  C   UNL     1      30.490  27.172  18.048  0.00  0.00    +0.000 C 
ATOM     15  C   UNL     1      29.688  27.713  16.918  0.00  0.00    +0.000 C 
ATOM     16  C   UNL     1      29.151  28.917  17.026  0.00  0.00    +0.000 C 
ATOM     17  C   UNL     1      29.308  29.772  18.222  0.00  0.00    +0.000 C 
ATOM     18  C   UNL     1      29.575  29.037  19.493  0.00  0.00    +0.000 C 
ENDBRANCH  11  12
ENDBRANCH   3  11
TORSDOF 3
ENDMDL
MODEL 7
REMARK VINA RESULT:      -5.6     18.643     20.290
REMARK  Name = 
REMARK  3 active torsions:
REMARK  status: ('A' for Active; 'I' for Inactive)
REMARK    1  A    between atoms: C_2  and  C_12
REMARK    2  A    between atoms: N_3  and  N_4
REMARK    3  A    between atoms: N_4  and  C_5
REMARK                            x       y       z     vdW  Elec       q    Type
REMARK                         _______ _______ _______ _____ _____    ______ ____
ROOT
ATOM      1  O   UNL     1      25.957   2.900  17.454  0.00  0.00    +0.000 OA
ATOM      2  C   UNL     1      25.511   4.025  17.820  0.00  0.00    +0.000 C 
ATOM      3  N   UNL     1      24.100   4.043  18.069  0.00  0.00    +0.000 NA
ENDROOT
BRANCH   2   4
ATOM      4  C   UNL     1      26.433   5.122  17.925  0.00  0.00    +0.000 A 
ATOM      5  C   UNL     1      27.029   5.514  19.068  0.00  0.00    +0.000 A 
ATOM      6  C   UNL     1      27.947   6.526  19.091  0.00  0.00    +0.000 A 
ATOM      7  C   UNL     1      28.259   7.150  17.911  0.00  0.00    +0.000 A 
ATOM      8  C   UNL     1      27.665   6.772  16.699  0.00  0.00    +0.000 A 
ATOM      9  C   UNL     1      26.746   5.750  16.705  0.00  0.00    +0.000 A 
ATOM     10 BR   UNL     1      25.830   5.242  15.089  0.00  0.00    +0.000 Br
ENDBRANCH   2   4
BRANCH   3  11
ATOM     11  N   UNL     1      23.286   2.945  17.941  0.00  0.00    +0.000 NA
BRANCH  11  12
ATOM     12  C   UNL     1      21.973   2.709  18.058  0.00  0.00    +0.000 C 
ATOM     13  C   UNL     1      20.991   2.466  17.248  0.00  0.00    +0.000 C 
ATOM     14  C   UNL     1      21.284   2.412  15.800  0.00  0.00    +0.000 C 
ATOM     15  C   UNL     1      20.777   1.107  15.299  0.00  0.00    +0.000 C 
ATOM     16  C   UNL     1      19.640   0.629  15.776  0.00  0.00    +0.000 C 
ATOM     17  C   UNL     1      18.827   1.332  16.793  0.00  0.00    +0.000 C 
ATOM     18  C   UNL     1      19.587   2.268  17.672  0.00  0.00    +0.000 C 
ENDBRANCH  11  12
ENDBRANCH   3  11
TORSDOF 3
ENDMDL
MODEL 8
REMARK VINA RESULT:      -5.6     25.644     28.591
REMARK  Name = 
REMARK  3 active torsions:
REMARK  status: ('A' for Active; 'I' for Inactive)
REMARK    1  A    between atoms: C_2  and  C_12
REMARK    2  A    between atoms: N_3  and  N_4
REMARK    3  A    between atoms: N_4  and  C_5
REMARK                            x       y       z     vdW  Elec       q    Type
REMARK                         _______ _______ _______ _____ _____    ______ ____
ROOT
ATOM      1  O   UNL     1      19.854  22.707  35.652  0.00  0.00    +0.000 OA
ATOM      2  C   UNL     1      19.053  21.741  35.807  0.00  0.00    +0.000 C 
ATOM      3  N   UNL     1      19.339  20.918  36.945  0.00  0.00    +0.000 NA
ENDROOT
BRANCH   2   4
ATOM      4  C   UNL     1      17.995  21.575  34.850  0.00  0.00    +0.000 A 
ATOM      5  C   UNL     1      18.062  20.778  33.766  0.00  0.00    +0.000 A 
ATOM      6  C   UNL     1      16.997  20.612  32.926  0.00  0.00    +0.000 A 
ATOM      7  C   UNL     1      15.835  21.283  33.207  0.00  0.00    +0.000 A 
ATOM      8  C   UNL     1      15.720  22.120  34.325  0.00  0.00    +0.000 A 
ATOM      9  C   UNL     1      16.807  22.267  35.153  0.00  0.00    +0.000 A 
ATOM     10 BR   UNL     1      16.743  23.470  36.656  0.00  0.00    +0.000 Br
ENDBRANCH   2   4
BRANCH   3  11
ATOM     11  N   UNL     1      20.378  21.147  37.812  0.00  0.00    +0.000 NA
BRANCH  11  12
ATOM     12  C   UNL     1      21.626  20.684  37.951  0.00  0.00    +0.000 C 
ATOM     13  C   UNL     1      22.186  19.657  38.511  0.00  0.00    +0.000 C 
ATOM     14  C   UNL     1      21.315  18.683  39.202  0.00  0.00    +0.000 C 
ATOM     15  C   UNL     1      21.614  17.345  38.629  0.00  0.00    +0.000 C 
ATOM     16  C   UNL     1      22.864  17.036  38.326  0.00  0.00    +0.000 C 
ATOM     17  C   UNL     1      24.001  17.959  38.531  0.00  0.00    +0.000 C 
ATOM     18  C   UNL     1      23.645  19.408  38.531  0.00  0.00    +0.000 C 
ENDBRANCH  11  12
ENDBRANCH   3  11
TORSDOF 3
ENDMDL
MODEL 9
REMARK VINA RESULT:      -5.5     13.515     15.617
REMARK  Name = 
REMARK  3 active torsions:
REMARK  status: ('A' for Active; 'I' for Inactive)
REMARK    1  A    between atoms: C_2  and  C_12
REMARK    2  A    between atoms: N_3  and  N_4
REMARK    3  A    between atoms: N_4  and  C_5
REMARK                            x       y       z     vdW  Elec       q    Type
REMARK                         _______ _______ _______ _____ _____    ______ ____
ROOT
ATOM      1  O   UNL     1      20.363  -8.409  24.355  0.00  0.00    +0.000 OA
ATOM      2  C   UNL     1      20.577  -7.872  25.480  0.00  0.00    +0.000 C 
ATOM      3  N   UNL     1      21.621  -6.891  25.473  0.00  0.00    +0.000 NA
ENDROOT
BRANCH   2   4
ATOM      4  C   UNL     1      19.789  -8.303  26.600  0.00  0.00    +0.000 A 
ATOM      5  C   UNL     1      18.613  -7.755  26.966  0.00  0.00    +0.000 A 
ATOM      6  C   UNL     1      17.878  -8.253  28.005  0.00  0.00    +0.000 A 
ATOM      7  C   UNL     1      18.364  -9.339  28.685  0.00  0.00    +0.000 A 
ATOM      8  C   UNL     1      19.580  -9.943  28.337  0.00  0.00    +0.000 A 
ATOM      9  C   UNL     1      20.297  -9.422  27.287  0.00  0.00    +0.000 A 
ATOM     10 BR   UNL     1      22.017 -10.150  26.814  0.00  0.00    +0.000 Br
ENDBRANCH   2   4
BRANCH   3  11
ATOM     11  N   UNL     1      22.331  -6.538  24.352  0.00  0.00    +0.000 NA
BRANCH  11  12
ATOM     12  C   UNL     1      23.615  -6.597  23.976  0.00  0.00    +0.000 C 
ATOM     13  C   UNL     1      24.465  -7.534  23.695  0.00  0.00    +0.000 C 
ATOM     14  C   UNL     1      24.004  -8.936  23.778  0.00  0.00    +0.000 C 
ATOM     15  C   UNL     1      24.304  -9.574  22.469  0.00  0.00    +0.000 C 
ATOM     16  C   UNL     1      25.429  -9.269  21.844  0.00  0.00    +0.000 C 
ATOM     17  C   UNL     1      26.425  -8.318  22.383  0.00  0.00    +0.000 C 
ATOM     18  C   UNL     1      25.879  -7.297  23.324  0.00  0.00    +0.000 C 
ENDBRANCH  11  12
ENDBRANCH   3  11
TORSDOF 3
ENDMDL
MODEL 10
REMARK VINA RESULT:      -5.5     19.978     22.355
REMARK  Name = 
REMARK  3 active torsions:
REMARK  status: ('A' for Active; 'I' for Inactive)
REMARK    1  A    between atoms: C_2  and  C_12
REMARK    2  A    between atoms: N_3  and  N_4
REMARK    3  A    between atoms: N_4  and  C_5
REMARK                            x       y       z     vdW  Elec       q    Type
REMARK                         _______ _______ _______ _____ _____    ______ ____
ROOT
ATOM      1  O   UNL     1      18.365  10.654  38.075  0.00  0.00    +0.000 OA
ATOM      2  C   UNL     1      17.106  10.590  37.983  0.00  0.00    +0.000 C 
ATOM      3  N   UNL     1      16.472   9.910  39.073  0.00  0.00    +0.000 NA
ENDROOT
BRANCH   2   4
ATOM      4  C   UNL     1      16.479  11.169  36.828  0.00  0.00    +0.000 A 
ATOM      5  C   UNL     1      15.710  12.275  36.848  0.00  0.00    +0.000 A 
ATOM      6  C   UNL     1      15.193  12.815  35.704  0.00  0.00    +0.000 A 
ATOM      7  C   UNL     1      15.471  12.201  34.511  0.00  0.00    +0.000 A 
ATOM      8  C   UNL     1      16.268  11.050  34.443  0.00  0.00    +0.000 A 
ATOM      9  C   UNL     1      16.776  10.530  35.609  0.00  0.00    +0.000 A 
ATOM     10 BR   UNL     1      17.804   8.901  35.594  0.00  0.00    +0.000 Br
ENDBRANCH   2   4
BRANCH   3  11
ATOM     11  N   UNL     1      17.150   9.381  40.143  0.00  0.00    +0.000 NA
BRANCH  11  12
ATOM     12  C   UNL     1      17.023   8.290  40.909  0.00  0.00    +0.000 C 
ATOM     13  C   UNL     1      17.542   7.102  40.939  0.00  0.00    +0.000 C 
ATOM     14  C   UNL     1      18.542   6.756  39.907  0.00  0.00    +0.000 C 
ATOM     15  C   UNL     1      19.757   6.277  40.618  0.00  0.00    +0.000 C 
ATOM     16  C   UNL     1      19.619   5.531  41.701  0.00  0.00    +0.000 C 
ATOM     17  C   UNL     1      18.305   5.136  42.254  0.00  0.00    +0.000 C 
ATOM     18  C   UNL     1      17.178   6.055  41.920  0.00  0.00    +0.000 C 
ENDBRANCH  11  12
ENDBRANCH   3  11
TORSDOF 3
ENDMDL
