MODEL 1
REMARK VINA RESULT:      -7.6      0.000      0.000
REMARK  Name = 
REMARK  4 active torsions:
REMARK  status: ('A' for Active; 'I' for Inactive)
REMARK    1  A    between atoms: C_6  and  N_7
REMARK    2  A    between atoms: N_7  and  C_8
REMARK    3  A    between atoms: N_11  and  C_12
REMARK    4  A    between atoms: C_12  and  C_13
REMARK                            x       y       z     vdW  Elec       q    Type
REMARK                         _______ _______ _______ _____ _____    ______ ____
ROOT
ATOM      1  C   UNL     1      14.322  12.876  31.606  0.00  0.00    +0.000 C 
ATOM      2  N   UNL     1      14.943  12.221  32.760  0.00  0.00    +0.000 N 
ATOM      3  C   UNL     1      15.741  11.155  32.605  0.00  0.00    +0.000 A 
ATOM      4  O   UNL     1      15.935  10.739  31.418  0.00  0.00    +0.000 OA
ATOM      5  C   UNL     1      16.318  10.546  33.689  0.00  0.00    +0.000 A 
ATOM      6  C   UNL     1      16.051  11.070  34.969  0.00  0.00    +0.000 A 
ATOM      7  N   UNL     1      15.257  12.135  35.124  0.00  0.00    +0.000 N 
ATOM      8  C   UNL     1      14.719  12.685  33.994  0.00  0.00    +0.000 A 
ATOM      9  O   UNL     1      13.964  13.694  34.136  0.00  0.00    +0.000 OA
ENDROOT
BRANCH   6  10
ATOM     10  N   UNL     1      16.628  10.392  36.074  0.00  0.00    +0.000 NA
BRANCH  10  11
ATOM     11  C   UNL     1      18.015  10.553  36.389  0.00  0.00    +0.000 C 
ATOM     12  C   UNL     1      19.012   9.514  36.120  0.00  0.00    +0.000 C 
ATOM     13  C   UNL     1      18.585   9.831  37.584  0.00  0.00    +0.000 C 
ENDBRANCH  10  11
ENDBRANCH   6  10
BRANCH   7  14
ATOM     14  C   UNL     1      15.006  12.772  36.404  0.00  0.00    +0.000 C 
BRANCH  14  15
ATOM     15  C   UNL     1      13.939  12.004  37.095  0.00  0.00    +0.000 A 
ATOM     16  C   UNL     1      14.333  11.271  38.231  0.00  0.00    +0.000 A 
ATOM     17  C   UNL     1      13.424  10.527  38.945  0.00  0.00    +0.000 A 
ATOM     18  C   UNL     1      12.095  10.461  38.586  0.00  0.00    +0.000 A 
ATOM     19  C   UNL     1      11.710  11.183  37.468  0.00  0.00    +0.000 A 
ATOM     20  C   UNL     1      12.623  11.928  36.755  0.00  0.00    +0.000 A 
ENDBRANCH  14  15
ENDBRANCH   7  14
TORSDOF 4
ENDMDL
MODEL 2
REMARK VINA RESULT:      -6.1     21.088     23.020
REMARK  Name = 
REMARK  4 active torsions:
REMARK  status: ('A' for Active; 'I' for Inactive)
REMARK    1  A    between atoms: C_6  and  N_7
REMARK    2  A    between atoms: N_7  and  C_8
REMARK    3  A    between atoms: N_11  and  C_12
REMARK    4  A    between atoms: C_12  and  C_13
REMARK                            x       y       z     vdW  Elec       q    Type
REMARK                         _______ _______ _______ _____ _____    ______ ____
ROOT
ATOM      1  C   UNL     1      29.536  26.779  19.839  0.00  0.00    +0.000 C 
ATOM      2  N   UNL     1      28.881  26.390  21.091  0.00  0.00    +0.000 N 
ATOM      3  C   UNL     1      28.145  27.267  21.789  0.00  0.00    +0.000 A 
ATOM      4  O   UNL     1      28.039  28.444  21.319  0.00  0.00    +0.000 OA
ATOM      5  C   UNL     1      27.536  26.897  22.961  0.00  0.00    +0.000 A 
ATOM      6  C   UNL     1      27.704  25.572  23.411  0.00  0.00    +0.000 A 
ATOM      7  N   UNL     1      28.437  24.698  22.713  0.00  0.00    +0.000 N 
ATOM      8  C   UNL     1      29.012  25.143  21.556  0.00  0.00    +0.000 A 
ATOM      9  O   UNL     1      29.709  24.317  20.892  0.00  0.00    +0.000 OA
ENDROOT
BRANCH   6  10
ATOM     10  N   UNL     1      27.098  25.233  24.648  0.00  0.00    +0.000 NA
BRANCH  10  11
ATOM     11  C   UNL     1      27.413  25.958  25.841  0.00  0.00    +0.000 C 
ATOM     12  C   UNL     1      28.777  26.058  26.367  0.00  0.00    +0.000 C 
ATOM     13  C   UNL     1      27.711  25.194  27.106  0.00  0.00    +0.000 C 
ENDBRANCH  10  11
ENDBRANCH   6  10
BRANCH   7  14
ATOM     14  C   UNL     1      28.585  23.301  23.079  0.00  0.00    +0.000 C 
BRANCH  14  15
ATOM     15  C   UNL     1      29.576  23.218  24.182  0.00  0.00    +0.000 A 
ATOM     16  C   UNL     1      29.177  22.506  25.329  0.00  0.00    +0.000 A 
ATOM     17  C   UNL     1      30.018  22.369  26.407  0.00  0.00    +0.000 A 
ATOM     18  C   UNL     1      31.282  22.919  26.418  0.00  0.00    +0.000 A 
ATOM     19  C   UNL     1      31.672  23.619  25.289  0.00  0.00    +0.000 A 
ATOM     20  C   UNL     1      30.828  23.754  24.209  0.00  0.00    +0.000 A 
ENDBRANCH  14  15
ENDBRANCH   7  14
TORSDOF 4
ENDMDL
MODEL 3
REMARK VINA RESULT:      -6.0     18.515     20.781
REMARK  Name = 
REMARK  4 active torsions:
REMARK  status: ('A' for Active; 'I' for Inactive)
REMARK    1  A    between atoms: C_6  and  N_7
REMARK    2  A    between atoms: N_7  and  C_8
REMARK    3  A    between atoms: N_11  and  C_12
REMARK    4  A    between atoms: C_12  and  C_13
REMARK                            x       y       z     vdW  Elec       q    Type
REMARK                         _______ _______ _______ _____ _____    ______ ____
ROOT
ATOM      1  C   UNL     1      25.671  24.626  29.742  0.00  0.00    +0.000 C 
ATOM      2  N   UNL     1      25.976  24.180  28.380  0.00  0.00    +0.000 N 
ATOM      3  C   UNL     1      25.235  24.582  27.338  0.00  0.00    +0.000 A 
ATOM      4  O   UNL     1      24.262  25.365  27.581  0.00  0.00    +0.000 OA
ATOM      5  C   UNL     1      25.525  24.160  26.066  0.00  0.00    +0.000 A 
ATOM      6  C   UNL     1      26.621  23.294  25.883  0.00  0.00    +0.000 A 
ATOM      7  N   UNL     1      27.361  22.895  26.923  0.00  0.00    +0.000 N 
ATOM      8  C   UNL     1      27.008  23.358  28.160  0.00  0.00    +0.000 A 
ATOM      9  O   UNL     1      27.706  22.981  29.149  0.00  0.00    +0.000 OA
ENDROOT
BRANCH   6  10
ATOM     10  N   UNL     1      26.868  22.841  24.562  0.00  0.00    +0.000 NA
BRANCH  10  11
ATOM     11  C   UNL     1      26.964  23.769  23.477  0.00  0.00    +0.000 C 
ATOM     12  C   UNL     1      28.012  23.683  22.456  0.00  0.00    +0.000 C 
ATOM     13  C   UNL     1      28.036  24.829  23.511  0.00  0.00    +0.000 C 
ENDBRANCH  10  11
ENDBRANCH   6  10
BRANCH   7  14
ATOM     14  C   UNL     1      28.548  22.069  26.796  0.00  0.00    +0.000 C 
BRANCH  14  15
ATOM     15  C   UNL     1      29.631  22.910  26.225  0.00  0.00    +0.000 A 
ATOM     16  C   UNL     1      30.321  22.375  25.121  0.00  0.00    +0.000 A 
ATOM     17  C   UNL     1      31.341  23.072  24.517  0.00  0.00    +0.000 A 
ATOM     18  C   UNL     1      31.734  24.316  24.960  0.00  0.00    +0.000 A 
ATOM     19  C   UNL     1      31.054  24.840  26.047  0.00  0.00    +0.000 A 
ATOM     20  C   UNL     1      30.032  24.140  26.650  0.00  0.00    +0.000 A 
ENDBRANCH  14  15
ENDBRANCH   7  14
TORSDOF 4
ENDMDL
MODEL 4
REMARK VINA RESULT:      -5.9     18.615     20.935
REMARK  Name = 
REMARK  4 active torsions:
REMARK  status: ('A' for Active; 'I' for Inactive)
REMARK    1  A    between atoms: C_6  and  N_7
REMARK    2  A    between atoms: N_7  and  C_8
REMARK    3  A    between atoms: N_11  and  C_12
REMARK    4  A    between atoms: C_12  and  C_13
REMARK                            x       y       z     vdW  Elec       q    Type
REMARK                         _______ _______ _______ _____ _____    ______ ____
ROOT
ATOM      1  C   UNL     1      23.961  26.105  27.765  0.00  0.00    +0.000 C 
ATOM      2  N   UNL     1      24.925  25.121  27.267  0.00  0.00    +0.000 N 
ATOM      3  C   UNL     1      25.684  24.406  28.110  0.00  0.00    +0.000 A 
ATOM      4  O   UNL     1      25.530  24.617  29.355  0.00  0.00    +0.000 OA
ATOM      5  C   UNL     1      26.586  23.488  27.637  0.00  0.00    +0.000 A 
ATOM      6  C   UNL     1      26.694  23.315  26.243  0.00  0.00    +0.000 A 
ATOM      7  N   UNL     1      25.936  24.028  25.403  0.00  0.00    +0.000 N 
ATOM      8  C   UNL     1      25.061  24.923  25.951  0.00  0.00    +0.000 A 
ATOM      9  O   UNL     1      24.342  25.602  25.158  0.00  0.00    +0.000 OA
ENDROOT
BRANCH   6  10
ATOM     10  N   UNL     1      27.666  22.390  25.784  0.00  0.00    +0.000 NA
BRANCH  10  11
ATOM     11  C   UNL     1      29.044  22.540  26.137  0.00  0.00    +0.000 C 
ATOM     12  C   UNL     1      29.810  23.752  25.831  0.00  0.00    +0.000 C 
ATOM     13  C   UNL     1      30.094  22.428  25.060  0.00  0.00    +0.000 C 
ENDBRANCH  10  11
ENDBRANCH   6  10
BRANCH   7  14
ATOM     14  C   UNL     1      25.940  23.843  23.962  0.00  0.00    +0.000 C 
BRANCH  14  15
ATOM     15  C   UNL     1      27.139  24.529  23.417  0.00  0.00    +0.000 A 
ATOM     16  C   UNL     1      27.882  23.819  22.455  0.00  0.00    +0.000 A 
ATOM     17  C   UNL     1      29.009  24.363  21.886  0.00  0.00    +0.000 A 
ATOM     18  C   UNL     1      29.463  25.619  22.227  0.00  0.00    +0.000 A 
ATOM     19  C   UNL     1      28.730  26.315  23.174  0.00  0.00    +0.000 A 
ATOM     20  C   UNL     1      27.601  25.768  23.742  0.00  0.00    +0.000 A 
ENDBRANCH  14  15
ENDBRANCH   7  14
TORSDOF 4
ENDMDL
MODEL 5
REMARK VINA RESULT:      -5.5     18.612     20.956
REMARK  Name = 
REMARK  4 active torsions:
REMARK  status: ('A' for Active; 'I' for Inactive)
REMARK    1  A    between atoms: C_6  and  N_7
REMARK    2  A    between atoms: N_7  and  C_8
REMARK    3  A    between atoms: N_11  and  C_12
REMARK    4  A    between atoms: C_12  and  C_13
REMARK                            x       y       z     vdW  Elec       q    Type
REMARK                         _______ _______ _______ _____ _____    ______ ____
ROOT
ATOM      1  C   UNL     1      28.389  23.994  30.772  0.00  0.00    +0.000 C 
ATOM      2  N   UNL     1      27.939  23.624  29.428  0.00  0.00    +0.000 N 
ATOM      3  C   UNL     1      26.638  23.645  29.103  0.00  0.00    +0.000 A 
ATOM      4  O   UNL     1      25.817  23.999  30.007  0.00  0.00    +0.000 OA
ATOM      5  C   UNL     1      26.223  23.296  27.844  0.00  0.00    +0.000 A 
ATOM      6  C   UNL     1      27.198  22.916  26.900  0.00  0.00    +0.000 A 
ATOM      7  N   UNL     1      28.495  22.897  27.224  0.00  0.00    +0.000 N 
ATOM      8  C   UNL     1      28.830  23.258  28.499  0.00  0.00    +0.000 A 
ATOM      9  O   UNL     1      30.059  23.240  28.811  0.00  0.00    +0.000 OA
ENDROOT
BRANCH   6  10
ATOM     10  N   UNL     1      26.733  22.519  25.620  0.00  0.00    +0.000 NA
BRANCH  10  11
ATOM     11  C   UNL     1      25.800  23.329  24.897  0.00  0.00    +0.000 C 
ATOM     12  C   UNL     1      25.948  23.619  23.469  0.00  0.00    +0.000 C 
ATOM     13  C   UNL     1      26.187  24.739  24.526  0.00  0.00    +0.000 C 
ENDBRANCH  10  11
ENDBRANCH   6  10
BRANCH   7  14
ATOM     14  C   UNL     1      29.556  22.593  26.280  0.00  0.00    +0.000 C 
BRANCH  14  15
ATOM     15  C   UNL     1      29.668  23.734  25.336  0.00  0.00    +0.000 A 
ATOM     16  C   UNL     1      29.653  23.414  23.965  0.00  0.00    +0.000 A 
ATOM     17  C   UNL     1      29.751  24.395  23.007  0.00  0.00    +0.000 A 
ATOM     18  C   UNL     1      29.868  25.727  23.338  0.00  0.00    +0.000 A 
ATOM     19  C   UNL     1      29.883  26.039  24.688  0.00  0.00    +0.000 A 
ATOM     20  C   UNL     1      29.784  25.055  25.646  0.00  0.00    +0.000 A 
ENDBRANCH  14  15
ENDBRANCH   7  14
TORSDOF 4
ENDMDL
MODEL 6
REMARK VINA RESULT:      -5.5     22.500     25.510
REMARK  Name = 
REMARK  4 active torsions:
REMARK  status: ('A' for Active; 'I' for Inactive)
REMARK    1  A    between atoms: C_6  and  N_7
REMARK    2  A    between atoms: N_7  and  C_8
REMARK    3  A    between atoms: N_11  and  C_12
REMARK    4  A    between atoms: C_12  and  C_13
REMARK                            x       y       z     vdW  Elec       q    Type
REMARK                         _______ _______ _______ _____ _____    ______ ____
ROOT
ATOM      1  C   UNL     1      36.861  -6.178  35.955  0.00  0.00    +0.000 C 
ATOM      2  N   UNL     1      36.100  -5.972  34.720  0.00  0.00    +0.000 N 
ATOM      3  C   UNL     1      36.600  -6.335  33.529  0.00  0.00    +0.000 A 
ATOM      4  O   UNL     1      37.755  -6.866  33.519  0.00  0.00    +0.000 OA
ATOM      5  C   UNL     1      35.883  -6.137  32.377  0.00  0.00    +0.000 A 
ATOM      6  C   UNL     1      34.610  -5.542  32.477  0.00  0.00    +0.000 A 
ATOM      7  N   UNL     1      34.112  -5.181  33.664  0.00  0.00    +0.000 N 
ATOM      8  C   UNL     1      34.887  -5.411  34.766  0.00  0.00    +0.000 A 
ATOM      9  O   UNL     1      34.419  -5.069  35.894  0.00  0.00    +0.000 OA
ENDROOT
BRANCH   6  10
ATOM     10  N   UNL     1      33.912  -5.311  31.263  0.00  0.00    +0.000 NA
BRANCH  10  11
ATOM     11  C   UNL     1      34.427  -5.798  30.020  0.00  0.00    +0.000 C 
ATOM     12  C   UNL     1      33.670  -5.717  28.767  0.00  0.00    +0.000 C 
ATOM     13  C   UNL     1      33.893  -7.094  29.462  0.00  0.00    +0.000 C 
ENDBRANCH  10  11
ENDBRANCH   6  10
BRANCH   7  14
ATOM     14  C   UNL     1      32.778  -4.638  33.845  0.00  0.00    +0.000 C 
BRANCH  14  15
ATOM     15  C   UNL     1      32.903  -3.169  34.027  0.00  0.00    +0.000 A 
ATOM     16  C   UNL     1      32.083  -2.589  35.013  0.00  0.00    +0.000 A 
ATOM     17  C   UNL     1      32.121  -1.238  35.262  0.00  0.00    +0.000 A 
ATOM     18  C   UNL     1      32.955  -0.392  34.564  0.00  0.00    +0.000 A 
ATOM     19  C   UNL     1      33.761  -0.965  33.594  0.00  0.00    +0.000 A 
ATOM     20  C   UNL     1      33.722  -2.320  33.347  0.00  0.00    +0.000 A 
ENDBRANCH  14  15
ENDBRANCH   7  14
TORSDOF 4
ENDMDL
MODEL 7
REMARK VINA RESULT:      -5.4     19.570     21.502
REMARK  Name = 
REMARK  4 active torsions:
REMARK  status: ('A' for Active; 'I' for Inactive)
REMARK    1  A    between atoms: C_6  and  N_7
REMARK    2  A    between atoms: N_7  and  C_8
REMARK    3  A    between atoms: N_11  and  C_12
REMARK    4  A    between atoms: C_12  and  C_13
REMARK                            x       y       z     vdW  Elec       q    Type
REMARK                         _______ _______ _______ _____ _____    ______ ____
ROOT
ATOM      1  C   UNL     1      28.555  25.983  21.877  0.00  0.00    +0.000 C 
ATOM      2  N   UNL     1      28.259  25.207  23.083  0.00  0.00    +0.000 N 
ATOM      3  C   UNL     1      27.182  25.478  23.835  0.00  0.00    +0.000 A 
ATOM      4  O   UNL     1      26.431  26.432  23.455  0.00  0.00    +0.000 OA
ATOM      5  C   UNL     1      26.912  24.748  24.964  0.00  0.00    +0.000 A 
ATOM      6  C   UNL     1      27.795  23.707  25.313  0.00  0.00    +0.000 A 
ATOM      7  N   UNL     1      28.868  23.436  24.562  0.00  0.00    +0.000 N 
ATOM      8  C   UNL     1      29.069  24.209  23.453  0.00  0.00    +0.000 A 
ATOM      9  O   UNL     1      30.087  23.956  22.739  0.00  0.00    +0.000 OA
ENDROOT
BRANCH   6  10
ATOM     10  N   UNL     1      27.512  22.999  26.509  0.00  0.00    +0.000 NA
BRANCH  10  11
ATOM     11  C   UNL     1      27.460  23.680  27.767  0.00  0.00    +0.000 C 
ATOM     12  C   UNL     1      27.616  22.984  29.048  0.00  0.00    +0.000 C 
ATOM     13  C   UNL     1      26.225  23.544  28.624  0.00  0.00    +0.000 C 
ENDBRANCH  10  11
ENDBRANCH   6  10
BRANCH   7  14
ATOM     14  C   UNL     1      29.772  22.330  24.821  0.00  0.00    +0.000 C 
BRANCH  14  15
ATOM     15  C   UNL     1      30.650  22.712  25.955  0.00  0.00    +0.000 A 
ATOM     16  C   UNL     1      30.617  21.871  27.083  0.00  0.00    +0.000 A 
ATOM     17  C   UNL     1      31.391  22.134  28.188  0.00  0.00    +0.000 A 
ATOM     18  C   UNL     1      32.231  23.225  28.245  0.00  0.00    +0.000 A 
ATOM     19  C   UNL     1      32.263  24.051  27.134  0.00  0.00    +0.000 A 
ATOM     20  C   UNL     1      31.486  23.785  26.028  0.00  0.00    +0.000 A 
ENDBRANCH  14  15
ENDBRANCH   7  14
TORSDOF 4
ENDMDL
MODEL 8
REMARK VINA RESULT:      -5.4     20.218     21.588
REMARK  Name = 
REMARK  4 active torsions:
REMARK  status: ('A' for Active; 'I' for Inactive)
REMARK    1  A    between atoms: C_6  and  N_7
REMARK    2  A    between atoms: N_7  and  C_8
REMARK    3  A    between atoms: N_11  and  C_12
REMARK    4  A    between atoms: C_12  and  C_13
REMARK                            x       y       z     vdW  Elec       q    Type
REMARK                         _______ _______ _______ _____ _____    ______ ____
ROOT
ATOM      1  C   UNL     1      33.500   0.800  33.866  0.00  0.00    +0.000 C 
ATOM      2  N   UNL     1      33.670   2.141  34.432  0.00  0.00    +0.000 N 
ATOM      3  C   UNL     1      33.681   3.228  33.647  0.00  0.00    +0.000 A 
ATOM      4  O   UNL     1      33.535   3.045  32.396  0.00  0.00    +0.000 OA
ATOM      5  C   UNL     1      33.844   4.479  34.182  0.00  0.00    +0.000 A 
ATOM      6  C   UNL     1      33.998   4.594  35.578  0.00  0.00    +0.000 A 
ATOM      7  N   UNL     1      33.986   3.510  36.361  0.00  0.00    +0.000 N 
ATOM      8  C   UNL     1      33.820   2.297  35.752  0.00  0.00    +0.000 A 
ATOM      9  O   UNL     1      33.809   1.266  36.491  0.00  0.00    +0.000 OA
ENDROOT
BRANCH   6  10
ATOM     10  N   UNL     1      34.207   5.897  36.097  0.00  0.00    +0.000 NA
BRANCH  10  11
ATOM     11  C   UNL     1      35.269   6.720  35.603  0.00  0.00    +0.000 C 
ATOM     12  C   UNL     1      36.683   6.386  35.799  0.00  0.00    +0.000 C 
ATOM     13  C   UNL     1      36.044   7.578  36.572  0.00  0.00    +0.000 C 
ENDBRANCH  10  11
ENDBRANCH   6  10
BRANCH   7  14
ATOM     14  C   UNL     1      34.060   3.563  37.810  0.00  0.00    +0.000 C 
BRANCH  14  15
ATOM     15  C   UNL     1      35.461   3.882  38.185  0.00  0.00    +0.000 A 
ATOM     16  C   UNL     1      35.638   4.932  39.105  0.00  0.00    +0.000 A 
ATOM     17  C   UNL     1      36.894   5.308  39.519  0.00  0.00    +0.000 A 
ATOM     18  C   UNL     1      38.031   4.680  39.057  0.00  0.00    +0.000 A 
ATOM     19  C   UNL     1      37.854   3.647  38.153  0.00  0.00    +0.000 A 
ATOM     20  C   UNL     1      36.595   3.272  37.739  0.00  0.00    +0.000 A 
ENDBRANCH  14  15
ENDBRANCH   7  14
TORSDOF 4
ENDMDL
MODEL 9
REMARK VINA RESULT:      -5.3     19.979     21.942
REMARK  Name = 
REMARK  4 active torsions:
REMARK  status: ('A' for Active; 'I' for Inactive)
REMARK    1  A    between atoms: C_6  and  N_7
REMARK    2  A    between atoms: N_7  and  C_8
REMARK    3  A    between atoms: N_11  and  C_12
REMARK    4  A    between atoms: C_12  and  C_13
REMARK                            x       y       z     vdW  Elec       q    Type
REMARK                         _______ _______ _______ _____ _____    ______ ____
ROOT
ATOM      1  C   UNL     1      33.241  24.367  27.889  0.00  0.00    +0.000 C 
ATOM      2  N   UNL     1      32.363  24.001  26.775  0.00  0.00    +0.000 N 
ATOM      3  C   UNL     1      32.691  24.297  25.509  0.00  0.00    +0.000 A 
ATOM      4  O   UNL     1      33.793  24.903  25.318  0.00  0.00    +0.000 OA
ATOM      5  C   UNL     1      31.864  23.953  24.471  0.00  0.00    +0.000 A 
ATOM      6  C   UNL     1      30.662  23.282  24.769  0.00  0.00    +0.000 A 
ATOM      7  N   UNL     1      30.336  22.986  26.032  0.00  0.00    +0.000 N 
ATOM      8  C   UNL     1      31.212  23.363  27.011  0.00  0.00    +0.000 A 
ATOM      9  O   UNL     1      30.906  23.086  28.210  0.00  0.00    +0.000 OA
ENDROOT
BRANCH   6  10
ATOM     10  N   UNL     1      29.808  22.978  23.678  0.00  0.00    +0.000 NA
BRANCH  10  11
ATOM     11  C   UNL     1      29.348  24.011  22.799  0.00  0.00    +0.000 C 
ATOM     12  C   UNL     1      28.465  25.091  23.246  0.00  0.00    +0.000 C 
ATOM     13  C   UNL     1      27.923  23.973  22.306  0.00  0.00    +0.000 C 
ENDBRANCH  10  11
ENDBRANCH   6  10
BRANCH   7  14
ATOM     14  C   UNL     1      29.154  22.229  26.401  0.00  0.00    +0.000 C 
BRANCH  14  15
ATOM     15  C   UNL     1      27.984  23.141  26.330  0.00  0.00    +0.000 A 
ATOM     16  C   UNL     1      26.862  22.665  25.626  0.00  0.00    +0.000 A 
ATOM     17  C   UNL     1      25.727  23.431  25.500  0.00  0.00    +0.000 A 
ATOM     18  C   UNL     1      25.633  24.690  26.052  0.00  0.00    +0.000 A 
ATOM     19  C   UNL     1      26.739  25.156  26.744  0.00  0.00    +0.000 A 
ATOM     20  C   UNL     1      27.874  24.387  26.869  0.00  0.00    +0.000 A 
ENDBRANCH  14  15
ENDBRANCH   7  14
TORSDOF 4
ENDMDL
MODEL 10
REMARK VINA RESULT:      -5.3     17.737     19.553
REMARK  Name = 
REMARK  4 active torsions:
REMARK  status: ('A' for Active; 'I' for Inactive)
REMARK    1  A    between atoms: C_6  and  N_7
REMARK    2  A    between atoms: N_7  and  C_8
REMARK    3  A    between atoms: N_11  and  C_12
REMARK    4  A    between atoms: C_12  and  C_13
REMARK                            x       y       z     vdW  Elec       q    Type
REMARK                         _______ _______ _______ _____ _____    ______ ____
ROOT
ATOM      1  C   UNL     1      24.787  26.090  31.097  0.00  0.00    +0.000 C 
ATOM      2  N   UNL     1      25.116  25.391  29.852  0.00  0.00    +0.000 N 
ATOM      3  C   UNL     1      24.736  25.879  28.662  0.00  0.00    +0.000 A 
ATOM      4  O   UNL     1      24.083  26.971  28.662  0.00  0.00    +0.000 OA
ATOM      5  C   UNL     1      25.045  25.219  27.501  0.00  0.00    +0.000 A 
ATOM      6  C   UNL     1      25.772  24.015  27.591  0.00  0.00    +0.000 A 
ATOM      7  N   UNL     1      26.152  23.530  28.777  0.00  0.00    +0.000 N 
ATOM      8  C   UNL     1      25.805  24.246  29.889  0.00  0.00    +0.000 A 
ATOM      9  O   UNL     1      26.163  23.788  31.016  0.00  0.00    +0.000 OA
ENDROOT
BRANCH   6  10
ATOM     10  N   UNL     1      26.039  23.334  26.376  0.00  0.00    +0.000 NA
BRANCH  10  11
ATOM     11  C   UNL     1      25.954  24.017  25.121  0.00  0.00    +0.000 C 
ATOM     12  C   UNL     1      26.008  23.315  23.835  0.00  0.00    +0.000 C 
ATOM     13  C   UNL     1      27.206  24.197  24.298  0.00  0.00    +0.000 C 
ENDBRANCH  10  11
ENDBRANCH   6  10
BRANCH   7  14
ATOM     14  C   UNL     1      26.969  22.340  28.936  0.00  0.00    +0.000 C 
BRANCH  14  15
ATOM     15  C   UNL     1      28.322  22.641  28.403  0.00  0.00    +0.000 A 
ATOM     16  C   UNL     1      29.126  23.494  29.182  0.00  0.00    +0.000 A 
ATOM     17  C   UNL     1      30.396  23.835  28.780  0.00  0.00    +0.000 A 
ATOM     18  C   UNL     1      30.939  23.364  27.604  0.00  0.00    +0.000 A 
ATOM     19  C   UNL     1      30.146  22.525  26.839  0.00  0.00    +0.000 A 
ATOM     20  C   UNL     1      28.874  22.184  27.245  0.00  0.00    +0.000 A 
ENDBRANCH  14  15
ENDBRANCH   7  14
TORSDOF 4
ENDMDL
