MODEL 1
REMARK VINA RESULT:      -6.4      0.000      0.000
REMARK  Name = 
REMARK  4 active torsions:
REMARK  status: ('A' for Active; 'I' for Inactive)
REMARK    1  A    between atoms: C_2  and  N_3
REMARK    2  A    between atoms: C_2  and  C_12
REMARK    3  A    between atoms: N_3  and  N_4
REMARK    4  A    between atoms: C_5  and  C_7
REMARK                            x       y       z     vdW  Elec       q    Type
REMARK                         _______ _______ _______ _____ _____    ______ ____
ROOT
ATOM      1  C   UNL     1      18.644  -4.803  26.571  0.00  0.00    +0.000 C 
ATOM      2  C   UNL     1      18.560  -6.143  26.371  0.00  0.00    +0.000 C 
ENDROOT
BRANCH   2   3
ATOM      3  C   UNL     1      19.783  -6.802  25.962  0.00  0.00    +0.000 A 
ATOM      4  C   UNL     1      19.912  -8.233  26.340  0.00  0.00    +0.000 A 
ATOM      5  C   UNL     1      21.088  -8.766  25.917  0.00  0.00    +0.000 A 
ATOM      6  C   UNL     1      22.103  -8.256  25.254  0.00  0.00    +0.000 A 
ATOM      7  C   UNL     1      23.319  -8.942  24.856  0.00  0.00    +0.000 C 
ATOM      8  C   UNL     1      21.990  -6.836  24.866  0.00  0.00    +0.000 A 
ATOM      9  C   UNL     1      23.073  -6.256  24.143  0.00  0.00    +0.000 C 
ATOM     10  C   UNL     1      20.819  -6.353  25.304  0.00  0.00    +0.000 A 
ENDBRANCH   2   3
BRANCH   2  11
ATOM     11  N   UNL     1      17.397  -6.763  26.486  0.00  0.00    +0.000 NA
BRANCH  11  12
ATOM     12  N   UNL     1      16.290  -7.373  26.480  0.00  0.00    +0.000 NA
ATOM     13  C   UNL     1      15.646  -8.356  25.730  0.00  0.00    +0.000 C 
ATOM     14  O   UNL     1      16.237  -8.847  24.754  0.00  0.00    +0.000 OA
BRANCH  13  15
ATOM     15  C   UNL     1      14.287  -8.834  26.059  0.00  0.00    +0.000 A 
ATOM     16  C   UNL     1      13.090  -8.196  25.884  0.00  0.00    +0.000 A 
ATOM     17  C   UNL     1      11.987  -8.838  26.269  0.00  0.00    +0.000 A 
ATOM     18  C   UNL     1      12.129 -10.081  26.808  0.00  0.00    +0.000 A 
ATOM     19  S   UNL     1      13.818 -10.317  26.758  0.00  0.00    +0.000 S 
ENDBRANCH  13  15
ENDBRANCH  11  12
ENDBRANCH   2  11
TORSDOF 4
ENDMDL
MODEL 2
REMARK VINA RESULT:      -6.1     32.920     35.145
REMARK  Name = 
REMARK  4 active torsions:
REMARK  status: ('A' for Active; 'I' for Inactive)
REMARK    1  A    between atoms: C_2  and  N_3
REMARK    2  A    between atoms: C_2  and  C_12
REMARK    3  A    between atoms: N_3  and  N_4
REMARK    4  A    between atoms: C_5  and  C_7
REMARK                            x       y       z     vdW  Elec       q    Type
REMARK                         _______ _______ _______ _____ _____    ______ ____
ROOT
ATOM      1  C   UNL     1      26.096  23.328  23.048  0.00  0.00    +0.000 C 
ATOM      2  C   UNL     1      27.351  23.828  23.167  0.00  0.00    +0.000 C 
ENDROOT
BRANCH   2   3
ATOM      3  C   UNL     1      28.141  23.308  24.263  0.00  0.00    +0.000 A 
ATOM      4  C   UNL     1      29.573  23.041  23.969  0.00  0.00    +0.000 A 
ATOM      5  C   UNL     1      30.233  22.556  25.053  0.00  0.00    +0.000 A 
ATOM      6  C   UNL     1      29.841  22.286  26.280  0.00  0.00    +0.000 A 
ATOM      7  C   UNL     1      30.657  21.765  27.361  0.00  0.00    +0.000 C 
ATOM      8  C   UNL     1      28.423  22.550  26.591  0.00  0.00    +0.000 A 
ATOM      9  C   UNL     1      27.970  22.272  27.915  0.00  0.00    +0.000 C 
ATOM     10  C   UNL     1      27.813  23.025  25.496  0.00  0.00    +0.000 A 
ENDBRANCH   2   3
BRANCH   2  11
ATOM     11  N   UNL     1      27.769  24.784  22.352  0.00  0.00    +0.000 NA
BRANCH  11  12
ATOM     12  N   UNL     1      28.256  25.714  21.649  0.00  0.00    +0.000 NA
ATOM     13  C   UNL     1      29.216  25.872  20.650  0.00  0.00    +0.000 C 
ATOM     14  O   UNL     1      29.844  24.874  20.260  0.00  0.00    +0.000 OA
BRANCH  13  15
ATOM     15  C   UNL     1      29.509  27.185  20.040  0.00  0.00    +0.000 A 
ATOM     16  C   UNL     1      29.339  28.434  20.572  0.00  0.00    +0.000 A 
ATOM     17  C   UNL     1      29.675  29.478  19.816  0.00  0.00    +0.000 A 
ATOM     18  C   UNL     1      30.163  29.230  18.568  0.00  0.00    +0.000 A 
ATOM     19  S   UNL     1      30.138  27.526  18.492  0.00  0.00    +0.000 S 
ENDBRANCH  13  15
ENDBRANCH  11  12
ENDBRANCH   2  11
TORSDOF 4
ENDMDL
MODEL 3
REMARK VINA RESULT:      -6.1     31.925     34.327
REMARK  Name = 
REMARK  4 active torsions:
REMARK  status: ('A' for Active; 'I' for Inactive)
REMARK    1  A    between atoms: C_2  and  N_3
REMARK    2  A    between atoms: C_2  and  C_12
REMARK    3  A    between atoms: N_3  and  N_4
REMARK    4  A    between atoms: C_5  and  C_7
REMARK                            x       y       z     vdW  Elec       q    Type
REMARK                         _______ _______ _______ _____ _____    ______ ____
ROOT
ATOM      1  C   UNL     1      37.169  19.640  12.046  0.00  0.00    +0.000 C 
ATOM      2  C   UNL     1      36.114  19.462  12.880  0.00  0.00    +0.000 C 
ENDROOT
BRANCH   2   3
ATOM      3  C   UNL     1      36.348  18.610  14.027  0.00  0.00    +0.000 A 
ATOM      4  C   UNL     1      37.354  19.094  15.008  0.00  0.00    +0.000 A 
ATOM      5  C   UNL     1      37.506  18.232  16.047  0.00  0.00    +0.000 A 
ATOM      6  C   UNL     1      36.940  17.078  16.330  0.00  0.00    +0.000 A 
ATOM      7  C   UNL     1      37.194  16.243  17.490  0.00  0.00    +0.000 C 
ATOM      8  C   UNL     1      35.935  16.584  15.368  0.00  0.00    +0.000 A 
ATOM      9  C   UNL     1      35.301  15.338  15.651  0.00  0.00    +0.000 C 
ATOM     10  C   UNL     1      35.818  17.463  14.363  0.00  0.00    +0.000 A 
ENDBRANCH   2   3
BRANCH   2  11
ATOM     11  N   UNL     1      34.938  19.996  12.592  0.00  0.00    +0.000 NA
BRANCH  11  12
ATOM     12  N   UNL     1      33.773  20.398  12.311  0.00  0.00    +0.000 NA
ATOM     13  C   UNL     1      32.873  20.325  11.249  0.00  0.00    +0.000 C 
ATOM     14  O   UNL     1      33.210  19.714  10.221  0.00  0.00    +0.000 OA
BRANCH  13  15
ATOM     15  C   UNL     1      31.535  20.948  11.305  0.00  0.00    +0.000 A 
ATOM     16  C   UNL     1      30.518  20.876  10.394  0.00  0.00    +0.000 A 
ATOM     17  C   UNL     1      29.394  21.537  10.670  0.00  0.00    +0.000 A 
ATOM     18  C   UNL     1      29.337  22.236  11.838  0.00  0.00    +0.000 A 
ATOM     19  S   UNL     1      30.872  21.943  12.521  0.00  0.00    +0.000 S 
ENDBRANCH  13  15
ENDBRANCH  11  12
ENDBRANCH   2  11
TORSDOF 4
ENDMDL
MODEL 4
REMARK VINA RESULT:      -6.1     35.293     35.852
REMARK  Name = 
REMARK  4 active torsions:
REMARK  status: ('A' for Active; 'I' for Inactive)
REMARK    1  A    between atoms: C_2  and  N_3
REMARK    2  A    between atoms: C_2  and  C_12
REMARK    3  A    between atoms: N_3  and  N_4
REMARK    4  A    between atoms: C_5  and  C_7
REMARK                            x       y       z     vdW  Elec       q    Type
REMARK                         _______ _______ _______ _____ _____    ______ ____
ROOT
ATOM      1  C   UNL     1      32.025  21.491  11.819  0.00  0.00    +0.000 C 
ATOM      2  C   UNL     1      30.896  21.522  11.067  0.00  0.00    +0.000 C 
ENDROOT
BRANCH   2   3
ATOM      3  C   UNL     1      29.761  22.202  11.654  0.00  0.00    +0.000 A 
ATOM      4  C   UNL     1      28.439  21.918  11.038  0.00  0.00    +0.000 A 
ATOM      5  C   UNL     1      27.435  22.598  11.652  0.00  0.00    +0.000 A 
ATOM      6  C   UNL     1      27.427  23.442  12.662  0.00  0.00    +0.000 A 
ATOM      7  C   UNL     1      26.270  24.110  13.230  0.00  0.00    +0.000 C 
ATOM      8  C   UNL     1      28.731  23.732  13.288  0.00  0.00    +0.000 A 
ATOM      9  C   UNL     1      28.753  24.640  14.389  0.00  0.00    +0.000 C 
ATOM     10  C   UNL     1      29.688  23.043  12.653  0.00  0.00    +0.000 A 
ENDBRANCH   2   3
BRANCH   2  11
ATOM     11  N   UNL     1      30.853  20.897   9.901  0.00  0.00    +0.000 NA
BRANCH  11  12
ATOM     12  N   UNL     1      30.712  20.253   8.824  0.00  0.00    +0.000 NA
ATOM     13  C   UNL     1      31.067  20.377   7.481  0.00  0.00    +0.000 C 
ATOM     14  O   UNL     1      31.710  21.378   7.122  0.00  0.00    +0.000 OA
BRANCH  13  15
ATOM     15  C   UNL     1      30.706  19.359   6.473  0.00  0.00    +0.000 A 
ATOM     16  C   UNL     1      29.504  19.157   5.853  0.00  0.00    +0.000 A 
ATOM     17  C   UNL     1      29.423  18.159   4.974  0.00  0.00    +0.000 A 
ATOM     18  C   UNL     1      30.542  17.410   4.756  0.00  0.00    +0.000 A 
ATOM     19  S   UNL     1      31.682  18.135   5.796  0.00  0.00    +0.000 S 
ENDBRANCH  13  15
ENDBRANCH  11  12
ENDBRANCH   2  11
TORSDOF 4
ENDMDL
MODEL 5
REMARK VINA RESULT:      -6.0     16.910     19.490
REMARK  Name = 
REMARK  4 active torsions:
REMARK  status: ('A' for Active; 'I' for Inactive)
REMARK    1  A    between atoms: C_2  and  N_3
REMARK    2  A    between atoms: C_2  and  C_12
REMARK    3  A    between atoms: N_3  and  N_4
REMARK    4  A    between atoms: C_5  and  C_7
REMARK                            x       y       z     vdW  Elec       q    Type
REMARK                         _______ _______ _______ _____ _____    ______ ____
ROOT
ATOM      1  C   UNL     1      33.406  -1.603  36.299  0.00  0.00    +0.000 C 
ATOM      2  C   UNL     1      33.590  -1.175  35.025  0.00  0.00    +0.000 C 
ENDROOT
BRANCH   2   3
ATOM      3  C   UNL     1      33.635   0.260  34.836  0.00  0.00    +0.000 A 
ATOM      4  C   UNL     1      33.424   0.744  33.447  0.00  0.00    +0.000 A 
ATOM      5  C   UNL     1      33.484   2.099  33.367  0.00  0.00    +0.000 A 
ATOM      6  C   UNL     1      33.692   3.031  34.272  0.00  0.00    +0.000 A 
ATOM      7  C   UNL     1      33.731   4.466  34.055  0.00  0.00    +0.000 C 
ATOM      8  C   UNL     1      33.899   2.568  35.659  0.00  0.00    +0.000 A 
ATOM      9  C   UNL     1      34.123   3.555  36.663  0.00  0.00    +0.000 C 
ATOM     10  C   UNL     1      33.833   1.230  35.690  0.00  0.00    +0.000 A 
ENDBRANCH   2   3
BRANCH   2  11
ATOM     11  N   UNL     1      33.652  -2.047  34.030  0.00  0.00    +0.000 NA
BRANCH  11  12
ATOM     12  N   UNL     1      33.767  -2.949  33.154  0.00  0.00    +0.000 NA
ATOM     13  C   UNL     1      33.418  -4.289  32.984  0.00  0.00    +0.000 C 
ATOM     14  O   UNL     1      32.816  -4.870  33.903  0.00  0.00    +0.000 OA
BRANCH  13  15
ATOM     15  C   UNL     1      33.738  -5.036  31.751  0.00  0.00    +0.000 A 
ATOM     16  C   UNL     1      32.958  -5.238  30.646  0.00  0.00    +0.000 A 
ATOM     17  C   UNL     1      33.472  -5.961  29.651  0.00  0.00    +0.000 A 
ATOM     18  C   UNL     1      34.736  -6.447  29.805  0.00  0.00    +0.000 A 
ATOM     19  S   UNL     1      35.170  -5.871  31.350  0.00  0.00    +0.000 S 
ENDBRANCH  13  15
ENDBRANCH  11  12
ENDBRANCH   2  11
TORSDOF 4
ENDMDL
MODEL 6
REMARK VINA RESULT:      -6.0     20.214     21.859
REMARK  Name = 
REMARK  4 active torsions:
REMARK  status: ('A' for Active; 'I' for Inactive)
REMARK    1  A    between atoms: C_2  and  N_3
REMARK    2  A    between atoms: C_2  and  C_12
REMARK    3  A    between atoms: N_3  and  N_4
REMARK    4  A    between atoms: C_5  and  C_7
REMARK                            x       y       z     vdW  Elec       q    Type
REMARK                         _______ _______ _______ _____ _____    ______ ____
ROOT
ATOM      1  C   UNL     1      20.106   9.700  38.659  0.00  0.00    +0.000 C 
ATOM      2  C   UNL     1      18.759   9.544  38.613  0.00  0.00    +0.000 C 
ENDROOT
BRANCH   2   3
ATOM      3  C   UNL     1      18.146   8.955  39.785  0.00  0.00    +0.000 A 
ATOM      4  C   UNL     1      18.215   7.475  39.885  0.00  0.00    +0.000 A 
ATOM      5  C   UNL     1      17.615   7.013  41.014  0.00  0.00    +0.000 A 
ATOM      6  C   UNL     1      17.001   7.626  42.004  0.00  0.00    +0.000 A 
ATOM      7  C   UNL     1      16.395   7.008  43.169  0.00  0.00    +0.000 C 
ATOM      8  C   UNL     1      16.928   9.098  41.923  0.00  0.00    +0.000 A 
ATOM      9  C   UNL     1      16.272   9.790  42.983  0.00  0.00    +0.000 C 
ATOM     10  C   UNL     1      17.529   9.507  40.797  0.00  0.00    +0.000 A 
ENDBRANCH   2   3
BRANCH   2  11
ATOM     11  N   UNL     1      18.087   9.860  37.516  0.00  0.00    +0.000 NA
BRANCH  11  12
ATOM     12  N   UNL     1      17.530  10.239  36.448  0.00  0.00    +0.000 NA
ATOM     13  C   UNL     1      17.327   9.765  35.153  0.00  0.00    +0.000 C 
ATOM     14  O   UNL     1      17.789   8.653  34.844  0.00  0.00    +0.000 OA
BRANCH  13  15
ATOM     15  C   UNL     1      16.580  10.536  34.139  0.00  0.00    +0.000 A 
ATOM     16  C   UNL     1      16.675  10.476  32.776  0.00  0.00    +0.000 A 
ATOM     17  C   UNL     1      15.891  11.286  32.066  0.00  0.00    +0.000 A 
ATOM     18  C   UNL     1      15.050  12.116  32.746  0.00  0.00    +0.000 A 
ATOM     19  S   UNL     1      15.387  11.733  34.374  0.00  0.00    +0.000 S 
ENDBRANCH  13  15
ENDBRANCH  11  12
ENDBRANCH   2  11
TORSDOF 4
ENDMDL
MODEL 7
REMARK VINA RESULT:      -5.8     17.576     18.898
REMARK  Name = 
REMARK  4 active torsions:
REMARK  status: ('A' for Active; 'I' for Inactive)
REMARK    1  A    between atoms: C_2  and  N_3
REMARK    2  A    between atoms: C_2  and  C_12
REMARK    3  A    between atoms: N_3  and  N_4
REMARK    4  A    between atoms: C_5  and  C_7
REMARK                            x       y       z     vdW  Elec       q    Type
REMARK                         _______ _______ _______ _____ _____    ______ ____
ROOT
ATOM      1  C   UNL     1      33.371  -5.581  34.324  0.00  0.00    +0.000 C 
ATOM      2  C   UNL     1      33.564  -4.806  33.227  0.00  0.00    +0.000 C 
ENDROOT
BRANCH   2   3
ATOM      3  C   UNL     1      33.857  -5.509  31.995  0.00  0.00    +0.000 A 
ATOM      4  C   UNL     1      33.485  -4.810  30.738  0.00  0.00    +0.000 A 
ATOM      5  C   UNL     1      33.796  -5.544  29.638  0.00  0.00    +0.000 A 
ATOM      6  C   UNL     1      34.348  -6.729  29.491  0.00  0.00    +0.000 A 
ATOM      7  C   UNL     1      34.631  -7.411  28.241  0.00  0.00    +0.000 C 
ATOM      8  C   UNL     1      34.728  -7.436  30.730  0.00  0.00    +0.000 A 
ATOM      9  C   UNL     1      35.333  -8.721  30.602  0.00  0.00    +0.000 C 
ATOM     10  C   UNL     1      34.403  -6.678  31.786  0.00  0.00    +0.000 A 
ENDBRANCH   2   3
BRANCH   2  11
ATOM     11  N   UNL     1      33.545  -3.486  33.329  0.00  0.00    +0.000 NA
BRANCH  11  12
ATOM     12  N   UNL     1      33.591  -2.224  33.330  0.00  0.00    +0.000 NA
ATOM     13  C   UNL     1      34.135  -1.201  34.105  0.00  0.00    +0.000 C 
ATOM     14  O   UNL     1      34.785  -1.501  35.121  0.00  0.00    +0.000 OA
BRANCH  13  15
ATOM     15  C   UNL     1      33.968   0.225  33.757  0.00  0.00    +0.000 A 
ATOM     16  C   UNL     1      34.142   0.837  32.547  0.00  0.00    +0.000 A 
ATOM     17  C   UNL     1      33.934   2.152  32.484  0.00  0.00    +0.000 A 
ATOM     18  C   UNL     1      33.564   2.793  33.629  0.00  0.00    +0.000 A 
ATOM     19  S   UNL     1      33.516   1.524  34.767  0.00  0.00    +0.000 S 
ENDBRANCH  13  15
ENDBRANCH  11  12
ENDBRANCH   2  11
TORSDOF 4
ENDMDL
MODEL 8
REMARK VINA RESULT:      -5.8     21.347     23.091
REMARK  Name = 
REMARK  4 active torsions:
REMARK  status: ('A' for Active; 'I' for Inactive)
REMARK    1  A    between atoms: C_2  and  N_3
REMARK    2  A    between atoms: C_2  and  C_12
REMARK    3  A    between atoms: N_3  and  N_4
REMARK    4  A    between atoms: C_5  and  C_7
REMARK                            x       y       z     vdW  Elec       q    Type
REMARK                         _______ _______ _______ _____ _____    ______ ____
ROOT
ATOM      1  C   UNL     1      16.790  10.501  38.158  0.00  0.00    +0.000 C 
ATOM      2  C   UNL     1      17.730   9.765  38.802  0.00  0.00    +0.000 C 
ENDROOT
BRANCH   2   3
ATOM      3  C   UNL     1      17.279   9.036  39.968  0.00  0.00    +0.000 A 
ATOM      4  C   UNL     1      16.195   9.673  40.759  0.00  0.00    +0.000 A 
ATOM      5  C   UNL     1      15.838   8.920  41.832  0.00  0.00    +0.000 A 
ATOM      6  C   UNL     1      16.270   7.761  42.283  0.00  0.00    +0.000 A 
ATOM      7  C   UNL     1      15.797   7.052  43.458  0.00  0.00    +0.000 C 
ATOM      8  C   UNL     1      17.343   7.111  41.506  0.00  0.00    +0.000 A 
ATOM      9  C   UNL     1      17.829   5.853  41.969  0.00  0.00    +0.000 C 
ATOM     10  C   UNL     1      17.663   7.888  40.462  0.00  0.00    +0.000 A 
ENDBRANCH   2   3
BRANCH   2  11
ATOM     11  N   UNL     1      18.991   9.792  38.398  0.00  0.00    +0.000 NA
BRANCH  11  12
ATOM     12  N   UNL     1      20.165   9.911  37.948  0.00  0.00    +0.000 NA
ATOM     13  C   UNL     1      21.123  10.911  37.786  0.00  0.00    +0.000 C 
ATOM     14  O   UNL     1      20.849  12.067  38.151  0.00  0.00    +0.000 OA
BRANCH  13  15
ATOM     15  C   UNL     1      22.451  10.643  37.196  0.00  0.00    +0.000 A 
ATOM     16  C   UNL     1      22.810   9.673  36.301  0.00  0.00    +0.000 A 
ATOM     17  C   UNL     1      24.085   9.629  35.918  0.00  0.00    +0.000 A 
ATOM     18  C   UNL     1      24.941  10.551  36.443  0.00  0.00    +0.000 A 
ATOM     19  S   UNL     1      23.923  11.460  37.466  0.00  0.00    +0.000 S 
ENDBRANCH  13  15
ENDBRANCH  11  12
ENDBRANCH   2  11
TORSDOF 4
ENDMDL
MODEL 9
REMARK VINA RESULT:      -5.7     32.471     33.429
REMARK  Name = 
REMARK  4 active torsions:
REMARK  status: ('A' for Active; 'I' for Inactive)
REMARK    1  A    between atoms: C_2  and  N_3
REMARK    2  A    between atoms: C_2  and  C_12
REMARK    3  A    between atoms: N_3  and  N_4
REMARK    4  A    between atoms: C_5  and  C_7
REMARK                            x       y       z     vdW  Elec       q    Type
REMARK                         _______ _______ _______ _____ _____    ______ ____
ROOT
ATOM      1  C   UNL     1      31.632  23.114  24.501  0.00  0.00    +0.000 C 
ATOM      2  C   UNL     1      30.669  22.830  25.415  0.00  0.00    +0.000 C 
ENDROOT
BRANCH   2   3
ATOM      3  C   UNL     1      29.302  22.970  24.961  0.00  0.00    +0.000 A 
ATOM      4  C   UNL     1      28.246  22.623  25.948  0.00  0.00    +0.000 A 
ATOM      5  C   UNL     1      26.998  22.784  25.435  0.00  0.00    +0.000 A 
ATOM      6  C   UNL     1      26.570  23.177  24.255  0.00  0.00    +0.000 A 
ATOM      7  C   UNL     1      25.190  23.308  23.827  0.00  0.00    +0.000 C 
ATOM      8  C   UNL     1      27.605  23.530  23.263  0.00  0.00    +0.000 A 
ATOM      9  C   UNL     1      27.172  23.965  21.976  0.00  0.00    +0.000 C 
ATOM     10  C   UNL     1      28.816  23.357  23.810  0.00  0.00    +0.000 A 
ENDBRANCH   2   3
BRANCH   2  11
ATOM     11  N   UNL     1      31.000  22.515  26.657  0.00  0.00    +0.000 NA
BRANCH  11  12
ATOM     12  N   UNL     1      31.418  22.265  27.823  0.00  0.00    +0.000 NA
ATOM     13  C   UNL     1      31.020  22.479  29.142  0.00  0.00    +0.000 C 
ATOM     14  O   UNL     1      29.958  23.089  29.354  0.00  0.00    +0.000 OA
BRANCH  13  15
ATOM     15  C   UNL     1      31.815  22.005  30.292  0.00  0.00    +0.000 A 
ATOM     16  C   UNL     1      33.079  21.483  30.302  0.00  0.00    +0.000 A 
ATOM     17  C   UNL     1      33.587  21.117  31.478  0.00  0.00    +0.000 A 
ATOM     18  C   UNL     1      32.814  21.290  32.587  0.00  0.00    +0.000 A 
ATOM     19  S   UNL     1      31.386  21.965  31.942  0.00  0.00    +0.000 S 
ENDBRANCH  13  15
ENDBRANCH  11  12
ENDBRANCH   2  11
TORSDOF 4
ENDMDL
MODEL 10
REMARK VINA RESULT:      -5.7     20.587     21.603
REMARK  Name = 
REMARK  4 active torsions:
REMARK  status: ('A' for Active; 'I' for Inactive)
REMARK    1  A    between atoms: C_2  and  N_3
REMARK    2  A    between atoms: C_2  and  C_12
REMARK    3  A    between atoms: N_3  and  N_4
REMARK    4  A    between atoms: C_5  and  C_7
REMARK                            x       y       z     vdW  Elec       q    Type
REMARK                         _______ _______ _______ _____ _____    ______ ____
ROOT
ATOM      1  C   UNL     1      20.397   8.981  39.537  0.00  0.00    +0.000 C 
ATOM      2  C   UNL     1      19.103   8.637  39.321  0.00  0.00    +0.000 C 
ENDROOT
BRANCH   2   3
ATOM      3  C   UNL     1      18.547   7.655  40.228  0.00  0.00    +0.000 A 
ATOM      4  C   UNL     1      19.066   6.269  40.091  0.00  0.00    +0.000 A 
ATOM      5  C   UNL     1      18.488   5.420  40.979  0.00  0.00    +0.000 A 
ATOM      6  C   UNL     1      17.575   5.599  41.911  0.00  0.00    +0.000 A 
ATOM      7  C   UNL     1      17.035   4.594  42.808  0.00  0.00    +0.000 C 
ATOM      8  C   UNL     1      17.052   6.970  42.064  0.00  0.00    +0.000 A 
ATOM      9  C   UNL     1      16.064   7.196  43.068  0.00  0.00    +0.000 C 
ATOM     10  C   UNL     1      17.647   7.771  41.170  0.00  0.00    +0.000 A 
ENDBRANCH   2   3
BRANCH   2  11
ATOM     11  N   UNL     1      18.441   9.139  38.291  0.00  0.00    +0.000 NA
BRANCH  11  12
ATOM     12  N   UNL     1      17.903   9.595  37.242  0.00  0.00    +0.000 NA
ATOM     13  C   UNL     1      16.879  10.474  36.894  0.00  0.00    +0.000 C 
ATOM     14  O   UNL     1      16.234  11.030  37.799  0.00  0.00    +0.000 OA
BRANCH  13  15
ATOM     15  C   UNL     1      16.537  10.768  35.487  0.00  0.00    +0.000 A 
ATOM     16  C   UNL     1      15.501  11.513  34.995  0.00  0.00    +0.000 A 
ATOM     17  C   UNL     1      15.398  11.629  33.672  0.00  0.00    +0.000 A 
ATOM     18  C   UNL     1      16.331  11.000  32.903  0.00  0.00    +0.000 A 
ATOM     19  S   UNL     1      17.333  10.259  34.067  0.00  0.00    +0.000 S 
ENDBRANCH  13  15
ENDBRANCH  11  12
ENDBRANCH   2  11
TORSDOF 4
ENDMDL
