MODEL 1
REMARK VINA RESULT:      -5.6      0.000      0.000
REMARK  Name = 
REMARK  4 active torsions:
REMARK  status: ('A' for Active; 'I' for Inactive)
REMARK    1  A    between atoms: O_2  and  C_3
REMARK    2  A    between atoms: C_3  and  C_5
REMARK    3  A    between atoms: C_11  and  C_12
REMARK    4  A    between atoms: C_15  and  O_16
REMARK                            x       y       z     vdW  Elec       q    Type
REMARK                         _______ _______ _______ _____ _____    ______ ____
ROOT
ATOM      1  C   UNL     1      27.614  23.583  23.372  0.00  0.00    +0.000 A 
ATOM      2  C   UNL     1      26.321  23.148  23.469  0.00  0.00    +0.000 A 
ATOM      3  N   UNL     1      25.385  22.929  22.376  0.00  0.00    +0.000 NA
ATOM      4  S   UNL     1      26.089  22.931  25.137  0.00  0.00    +0.000 S 
ATOM      5  C   UNL     1      27.629  23.394  25.682  0.00  0.00    +0.000 A 
ATOM      6  C   UNL     1      28.166  23.452  27.096  0.00  0.00    +0.000 C 
ATOM      7  C   UNL     1      28.307  23.714  24.533  0.00  0.00    +0.000 A 
ENDROOT
BRANCH   7   8
ATOM      8  C   UNL     1      29.729  24.170  24.606  0.00  0.00    +0.000 A 
ATOM      9  C   UNL     1      30.076  25.476  24.772  0.00  0.00    +0.000 A 
ATOM     10  C   UNL     1      31.418  25.845  24.843  0.00  0.00    +0.000 A 
ATOM     11  C   UNL     1      32.441  24.914  24.751  0.00  0.00    +0.000 A 
ATOM     12  C   UNL     1      32.080  23.602  24.580  0.00  0.00    +0.000 A 
ATOM     13  C   UNL     1      30.759  23.232  24.508  0.00  0.00    +0.000 A 
BRANCH  11  14
ATOM     14  O   UNL     1      33.781  25.258  24.818  0.00  0.00    +0.000 OA
ATOM     15  C   UNL     1      34.818  24.395  24.480  0.00  0.00    +0.000 C 
ENDBRANCH  11  14
ENDBRANCH   7   8
BRANCH   1  16
ATOM     16  C   UNL     1      28.205  23.913  22.031  0.00  0.00    +0.000 C 
ATOM     17  O   UNL     1      28.766  23.040  21.335  0.00  0.00    +0.000 OA
BRANCH  16  19
ATOM     18  C   UNL     1      29.285  25.764  20.884  0.00  0.00    +0.000 C 
ATOM     19  O   UNL     1      28.147  25.189  21.528  0.00  0.00    +0.000 OA
ENDBRANCH  16  19
ENDBRANCH   1  16
TORSDOF 4
ENDMDL
MODEL 2
REMARK VINA RESULT:      -5.5      2.758      4.519
REMARK  Name = 
REMARK  4 active torsions:
REMARK  status: ('A' for Active; 'I' for Inactive)
REMARK    1  A    between atoms: O_2  and  C_3
REMARK    2  A    between atoms: C_3  and  C_5
REMARK    3  A    between atoms: C_11  and  C_12
REMARK    4  A    between atoms: C_15  and  O_16
REMARK                            x       y       z     vdW  Elec       q    Type
REMARK                         _______ _______ _______ _____ _____    ______ ____
ROOT
ATOM      1  C   UNL     1      28.963  24.146  23.278  0.00  0.00    +0.000 A 
ATOM      2  C   UNL     1      28.712  24.277  21.940  0.00  0.00    +0.000 A 
ATOM      3  N   UNL     1      29.675  24.591  20.894  0.00  0.00    +0.000 NA
ATOM      4  S   UNL     1      27.044  23.989  21.808  0.00  0.00    +0.000 S 
ATOM      5  C   UNL     1      26.693  23.709  23.446  0.00  0.00    +0.000 A 
ATOM      6  C   UNL     1      25.367  23.379  24.098  0.00  0.00    +0.000 C 
ATOM      7  C   UNL     1      27.904  23.847  24.075  0.00  0.00    +0.000 A 
ENDROOT
BRANCH   7   8
ATOM      8  C   UNL     1      28.004  23.662  25.556  0.00  0.00    +0.000 A 
ATOM      9  C   UNL     1      27.861  24.689  26.437  0.00  0.00    +0.000 A 
ATOM     10  C   UNL     1      27.953  24.459  27.809  0.00  0.00    +0.000 A 
ATOM     11  C   UNL     1      28.191  23.194  28.326  0.00  0.00    +0.000 A 
ATOM     12  C   UNL     1      28.338  22.168  27.429  0.00  0.00    +0.000 A 
ATOM     13  C   UNL     1      28.248  22.389  26.075  0.00  0.00    +0.000 A 
BRANCH  11  14
ATOM     14  O   UNL     1      28.288  22.943  29.684  0.00  0.00    +0.000 OA
ATOM     15  C   UNL     1      27.432  22.091  30.375  0.00  0.00    +0.000 C 
ENDBRANCH  11  14
ENDBRANCH   7   8
BRANCH   1  16
ATOM     16  C   UNL     1      30.351  24.351  23.813  0.00  0.00    +0.000 C 
ATOM     17  O   UNL     1      31.158  23.402  23.910  0.00  0.00    +0.000 OA
BRANCH  16  19
ATOM     18  C   UNL     1      31.357  25.773  25.509  0.00  0.00    +0.000 C 
ATOM     19  O   UNL     1      30.778  25.592  24.215  0.00  0.00    +0.000 OA
ENDBRANCH  16  19
ENDBRANCH   1  16
TORSDOF 4
ENDMDL
MODEL 3
REMARK VINA RESULT:      -5.3      3.675      5.665
REMARK  Name = 
REMARK  4 active torsions:
REMARK  status: ('A' for Active; 'I' for Inactive)
REMARK    1  A    between atoms: O_2  and  C_3
REMARK    2  A    between atoms: C_3  and  C_5
REMARK    3  A    between atoms: C_11  and  C_12
REMARK    4  A    between atoms: C_15  and  O_16
REMARK                            x       y       z     vdW  Elec       q    Type
REMARK                         _______ _______ _______ _____ _____    ______ ____
ROOT
ATOM      1  C   UNL     1      27.957  23.267  25.083  0.00  0.00    +0.000 A 
ATOM      2  C   UNL     1      28.743  23.001  23.997  0.00  0.00    +0.000 A 
ATOM      3  N   UNL     1      28.353  23.058  22.595  0.00  0.00    +0.000 NA
ATOM      4  S   UNL     1      30.249  22.598  24.673  0.00  0.00    +0.000 S 
ATOM      5  C   UNL     1      29.857  22.773  26.316  0.00  0.00    +0.000 A 
ATOM      6  C   UNL     1      30.731  22.572  27.535  0.00  0.00    +0.000 C 
ATOM      7  C   UNL     1      28.537  23.149  26.305  0.00  0.00    +0.000 A 
ENDROOT
BRANCH   7   8
ATOM      8  C   UNL     1      27.824  23.410  27.594  0.00  0.00    +0.000 A 
ATOM      9  C   UNL     1      27.279  22.416  28.348  0.00  0.00    +0.000 A 
ATOM     10  C   UNL     1      26.633  22.714  29.547  0.00  0.00    +0.000 A 
ATOM     11  C   UNL     1      26.520  24.014  30.014  0.00  0.00    +0.000 A 
ATOM     12  C   UNL     1      27.068  25.008  29.245  0.00  0.00    +0.000 A 
ATOM     13  C   UNL     1      27.706  24.720  28.062  0.00  0.00    +0.000 A 
BRANCH  11  14
ATOM     14  O   UNL     1      25.882  24.334  31.201  0.00  0.00    +0.000 OA
ATOM     15  C   UNL     1      26.139  25.490  31.930  0.00  0.00    +0.000 C 
ENDBRANCH  11  14
ENDBRANCH   7   8
BRANCH   1  16
ATOM     16  C   UNL     1      26.515  23.648  24.901  0.00  0.00    +0.000 C 
ATOM     17  O   UNL     1      25.607  22.791  24.938  0.00  0.00    +0.000 OA
BRANCH  16  19
ATOM     18  C   UNL     1      25.064  25.529  25.411  0.00  0.00    +0.000 C 
ATOM     19  O   UNL     1      26.150  24.953  24.685  0.00  0.00    +0.000 OA
ENDBRANCH  16  19
ENDBRANCH   1  16
TORSDOF 4
ENDMDL
MODEL 4
REMARK VINA RESULT:      -5.0      2.697      4.547
REMARK  Name = 
REMARK  4 active torsions:
REMARK  status: ('A' for Active; 'I' for Inactive)
REMARK    1  A    between atoms: O_2  and  C_3
REMARK    2  A    between atoms: C_3  and  C_5
REMARK    3  A    between atoms: C_11  and  C_12
REMARK    4  A    between atoms: C_15  and  O_16
REMARK                            x       y       z     vdW  Elec       q    Type
REMARK                         _______ _______ _______ _____ _____    ______ ____
ROOT
ATOM      1  C   UNL     1      28.378  23.517  26.476  0.00  0.00    +0.000 A 
ATOM      2  C   UNL     1      27.737  23.262  27.657  0.00  0.00    +0.000 A 
ATOM      3  N   UNL     1      28.305  22.648  28.849  0.00  0.00    +0.000 NA
ATOM      4  S   UNL     1      26.157  23.826  27.392  0.00  0.00    +0.000 S 
ATOM      5  C   UNL     1      26.335  24.374  25.795  0.00  0.00    +0.000 A 
ATOM      6  C   UNL     1      25.312  25.018  24.885  0.00  0.00    +0.000 C 
ATOM      7  C   UNL     1      27.645  24.102  25.493  0.00  0.00    +0.000 A 
ENDROOT
BRANCH   7   8
ATOM      8  C   UNL     1      28.192  24.455  24.147  0.00  0.00    +0.000 A 
ATOM      9  C   UNL     1      28.831  25.630  23.897  0.00  0.00    +0.000 A 
ATOM     10  C   UNL     1      29.332  25.904  22.625  0.00  0.00    +0.000 A 
ATOM     11  C   UNL     1      29.201  25.006  21.577  0.00  0.00    +0.000 A 
ATOM     12  C   UNL     1      28.552  23.827  21.838  0.00  0.00    +0.000 A 
ATOM     13  C   UNL     1      28.057  23.552  23.090  0.00  0.00    +0.000 A 
BRANCH  11  14
ATOM     14  O   UNL     1      29.688  25.258  20.305  0.00  0.00    +0.000 OA
ATOM     15  C   UNL     1      29.787  26.531  19.754  0.00  0.00    +0.000 C 
ENDBRANCH  11  14
ENDBRANCH   7   8
BRANCH   1  16
ATOM     16  C   UNL     1      29.820  23.135  26.298  0.00  0.00    +0.000 C 
ATOM     17  O   UNL     1      30.146  22.001  25.887  0.00  0.00    +0.000 OA
BRANCH  16  19
ATOM     18  C   UNL     1      31.927  23.626  27.405  0.00  0.00    +0.000 C 
ATOM     19  O   UNL     1      30.827  24.023  26.585  0.00  0.00    +0.000 OA
ENDBRANCH  16  19
ENDBRANCH   1  16
TORSDOF 4
ENDMDL
MODEL 5
REMARK VINA RESULT:      -5.0      4.368      6.454
REMARK  Name = 
REMARK  4 active torsions:
REMARK  status: ('A' for Active; 'I' for Inactive)
REMARK    1  A    between atoms: O_2  and  C_3
REMARK    2  A    between atoms: C_3  and  C_5
REMARK    3  A    between atoms: C_11  and  C_12
REMARK    4  A    between atoms: C_15  and  O_16
REMARK                            x       y       z     vdW  Elec       q    Type
REMARK                         _______ _______ _______ _____ _____    ______ ____
ROOT
ATOM      1  C   UNL     1      25.953  24.769  28.938  0.00  0.00    +0.000 A 
ATOM      2  C   UNL     1      25.280  25.321  29.993  0.00  0.00    +0.000 A 
ATOM      3  N   UNL     1      25.516  25.076  31.409  0.00  0.00    +0.000 NA
ATOM      4  S   UNL     1      24.134  26.335  29.258  0.00  0.00    +0.000 S 
ATOM      5  C   UNL     1      24.525  26.044  27.632  0.00  0.00    +0.000 A 
ATOM      6  C   UNL     1      23.902  26.621  26.379  0.00  0.00    +0.000 C 
ATOM      7  C   UNL     1      25.560  25.146  27.694  0.00  0.00    +0.000 A 
ENDROOT
BRANCH   7   8
ATOM      8  C   UNL     1      26.193  24.645  26.435  0.00  0.00    +0.000 A 
ATOM      9  C   UNL     1      27.273  25.245  25.865  0.00  0.00    +0.000 A 
ATOM     10  C   UNL     1      27.831  24.730  24.695  0.00  0.00    +0.000 A 
ATOM     11  C   UNL     1      27.316  23.603  24.073  0.00  0.00    +0.000 A 
ATOM     12  C   UNL     1      26.225  23.009  24.654  0.00  0.00    +0.000 A 
ATOM     13  C   UNL     1      25.672  23.512  25.806  0.00  0.00    +0.000 A 
BRANCH  11  14
ATOM     14  O   UNL     1      27.853  23.074  22.911  0.00  0.00    +0.000 OA
ATOM     15  C   UNL     1      28.497  23.836  21.941  0.00  0.00    +0.000 C 
ENDBRANCH  11  14
ENDBRANCH   7   8
BRANCH   1  16
ATOM     16  C   UNL     1      27.057  23.778  29.178  0.00  0.00    +0.000 C 
ATOM     17  O   UNL     1      28.227  24.151  29.408  0.00  0.00    +0.000 OA
BRANCH  16  19
ATOM     18  C   UNL     1      26.578  21.710  30.362  0.00  0.00    +0.000 C 
ATOM     19  O   UNL     1      26.813  22.428  29.149  0.00  0.00    +0.000 OA
ENDBRANCH  16  19
ENDBRANCH   1  16
TORSDOF 4
ENDMDL
MODEL 6
REMARK VINA RESULT:      -5.0     22.855     24.247
REMARK  Name = 
REMARK  4 active torsions:
REMARK  status: ('A' for Active; 'I' for Inactive)
REMARK    1  A    between atoms: O_2  and  C_3
REMARK    2  A    between atoms: C_3  and  C_5
REMARK    3  A    between atoms: C_11  and  C_12
REMARK    4  A    between atoms: C_15  and  O_16
REMARK                            x       y       z     vdW  Elec       q    Type
REMARK                         _______ _______ _______ _____ _____    ______ ____
ROOT
ATOM      1  C   UNL     1      34.205   2.282  36.483  0.00  0.00    +0.000 A 
ATOM      2  C   UNL     1      33.811   0.993  36.255  0.00  0.00    +0.000 A 
ATOM      3  N   UNL     1      33.781  -0.099  37.217  0.00  0.00    +0.000 NA
ATOM      4  S   UNL     1      33.375   0.985  34.613  0.00  0.00    +0.000 S 
ATOM      5  C   UNL     1      33.700   2.611  34.245  0.00  0.00    +0.000 A 
ATOM      6  C   UNL     1      33.542   3.344  32.931  0.00  0.00    +0.000 C 
ATOM      7  C   UNL     1      34.148   3.138  35.430  0.00  0.00    +0.000 A 
ENDROOT
BRANCH   7   8
ATOM      8  C   UNL     1      34.535   4.580  35.509  0.00  0.00    +0.000 A 
ATOM      9  C   UNL     1      33.631   5.574  35.730  0.00  0.00    +0.000 A 
ATOM     10  C   UNL     1      34.048   6.902  35.805  0.00  0.00    +0.000 A 
ATOM     11  C   UNL     1      35.378   7.262  35.659  0.00  0.00    +0.000 A 
ATOM     12  C   UNL     1      36.280   6.254  35.432  0.00  0.00    +0.000 A 
ATOM     13  C   UNL     1      35.875   4.943  35.358  0.00  0.00    +0.000 A 
BRANCH  11  14
ATOM     14  O   UNL     1      35.814   8.575  35.728  0.00  0.00    +0.000 OA
ATOM     15  C   UNL     1      34.961   9.668  35.831  0.00  0.00    +0.000 C 
ENDBRANCH  11  14
ENDBRANCH   7   8
BRANCH   1  16
ATOM     16  C   UNL     1      34.693   2.696  37.842  0.00  0.00    +0.000 C 
ATOM     17  O   UNL     1      35.888   2.547  38.176  0.00  0.00    +0.000 OA
BRANCH  16  19
ATOM     18  C   UNL     1      34.082   4.562  39.276  0.00  0.00    +0.000 C 
ATOM     19  O   UNL     1      33.839   3.251  38.763  0.00  0.00    +0.000 OA
ENDBRANCH  16  19
ENDBRANCH   1  16
TORSDOF 4
ENDMDL
MODEL 7
REMARK VINA RESULT:      -5.0      2.873      4.387
REMARK  Name = 
REMARK  4 active torsions:
REMARK  status: ('A' for Active; 'I' for Inactive)
REMARK    1  A    between atoms: O_2  and  C_3
REMARK    2  A    between atoms: C_3  and  C_5
REMARK    3  A    between atoms: C_11  and  C_12
REMARK    4  A    between atoms: C_15  and  O_16
REMARK                            x       y       z     vdW  Elec       q    Type
REMARK                         _______ _______ _______ _____ _____    ______ ____
ROOT
ATOM      1  C   UNL     1      28.548  23.289  25.705  0.00  0.00    +0.000 A 
ATOM      2  C   UNL     1      28.855  22.481  26.765  0.00  0.00    +0.000 A 
ATOM      3  N   UNL     1      27.931  21.933  27.747  0.00  0.00    +0.000 NA
ATOM      4  S   UNL     1      30.538  22.282  26.650  0.00  0.00    +0.000 S 
ATOM      5  C   UNL     1      30.823  23.223  25.266  0.00  0.00    +0.000 A 
ATOM      6  C   UNL     1      32.128  23.511  24.557  0.00  0.00    +0.000 C 
ATOM      7  C   UNL     1      29.579  23.682  24.913  0.00  0.00    +0.000 A 
ENDROOT
BRANCH   7   8
ATOM      8  C   UNL     1      29.417  24.558  23.712  0.00  0.00    +0.000 A 
ATOM      9  C   UNL     1      29.579  25.909  23.758  0.00  0.00    +0.000 A 
ATOM     10  C   UNL     1      29.427  26.677  22.605  0.00  0.00    +0.000 A 
ATOM     11  C   UNL     1      29.110  26.108  21.382  0.00  0.00    +0.000 A 
ATOM     12  C   UNL     1      28.945  24.747  21.347  0.00  0.00    +0.000 A 
ATOM     13  C   UNL     1      29.093  23.985  22.481  0.00  0.00    +0.000 A 
BRANCH  11  14
ATOM     14  O   UNL     1      28.953  26.852  20.224  0.00  0.00    +0.000 OA
ATOM     15  C   UNL     1      30.000  27.182  19.370  0.00  0.00    +0.000 C 
ENDBRANCH  11  14
ENDBRANCH   7   8
BRANCH   1  16
ATOM     16  C   UNL     1      27.129  23.722  25.468  0.00  0.00    +0.000 C 
ATOM     17  O   UNL     1      26.295  22.955  24.941  0.00  0.00    +0.000 OA
BRANCH  16  19
ATOM     18  C   UNL     1      26.022  25.803  24.877  0.00  0.00    +0.000 C 
ATOM     19  O   UNL     1      26.704  24.978  25.822  0.00  0.00    +0.000 OA
ENDBRANCH  16  19
ENDBRANCH   1  16
TORSDOF 4
ENDMDL
MODEL 8
REMARK VINA RESULT:      -4.9      3.316      4.701
REMARK  Name = 
REMARK  4 active torsions:
REMARK  status: ('A' for Active; 'I' for Inactive)
REMARK    1  A    between atoms: O_2  and  C_3
REMARK    2  A    between atoms: C_3  and  C_5
REMARK    3  A    between atoms: C_11  and  C_12
REMARK    4  A    between atoms: C_15  and  O_16
REMARK                            x       y       z     vdW  Elec       q    Type
REMARK                         _______ _______ _______ _____ _____    ______ ____
ROOT
ATOM      1  C   UNL     1      27.279  23.759  27.985  0.00  0.00    +0.000 A 
ATOM      2  C   UNL     1      27.089  23.446  29.303  0.00  0.00    +0.000 A 
ATOM      3  N   UNL     1      25.884  23.660  30.091  0.00  0.00    +0.000 NA
ATOM      4  S   UNL     1      28.569  22.760  29.774  0.00  0.00    +0.000 S 
ATOM      5  C   UNL     1      29.401  22.883  28.299  0.00  0.00    +0.000 A 
ATOM      6  C   UNL     1      30.813  22.459  27.959  0.00  0.00    +0.000 C 
ATOM      7  C   UNL     1      28.493  23.466  27.452  0.00  0.00    +0.000 A 
ENDROOT
BRANCH   7   8
ATOM      8  C   UNL     1      28.863  23.736  26.029  0.00  0.00    +0.000 A 
ATOM      9  C   UNL     1      29.476  24.885  25.633  0.00  0.00    +0.000 A 
ATOM     10  C   UNL     1      29.809  25.081  24.293  0.00  0.00    +0.000 A 
ATOM     11  C   UNL     1      29.535  24.130  23.323  0.00  0.00    +0.000 A 
ATOM     12  C   UNL     1      28.914  22.978  23.732  0.00  0.00    +0.000 A 
ATOM     13  C   UNL     1      28.583  22.779  25.051  0.00  0.00    +0.000 A 
BRANCH  11  14
ATOM     14  O   UNL     1      29.856  24.304  21.987  0.00  0.00    +0.000 OA
ATOM     15  C   UNL     1      29.194  25.189  21.143  0.00  0.00    +0.000 C 
ENDBRANCH  11  14
ENDBRANCH   7   8
BRANCH   1  16
ATOM     16  C   UNL     1      26.182  24.419  27.198  0.00  0.00    +0.000 C 
ATOM     17  O   UNL     1      25.449  23.762  26.428  0.00  0.00    +0.000 OA
BRANCH  16  19
ATOM     18  C   UNL     1      26.307  26.643  26.226  0.00  0.00    +0.000 C 
ATOM     19  O   UNL     1      25.953  25.768  27.298  0.00  0.00    +0.000 OA
ENDBRANCH  16  19
ENDBRANCH   1  16
TORSDOF 4
ENDMDL
MODEL 9
REMARK VINA RESULT:      -4.7     20.093     21.928
REMARK  Name = 
REMARK  4 active torsions:
REMARK  status: ('A' for Active; 'I' for Inactive)
REMARK    1  A    between atoms: O_2  and  C_3
REMARK    2  A    between atoms: C_3  and  C_5
REMARK    3  A    between atoms: C_11  and  C_12
REMARK    4  A    between atoms: C_15  and  O_16
REMARK                            x       y       z     vdW  Elec       q    Type
REMARK                         _______ _______ _______ _____ _____    ______ ____
ROOT
ATOM      1  C   UNL     1      27.801   5.326  16.780  0.00  0.00    +0.000 A 
ATOM      2  C   UNL     1      29.119   5.460  16.439  0.00  0.00    +0.000 A 
ATOM      3  N   UNL     1      29.890   6.693  16.383  0.00  0.00    +0.000 NA
ATOM      4  S   UNL     1      29.616   3.870  16.108  0.00  0.00    +0.000 S 
ATOM      5  C   UNL     1      28.151   3.066  16.406  0.00  0.00    +0.000 A 
ATOM      6  C   UNL     1      27.832   1.589  16.310  0.00  0.00    +0.000 C 
ATOM      7  C   UNL     1      27.286   4.070  16.764  0.00  0.00    +0.000 A 
ENDROOT
BRANCH   7   8
ATOM      8  C   UNL     1      25.869   3.747  17.116  0.00  0.00    +0.000 A 
ATOM      9  C   UNL     1      25.458   3.537  18.397  0.00  0.00    +0.000 A 
ATOM     10  C   UNL     1      24.122   3.249  18.670  0.00  0.00    +0.000 A 
ATOM     11  C   UNL     1      23.170   3.166  17.666  0.00  0.00    +0.000 A 
ATOM     12  C   UNL     1      23.595   3.375  16.379  0.00  0.00    +0.000 A 
ATOM     13  C   UNL     1      24.911   3.659  16.104  0.00  0.00    +0.000 A 
BRANCH  11  14
ATOM     14  O   UNL     1      21.837   2.881  17.914  0.00  0.00    +0.000 OA
ATOM     15  C   UNL     1      21.236   1.666  17.602  0.00  0.00    +0.000 C 
ENDBRANCH  11  14
ENDBRANCH   7   8
BRANCH   1  16
ATOM     16  C   UNL     1      26.982   6.536  17.129  0.00  0.00    +0.000 C 
ATOM     17  O   UNL     1      27.075   7.084  18.248  0.00  0.00    +0.000 OA
BRANCH  16  19
ATOM     18  C   UNL     1      26.357   6.987  14.823  0.00  0.00    +0.000 C 
ATOM     19  O   UNL     1      26.102   7.079  16.226  0.00  0.00    +0.000 OA
ENDBRANCH  16  19
ENDBRANCH   1  16
TORSDOF 4
ENDMDL
MODEL 10
REMARK VINA RESULT:      -4.6     19.747     21.495
REMARK  Name = 
REMARK  4 active torsions:
REMARK  status: ('A' for Active; 'I' for Inactive)
REMARK    1  A    between atoms: O_2  and  C_3
REMARK    2  A    between atoms: C_3  and  C_5
REMARK    3  A    between atoms: C_11  and  C_12
REMARK    4  A    between atoms: C_15  and  O_16
REMARK                            x       y       z     vdW  Elec       q    Type
REMARK                         _______ _______ _______ _____ _____    ______ ____
ROOT
ATOM      1  C   UNL     1      27.402   6.078  15.617  0.00  0.00    +0.000 A 
ATOM      2  C   UNL     1      28.404   6.989  15.426  0.00  0.00    +0.000 A 
ATOM      3  N   UNL     1      28.832   7.572  14.163  0.00  0.00    +0.000 NA
ATOM      4  S   UNL     1      29.006   7.264  16.990  0.00  0.00    +0.000 S 
ATOM      5  C   UNL     1      27.982   6.223  17.856  0.00  0.00    +0.000 A 
ATOM      6  C   UNL     1      27.937   5.942  19.343  0.00  0.00    +0.000 C 
ATOM      7  C   UNL     1      27.176   5.671  16.892  0.00  0.00    +0.000 A 
ENDROOT
BRANCH   7   8
ATOM      8  C   UNL     1      26.116   4.688  17.276  0.00  0.00    +0.000 A 
ATOM      9  C   UNL     1      26.308   3.341  17.223  0.00  0.00    +0.000 A 
ATOM     10  C   UNL     1      25.290   2.468  17.602  0.00  0.00    +0.000 A 
ATOM     11  C   UNL     1      24.058   2.927  18.043  0.00  0.00    +0.000 A 
ATOM     12  C   UNL     1      23.874   4.285  18.088  0.00  0.00    +0.000 A 
ATOM     13  C   UNL     1      24.874   5.150  17.715  0.00  0.00    +0.000 A 
BRANCH  11  14
ATOM     14  O   UNL     1      23.031   2.078  18.423  0.00  0.00    +0.000 OA
ATOM     15  C   UNL     1      22.583   1.013  17.650  0.00  0.00    +0.000 C 
ENDBRANCH  11  14
ENDBRANCH   7   8
BRANCH   1  16
ATOM     16  C   UNL     1      26.622   5.554  14.445  0.00  0.00    +0.000 C 
ATOM     17  O   UNL     1      25.678   6.206  13.948  0.00  0.00    +0.000 OA
BRANCH  16  19
ATOM     18  C   UNL     1      27.988   4.219  12.942  0.00  0.00    +0.000 C 
ATOM     19  O   UNL     1      26.920   4.337  13.883  0.00  0.00    +0.000 OA
ENDBRANCH  16  19
ENDBRANCH   1  16
TORSDOF 4
ENDMDL
