MODEL 1
REMARK VINA RESULT:      -8.1      0.000      0.000
REMARK  Name = 
REMARK  7 active torsions:
REMARK  status: ('A' for Active; 'I' for Inactive)
REMARK    1  A    between atoms: C_2  and  O_3
REMARK    2  A    between atoms: O_3  and  C_4
REMARK    3  A    between atoms: C_7  and  N_8
REMARK    4  A    between atoms: N_8  and  C_9
REMARK    5  A    between atoms: C_10  and  S_11
REMARK    6  A    between atoms: S_11  and  C_12
REMARK    7  A    between atoms: N_20  and  C_21
REMARK                            x       y       z     vdW  Elec       q    Type
REMARK                         _______ _______ _______ _____ _____    ______ ____
ROOT
ATOM      1  C   UNL     1      36.302   4.787  14.748  0.00  0.00    +0.000 C 
ATOM      2  C   UNL     1      37.588   4.600  15.002  0.00  0.00    +0.000 C 
ATOM      3  C   UNL     1      37.814   3.158  15.232  0.00  0.00    +0.000 C 
ATOM      4  O   UNL     1      38.911   2.600  15.500  0.00  0.00    +0.000 OA
ATOM      5  N   UNL     1      36.573   2.478  15.101  0.00  0.00    +0.000 N 
ATOM      6  C   UNL     1      35.619   3.487  14.799  0.00  0.00    +0.000 C 
ATOM      7  O   UNL     1      34.391   3.338  14.599  0.00  0.00    +0.000 OA
ENDROOT
BRANCH   5   8
ATOM      8  C   UNL     1      36.352   1.072  15.246  0.00  0.00    +0.000 A 
ATOM      9  C   UNL     1      35.766   0.532  16.386  0.00  0.00    +0.000 A 
ATOM     10  C   UNL     1      35.553  -0.809  16.530  0.00  0.00    +0.000 A 
ATOM     11  C   UNL     1      34.917  -1.369  17.773  0.00  0.00    +0.000 C 
ATOM     12  C   UNL     1      35.921  -1.682  15.528  0.00  0.00    +0.000 A 
ATOM     13  C   UNL     1      36.506  -1.183  14.380  0.00  0.00    +0.000 A 
ATOM     14  C   UNL     1      36.714   0.177  14.249  0.00  0.00    +0.000 A 
ATOM     15  C   UNL     1      37.339   0.758  13.033  0.00  0.00    +0.000 C 
ENDBRANCH   5   8
BRANCH   1  16
ATOM     16  N   UNL     1      35.714   6.052  14.475  0.00  0.00    +0.000 NA
BRANCH  16  20
ATOM     17  C   UNL     1      34.167   7.019  10.669  0.00  0.00    +0.000 A 
ATOM     18  C   UNL     1      33.463   7.275  11.811  0.00  0.00    +0.000 A 
ATOM     19  C   UNL     1      33.955   6.965  13.063  0.00  0.00    +0.000 A 
ATOM     20  C   UNL     1      35.199   6.378  13.181  0.00  0.00    +0.000 A 
ATOM     21  C   UNL     1      35.894   6.126  12.048  0.00  0.00    +0.000 A 
ATOM     22  C   UNL     1      35.415   6.429  10.795  0.00  0.00    +0.000 A 
BRANCH  17  23
ATOM     23  O   UNL     1      33.638   7.346   9.424  0.00  0.00    +0.000 OA
BRANCH  23  25
ATOM     24  C   UNL     1      33.636   6.370   7.223  0.00  0.00    +0.000 C 
ATOM     25  C   UNL     1      34.421   7.110   8.271  0.00  0.00    +0.000 C 
ENDBRANCH  23  25
ENDBRANCH  17  23
ENDBRANCH  16  20
ENDBRANCH   1  16
BRANCH   2  26
ATOM     26  S   UNL     1      38.930   5.784  15.083  0.00  0.00    +0.000 S 
BRANCH  26  27
ATOM     27  C   UNL     1      39.554   5.960  16.724  0.00  0.00    +0.000 A 
ATOM     28  C   UNL     1      38.779   5.799  17.860  0.00  0.00    +0.000 A 
ATOM     29  C   UNL     1      39.347   5.956  19.097  0.00  0.00    +0.000 A 
ATOM     30  C   UNL     1      40.682   6.274  19.220  0.00  0.00    +0.000 A 
ATOM     31  C   UNL     1      41.466   6.438  18.115  0.00  0.00    +0.000 A 
ATOM     32  C   UNL     1      40.898   6.280  16.864  0.00  0.00    +0.000 A 
ENDBRANCH  26  27
ENDBRANCH   2  26
TORSDOF 7
ENDMDL
MODEL 2
REMARK VINA RESULT:      -8.0      3.520      8.504
REMARK  Name = 
REMARK  7 active torsions:
REMARK  status: ('A' for Active; 'I' for Inactive)
REMARK    1  A    between atoms: C_2  and  O_3
REMARK    2  A    between atoms: O_3  and  C_4
REMARK    3  A    between atoms: C_7  and  N_8
REMARK    4  A    between atoms: N_8  and  C_9
REMARK    5  A    between atoms: C_10  and  S_11
REMARK    6  A    between atoms: S_11  and  C_12
REMARK    7  A    between atoms: N_20  and  C_21
REMARK                            x       y       z     vdW  Elec       q    Type
REMARK                         _______ _______ _______ _____ _____    ______ ____
ROOT
ATOM      1  C   UNL     1      37.186   2.069  14.928  0.00  0.00    +0.000 C 
ATOM      2  C   UNL     1      38.286   2.288  14.226  0.00  0.00    +0.000 C 
ATOM      3  C   UNL     1      38.933   3.513  14.742  0.00  0.00    +0.000 C 
ATOM      4  O   UNL     1      40.000   4.035  14.324  0.00  0.00    +0.000 OA
ATOM      5  N   UNL     1      38.146   4.026  15.808  0.00  0.00    +0.000 N 
ATOM      6  C   UNL     1      37.050   3.131  15.934  0.00  0.00    +0.000 C 
ATOM      7  O   UNL     1      36.103   3.197  16.752  0.00  0.00    +0.000 OA
ENDROOT
BRANCH   5   8
ATOM      8  C   UNL     1      38.419   5.198  16.581  0.00  0.00    +0.000 A 
ATOM      9  C   UNL     1      39.152   5.150  17.761  0.00  0.00    +0.000 A 
ATOM     10  C   UNL     1      39.415   6.267  18.501  0.00  0.00    +0.000 A 
ATOM     11  C   UNL     1      40.212   6.189  19.775  0.00  0.00    +0.000 C 
ATOM     12  C   UNL     1      38.948   7.498  18.090  0.00  0.00    +0.000 A 
ATOM     13  C   UNL     1      38.216   7.587  16.923  0.00  0.00    +0.000 A 
ATOM     14  C   UNL     1      37.959   6.447  16.184  0.00  0.00    +0.000 A 
ATOM     15  C   UNL     1      37.176   6.494  14.923  0.00  0.00    +0.000 C 
ENDBRANCH   5   8
BRANCH   1  16
ATOM     16  N   UNL     1      36.303   0.974  14.714  0.00  0.00    +0.000 NA
BRANCH  16  20
ATOM     17  C   UNL     1      36.968  -2.768  16.552  0.00  0.00    +0.000 A 
ATOM     18  C   UNL     1      37.199  -1.596  17.215  0.00  0.00    +0.000 A 
ATOM     19  C   UNL     1      36.986  -0.365  16.628  0.00  0.00    +0.000 A 
ATOM     20  C   UNL     1      36.524  -0.299  15.329  0.00  0.00    +0.000 A 
ATOM     21  C   UNL     1      36.295  -1.461  14.675  0.00  0.00    +0.000 A 
ATOM     22  C   UNL     1      36.503  -2.694  15.248  0.00  0.00    +0.000 A 
BRANCH  17  23
ATOM     23  O   UNL     1      37.194  -3.991  17.176  0.00  0.00    +0.000 OA
BRANCH  23  25
ATOM     24  C   UNL     1      38.796  -4.360  18.935  0.00  0.00    +0.000 C 
ATOM     25  C   UNL     1      38.525  -4.374  17.455  0.00  0.00    +0.000 C 
ENDBRANCH  23  25
ENDBRANCH  17  23
ENDBRANCH  16  20
ENDBRANCH   1  16
BRANCH   2  26
ATOM     26  S   UNL     1      38.993   1.354  12.870  0.00  0.00    +0.000 S 
BRANCH  26  27
ATOM     27  C   UNL     1      39.443  -0.280  13.360  0.00  0.00    +0.000 A 
ATOM     28  C   UNL     1      39.219  -1.403  12.582  0.00  0.00    +0.000 A 
ATOM     29  C   UNL     1      39.599  -2.636  13.043  0.00  0.00    +0.000 A 
ATOM     30  C   UNL     1      40.203  -2.768  14.275  0.00  0.00    +0.000 A 
ATOM     31  C   UNL     1      40.434  -1.675  15.060  0.00  0.00    +0.000 A 
ATOM     32  C   UNL     1      40.052  -0.429  14.599  0.00  0.00    +0.000 A 
ENDBRANCH  26  27
ENDBRANCH   2  26
TORSDOF 7
ENDMDL
MODEL 3
REMARK VINA RESULT:      -7.9      2.066      6.882
REMARK  Name = 
REMARK  7 active torsions:
REMARK  status: ('A' for Active; 'I' for Inactive)
REMARK    1  A    between atoms: C_2  and  O_3
REMARK    2  A    between atoms: O_3  and  C_4
REMARK    3  A    between atoms: C_7  and  N_8
REMARK    4  A    between atoms: N_8  and  C_9
REMARK    5  A    between atoms: C_10  and  S_11
REMARK    6  A    between atoms: S_11  and  C_12
REMARK    7  A    between atoms: N_20  and  C_21
REMARK                            x       y       z     vdW  Elec       q    Type
REMARK                         _______ _______ _______ _____ _____    ______ ____
ROOT
ATOM      1  C   UNL     1      37.287   4.101  15.631  0.00  0.00    +0.000 C 
ATOM      2  C   UNL     1      37.149   3.800  14.349  0.00  0.00    +0.000 C 
ATOM      3  C   UNL     1      36.849   2.357  14.237  0.00  0.00    +0.000 C 
ATOM      4  O   UNL     1      36.652   1.708  13.176  0.00  0.00    +0.000 OA
ATOM      5  N   UNL     1      36.814   1.799  15.544  0.00  0.00    +0.000 N 
ATOM      6  C   UNL     1      37.088   2.880  16.424  0.00  0.00    +0.000 C 
ATOM      7  O   UNL     1      37.157   2.845  17.675  0.00  0.00    +0.000 OA
ENDROOT
BRANCH   5   8
ATOM      8  C   UNL     1      36.557   0.433  15.880  0.00  0.00    +0.000 A 
ATOM      9  C   UNL     1      35.340   0.021  16.412  0.00  0.00    +0.000 A 
ATOM     10  C   UNL     1      35.090  -1.282  16.734  0.00  0.00    +0.000 A 
ATOM     11  C   UNL     1      33.765  -1.703  17.308  0.00  0.00    +0.000 C 
ATOM     12  C   UNL     1      36.059  -2.244  16.538  0.00  0.00    +0.000 A 
ATOM     13  C   UNL     1      37.281  -1.874  16.011  0.00  0.00    +0.000 A 
ATOM     14  C   UNL     1      37.519  -0.551  15.689  0.00  0.00    +0.000 A 
ATOM     15  C   UNL     1      38.816  -0.107  15.121  0.00  0.00    +0.000 C 
ENDBRANCH   5   8
BRANCH   1  16
ATOM     16  N   UNL     1      37.580   5.403  16.122  0.00  0.00    +0.000 NA
BRANCH  16  20
ATOM     17  C   UNL     1      41.061   6.199  18.372  0.00  0.00    +0.000 A 
ATOM     18  C   UNL     1      39.853   5.993  18.976  0.00  0.00    +0.000 A 
ATOM     19  C   UNL     1      38.706   5.731  18.254  0.00  0.00    +0.000 A 
ATOM     20  C   UNL     1      38.765   5.671  16.876  0.00  0.00    +0.000 A 
ATOM     21  C   UNL     1      39.963   5.876  16.281  0.00  0.00    +0.000 A 
ATOM     22  C   UNL     1      41.114   6.137  16.988  0.00  0.00    +0.000 A 
BRANCH  17  23
ATOM     23  O   UNL     1      42.197   6.460  19.133  0.00  0.00    +0.000 OA
BRANCH  23  25
ATOM     24  C   UNL     1      43.234   5.966  21.248  0.00  0.00    +0.000 C 
ATOM     25  C   UNL     1      42.062   6.581  20.535  0.00  0.00    +0.000 C 
ENDBRANCH  23  25
ENDBRANCH  17  23
ENDBRANCH  16  20
ENDBRANCH   1  16
BRANCH   2  26
ATOM     26  S   UNL     1      37.272   4.848  12.900  0.00  0.00    +0.000 S 
BRANCH  26  27
ATOM     27  C   UNL     1      35.802   5.787  12.641  0.00  0.00    +0.000 A 
ATOM     28  C   UNL     1      34.894   6.082  13.643  0.00  0.00    +0.000 A 
ATOM     29  C   UNL     1      33.775   6.818  13.351  0.00  0.00    +0.000 A 
ATOM     30  C   UNL     1      33.546   7.267  12.068  0.00  0.00    +0.000 A 
ATOM     31  C   UNL     1      34.427   6.988  11.064  0.00  0.00    +0.000 A 
ATOM     32  C   UNL     1      35.557   6.246  11.353  0.00  0.00    +0.000 A 
ENDBRANCH  26  27
ENDBRANCH   2  26
TORSDOF 7
ENDMDL
MODEL 4
REMARK VINA RESULT:      -7.8      2.073      8.087
REMARK  Name = 
REMARK  7 active torsions:
REMARK  status: ('A' for Active; 'I' for Inactive)
REMARK    1  A    between atoms: C_2  and  O_3
REMARK    2  A    between atoms: O_3  and  C_4
REMARK    3  A    between atoms: C_7  and  N_8
REMARK    4  A    between atoms: N_8  and  C_9
REMARK    5  A    between atoms: C_10  and  S_11
REMARK    6  A    between atoms: S_11  and  C_12
REMARK    7  A    between atoms: N_20  and  C_21
REMARK                            x       y       z     vdW  Elec       q    Type
REMARK                         _______ _______ _______ _____ _____    ______ ____
ROOT
ATOM      1  C   UNL     1      36.943   4.153  14.728  0.00  0.00    +0.000 C 
ATOM      2  C   UNL     1      36.563   5.420  14.689  0.00  0.00    +0.000 C 
ATOM      3  C   UNL     1      37.630   6.247  15.289  0.00  0.00    +0.000 C 
ATOM      4  O   UNL     1      37.627   7.500  15.427  0.00  0.00    +0.000 OA
ATOM      5  N   UNL     1      38.689   5.392  15.699  0.00  0.00    +0.000 N 
ATOM      6  C   UNL     1      38.270   4.080  15.353  0.00  0.00    +0.000 C 
ATOM      7  O   UNL     1      38.896   3.008  15.532  0.00  0.00    +0.000 OA
ENDROOT
BRANCH   5   8
ATOM      8  C   UNL     1      39.912   5.790  16.326  0.00  0.00    +0.000 A 
ATOM      9  C   UNL     1      41.051   6.098  15.590  0.00  0.00    +0.000 A 
ATOM     10  C   UNL     1      42.221   6.478  16.184  0.00  0.00    +0.000 A 
ATOM     11  C   UNL     1      43.440   6.806  15.367  0.00  0.00    +0.000 C 
ATOM     12  C   UNL     1      42.304   6.568  17.558  0.00  0.00    +0.000 A 
ATOM     13  C   UNL     1      41.193   6.271  18.323  0.00  0.00    +0.000 A 
ATOM     14  C   UNL     1      40.016   5.888  17.707  0.00  0.00    +0.000 A 
ATOM     15  C   UNL     1      38.797   5.559  18.488  0.00  0.00    +0.000 C 
ENDBRANCH   5   8
BRANCH   1  16
ATOM     16  N   UNL     1      36.167   3.068  14.236  0.00  0.00    +0.000 NA
BRANCH  16  20
ATOM     17  C   UNL     1      35.343  -0.310  16.629  0.00  0.00    +0.000 A 
ATOM     18  C   UNL     1      34.885   0.932  16.966  0.00  0.00    +0.000 A 
ATOM     19  C   UNL     1      35.145   2.046  16.194  0.00  0.00    +0.000 A 
ATOM     20  C   UNL     1      35.892   1.917  15.039  0.00  0.00    +0.000 A 
ATOM     21  C   UNL     1      36.344   0.686  14.709  0.00  0.00    +0.000 A 
ATOM     22  C   UNL     1      36.092  -0.432  15.469  0.00  0.00    +0.000 A 
BRANCH  17  23
ATOM     23  O   UNL     1      35.061  -1.411  17.433  0.00  0.00    +0.000 OA
BRANCH  23  25
ATOM     24  C   UNL     1      36.873  -1.504  19.015  0.00  0.00    +0.000 C 
ATOM     25  C   UNL     1      36.134  -2.200  17.905  0.00  0.00    +0.000 C 
ENDBRANCH  23  25
ENDBRANCH  17  23
ENDBRANCH  16  20
ENDBRANCH   1  16
BRANCH   2  26
ATOM     26  S   UNL     1      35.057   6.152  14.050  0.00  0.00    +0.000 S 
BRANCH  26  27
ATOM     27  C   UNL     1      35.106   6.335  12.296  0.00  0.00    +0.000 A 
ATOM     28  C   UNL     1      34.212   7.112  11.581  0.00  0.00    +0.000 A 
ATOM     29  C   UNL     1      34.323   7.196  10.218  0.00  0.00    +0.000 A 
ATOM     30  C   UNL     1      35.317   6.511   9.552  0.00  0.00    +0.000 A 
ATOM     31  C   UNL     1      36.209   5.738  10.236  0.00  0.00    +0.000 A 
ATOM     32  C   UNL     1      36.102   5.651  11.611  0.00  0.00    +0.000 A 
ENDBRANCH  26  27
ENDBRANCH   2  26
TORSDOF 7
ENDMDL
MODEL 5
REMARK VINA RESULT:      -7.8      3.602      8.478
REMARK  Name = 
REMARK  7 active torsions:
REMARK  status: ('A' for Active; 'I' for Inactive)
REMARK    1  A    between atoms: C_2  and  O_3
REMARK    2  A    between atoms: O_3  and  C_4
REMARK    3  A    between atoms: C_7  and  N_8
REMARK    4  A    between atoms: N_8  and  C_9
REMARK    5  A    between atoms: C_10  and  S_11
REMARK    6  A    between atoms: S_11  and  C_12
REMARK    7  A    between atoms: N_20  and  C_21
REMARK                            x       y       z     vdW  Elec       q    Type
REMARK                         _______ _______ _______ _____ _____    ______ ____
ROOT
ATOM      1  C   UNL     1      38.059   2.163  14.319  0.00  0.00    +0.000 C 
ATOM      2  C   UNL     1      37.121   1.872  15.206  0.00  0.00    +0.000 C 
ATOM      3  C   UNL     1      37.089   2.946  16.221  0.00  0.00    +0.000 C 
ATOM      4  O   UNL     1      36.325   3.016  17.220  0.00  0.00    +0.000 OA
ATOM      5  N   UNL     1      38.075   3.913  15.889  0.00  0.00    +0.000 N 
ATOM      6  C   UNL     1      38.690   3.434  14.701  0.00  0.00    +0.000 C 
ATOM      7  O   UNL     1      39.617   3.973  14.052  0.00  0.00    +0.000 OA
ENDROOT
BRANCH   5   8
ATOM      8  C   UNL     1      38.372   5.111  16.612  0.00  0.00    +0.000 A 
ATOM      9  C   UNL     1      39.110   5.096  17.791  0.00  0.00    +0.000 A 
ATOM     10  C   UNL     1      39.396   6.238  18.485  0.00  0.00    +0.000 A 
ATOM     11  C   UNL     1      40.196   6.196  19.758  0.00  0.00    +0.000 C 
ATOM     12  C   UNL     1      38.949   7.459  18.027  0.00  0.00    +0.000 A 
ATOM     13  C   UNL     1      38.214   7.514  16.859  0.00  0.00    +0.000 A 
ATOM     14  C   UNL     1      37.933   6.351  16.167  0.00  0.00    +0.000 A 
ATOM     15  C   UNL     1      37.146   6.361  14.908  0.00  0.00    +0.000 C 
ENDBRANCH   5   8
BRANCH   1  16
ATOM     16  N   UNL     1      38.377   1.355  13.193  0.00  0.00    +0.000 NA
BRANCH  16  20
ATOM     17  C   UNL     1      41.109  -1.849  13.492  0.00  0.00    +0.000 A 
ATOM     18  C   UNL     1      41.227  -0.735  14.275  0.00  0.00    +0.000 A 
ATOM     19  C   UNL     1      40.341   0.320  14.189  0.00  0.00    +0.000 A 
ATOM     20  C   UNL     1      39.297   0.264  13.288  0.00  0.00    +0.000 A 
ATOM     21  C   UNL     1      39.183  -0.840  12.514  0.00  0.00    +0.000 A 
ATOM     22  C   UNL     1      40.058  -1.899  12.589  0.00  0.00    +0.000 A 
BRANCH  17  23
ATOM     23  O   UNL     1      42.022  -2.893  13.606  0.00  0.00    +0.000 OA
BRANCH  23  25
ATOM     24  C   UNL     1      44.139  -3.364  12.562  0.00  0.00    +0.000 C 
ATOM     25  C   UNL     1      42.641  -3.385  12.434  0.00  0.00    +0.000 C 
ENDBRANCH  23  25
ENDBRANCH  17  23
ENDBRANCH  16  20
ENDBRANCH   1  16
BRANCH   2  26
ATOM     26  S   UNL     1      36.011   0.468  15.290  0.00  0.00    +0.000 S 
BRANCH  26  27
ATOM     27  C   UNL     1      36.888  -1.056  15.443  0.00  0.00    +0.000 A 
ATOM     28  C   UNL     1      36.613  -2.178  14.680  0.00  0.00    +0.000 A 
ATOM     29  C   UNL     1      37.344  -3.321  14.867  0.00  0.00    +0.000 A 
ATOM     30  C   UNL     1      38.350  -3.365  15.808  0.00  0.00    +0.000 A 
ATOM     31  C   UNL     1      38.639  -2.271  16.572  0.00  0.00    +0.000 A 
ATOM     32  C   UNL     1      37.904  -1.115  16.387  0.00  0.00    +0.000 A 
ENDBRANCH  26  27
ENDBRANCH   2  26
TORSDOF 7
ENDMDL
MODEL 6
REMARK VINA RESULT:      -7.8      2.081      7.463
REMARK  Name = 
REMARK  7 active torsions:
REMARK  status: ('A' for Active; 'I' for Inactive)
REMARK    1  A    between atoms: C_2  and  O_3
REMARK    2  A    between atoms: O_3  and  C_4
REMARK    3  A    between atoms: C_7  and  N_8
REMARK    4  A    between atoms: N_8  and  C_9
REMARK    5  A    between atoms: C_10  and  S_11
REMARK    6  A    between atoms: S_11  and  C_12
REMARK    7  A    between atoms: N_20  and  C_21
REMARK                            x       y       z     vdW  Elec       q    Type
REMARK                         _______ _______ _______ _____ _____    ______ ____
ROOT
ATOM      1  C   UNL     1      37.796   5.179  16.184  0.00  0.00    +0.000 C 
ATOM      2  C   UNL     1      37.563   5.212  14.882  0.00  0.00    +0.000 C 
ATOM      3  C   UNL     1      37.222   3.845  14.434  0.00  0.00    +0.000 C 
ATOM      4  O   UNL     1      36.937   3.485  13.261  0.00  0.00    +0.000 OA
ATOM      5  N   UNL     1      37.265   2.976  15.557  0.00  0.00    +0.000 N 
ATOM      6  C   UNL     1      37.624   3.799  16.658  0.00  0.00    +0.000 C 
ATOM      7  O   UNL     1      37.778   3.450  17.852  0.00  0.00    +0.000 OA
ENDROOT
BRANCH   5   8
ATOM      8  C   UNL     1      37.000   1.571  15.558  0.00  0.00    +0.000 A 
ATOM      9  C   UNL     1      37.948   0.642  15.142  0.00  0.00    +0.000 A 
ATOM     10  C   UNL     1      37.699  -0.702  15.141  0.00  0.00    +0.000 A 
ATOM     11  C   UNL     1      38.740  -1.687  14.687  0.00  0.00    +0.000 C 
ATOM     12  C   UNL     1      36.476  -1.181  15.560  0.00  0.00    +0.000 A 
ATOM     13  C   UNL     1      35.509  -0.289  15.982  0.00  0.00    +0.000 A 
ATOM     14  C   UNL     1      35.776   1.067  15.977  0.00  0.00    +0.000 A 
ATOM     15  C   UNL     1      34.768   2.063  16.421  0.00  0.00    +0.000 C 
ENDBRANCH   5   8
BRANCH   1  16
ATOM     16  N   UNL     1      38.153   6.314  16.964  0.00  0.00    +0.000 NA
BRANCH  16  20
ATOM     17  C   UNL     1      41.756   6.469  19.157  0.00  0.00    +0.000 A 
ATOM     18  C   UNL     1      40.541   6.436  19.781  0.00  0.00    +0.000 A 
ATOM     19  C   UNL     1      39.355   6.384  19.078  0.00  0.00    +0.000 A 
ATOM     20  C   UNL     1      39.379   6.365  17.698  0.00  0.00    +0.000 A 
ATOM     21  C   UNL     1      40.583   6.398  17.083  0.00  0.00    +0.000 A 
ATOM     22  C   UNL     1      41.773   6.449  17.771  0.00  0.00    +0.000 A 
BRANCH  17  23
ATOM     23  O   UNL     1      42.932   6.520  19.899  0.00  0.00    +0.000 OA
BRANCH  23  25
ATOM     24  C   UNL     1      43.726   6.764  22.158  0.00  0.00    +0.000 C 
ATOM     25  C   UNL     1      42.953   5.923  21.180  0.00  0.00    +0.000 C 
ENDBRANCH  23  25
ENDBRANCH  17  23
ENDBRANCH  16  20
ENDBRANCH   1  16
BRANCH   2  26
ATOM     26  S   UNL     1      37.610   6.590  13.737  0.00  0.00    +0.000 S 
BRANCH  26  27
ATOM     27  C   UNL     1      36.073   6.798  12.895  0.00  0.00    +0.000 A 
ATOM     28  C   UNL     1      35.959   6.876  11.518  0.00  0.00    +0.000 A 
ATOM     29  C   UNL     1      34.724   7.040  10.947  0.00  0.00    +0.000 A 
ATOM     30  C   UNL     1      33.595   7.129  11.732  0.00  0.00    +0.000 A 
ATOM     31  C   UNL     1      33.683   7.056  13.092  0.00  0.00    +0.000 A 
ATOM     32  C   UNL     1      34.927   6.890  13.673  0.00  0.00    +0.000 A 
ENDBRANCH  26  27
ENDBRANCH   2  26
TORSDOF 7
ENDMDL
MODEL 7
REMARK VINA RESULT:      -7.8      2.913      4.173
REMARK  Name = 
REMARK  7 active torsions:
REMARK  status: ('A' for Active; 'I' for Inactive)
REMARK    1  A    between atoms: C_2  and  O_3
REMARK    2  A    between atoms: O_3  and  C_4
REMARK    3  A    between atoms: C_7  and  N_8
REMARK    4  A    between atoms: N_8  and  C_9
REMARK    5  A    between atoms: C_10  and  S_11
REMARK    6  A    between atoms: S_11  and  C_12
REMARK    7  A    between atoms: N_20  and  C_21
REMARK                            x       y       z     vdW  Elec       q    Type
REMARK                         _______ _______ _______ _____ _____    ______ ____
ROOT
ATOM      1  C   UNL     1      36.866   6.125  14.684  0.00  0.00    +0.000 C 
ATOM      2  C   UNL     1      38.041   5.874  15.241  0.00  0.00    +0.000 C 
ATOM      3  C   UNL     1      38.123   4.426  15.527  0.00  0.00    +0.000 C 
ATOM      4  O   UNL     1      39.090   3.815  16.055  0.00  0.00    +0.000 OA
ATOM      5  N   UNL     1      36.912   3.812  15.106  0.00  0.00    +0.000 N 
ATOM      6  C   UNL     1      36.118   4.865  14.578  0.00  0.00    +0.000 C 
ATOM      7  O   UNL     1      34.966   4.779  14.091  0.00  0.00    +0.000 OA
ENDROOT
BRANCH   5   8
ATOM      8  C   UNL     1      36.583   2.423  15.204  0.00  0.00    +0.000 A 
ATOM      9  C   UNL     1      36.033   1.875  16.358  0.00  0.00    +0.000 A 
ATOM     10  C   UNL     1      35.717   0.550  16.455  0.00  0.00    +0.000 A 
ATOM     11  C   UNL     1      35.123  -0.019  17.714  0.00  0.00    +0.000 C 
ATOM     12  C   UNL     1      35.940  -0.297  15.390  0.00  0.00    +0.000 A 
ATOM     13  C   UNL     1      36.484   0.211  14.226  0.00  0.00    +0.000 A 
ATOM     14  C   UNL     1      36.798   1.554  14.143  0.00  0.00    +0.000 A 
ATOM     15  C   UNL     1      37.385   2.144  12.912  0.00  0.00    +0.000 C 
ENDBRANCH   5   8
BRANCH   1  16
ATOM     16  N   UNL     1      36.434   7.415  14.271  0.00  0.00    +0.000 NA
BRANCH  16  20
ATOM     17  C   UNL     1      34.172   9.920  16.805  0.00  0.00    +0.000 A 
ATOM     18  C   UNL     1      33.580   9.177  15.823  0.00  0.00    +0.000 A 
ATOM     19  C   UNL     1      34.306   8.353  14.987  0.00  0.00    +0.000 A 
ATOM     20  C   UNL     1      35.676   8.265  15.135  0.00  0.00    +0.000 A 
ATOM     21  C   UNL     1      36.259   9.002  16.109  0.00  0.00    +0.000 A 
ATOM     22  C   UNL     1      35.548   9.828  16.949  0.00  0.00    +0.000 A 
BRANCH  17  23
ATOM     23  O   UNL     1      33.408  10.741  17.630  0.00  0.00    +0.000 OA
BRANCH  23  25
ATOM     24  C   UNL     1      32.398   9.196  19.176  0.00  0.00    +0.000 C 
ATOM     25  C   UNL     1      32.178  10.249  18.124  0.00  0.00    +0.000 C 
ENDBRANCH  23  25
ENDBRANCH  17  23
ENDBRANCH  16  20
ENDBRANCH   1  16
BRANCH   2  26
ATOM     26  S   UNL     1      39.390   6.986  15.634  0.00  0.00    +0.000 S 
BRANCH  26  27
ATOM     27  C   UNL     1      39.971   6.758  17.285  0.00  0.00    +0.000 A 
ATOM     28  C   UNL     1      41.299   6.535  17.606  0.00  0.00    +0.000 A 
ATOM     29  C   UNL     1      41.661   6.367  18.916  0.00  0.00    +0.000 A 
ATOM     30  C   UNL     1      40.715   6.416  19.918  0.00  0.00    +0.000 A 
ATOM     31  C   UNL     1      39.400   6.634  19.625  0.00  0.00    +0.000 A 
ATOM     32  C   UNL     1      39.029   6.804  18.304  0.00  0.00    +0.000 A 
ENDBRANCH  26  27
ENDBRANCH   2  26
TORSDOF 7
ENDMDL
MODEL 8
REMARK VINA RESULT:      -7.7      3.380      8.543
REMARK  Name = 
REMARK  7 active torsions:
REMARK  status: ('A' for Active; 'I' for Inactive)
REMARK    1  A    between atoms: C_2  and  O_3
REMARK    2  A    between atoms: O_3  and  C_4
REMARK    3  A    between atoms: C_7  and  N_8
REMARK    4  A    between atoms: N_8  and  C_9
REMARK    5  A    between atoms: C_10  and  S_11
REMARK    6  A    between atoms: S_11  and  C_12
REMARK    7  A    between atoms: N_20  and  C_21
REMARK                            x       y       z     vdW  Elec       q    Type
REMARK                         _______ _______ _______ _____ _____    ______ ____
ROOT
ATOM      1  C   UNL     1      36.634   0.499  14.194  0.00  0.00    +0.000 C 
ATOM      2  C   UNL     1      35.986   0.542  15.347  0.00  0.00    +0.000 C 
ATOM      3  C   UNL     1      35.700   1.955  15.670  0.00  0.00    +0.000 C 
ATOM      4  O   UNL     1      35.097   2.389  16.688  0.00  0.00    +0.000 OA
ATOM      5  N   UNL     1      36.221   2.772  14.631  0.00  0.00    +0.000 N 
ATOM      6  C   UNL     1      36.809   1.872  13.702  0.00  0.00    +0.000 C 
ATOM      7  O   UNL     1      37.389   2.157  12.628  0.00  0.00    +0.000 OA
ENDROOT
BRANCH   5   8
ATOM      8  C   UNL     1      36.157   4.199  14.555  0.00  0.00    +0.000 A 
ATOM      9  C   UNL     1      35.022   4.863  14.102  0.00  0.00    +0.000 A 
ATOM     10  C   UNL     1      34.956   6.225  14.028  0.00  0.00    +0.000 A 
ATOM     11  C   UNL     1      33.717   6.920  13.535  0.00  0.00    +0.000 C 
ATOM     12  C   UNL     1      36.036   6.994  14.407  0.00  0.00    +0.000 A 
ATOM     13  C   UNL     1      37.182   6.370  14.863  0.00  0.00    +0.000 A 
ATOM     14  C   UNL     1      37.233   4.991  14.933  0.00  0.00    +0.000 A 
ATOM     15  C   UNL     1      38.442   4.278  15.416  0.00  0.00    +0.000 C 
ENDBRANCH   5   8
BRANCH   1  16
ATOM     16  N   UNL     1      37.074  -0.698  13.566  0.00  0.00    +0.000 NA
BRANCH  16  20
ATOM     17  C   UNL     1      41.089  -1.987  13.762  0.00  0.00    +0.000 A 
ATOM     18  C   UNL     1      40.122  -2.752  13.174  0.00  0.00    +0.000 A 
ATOM     19  C   UNL     1      38.805  -2.344  13.101  0.00  0.00    +0.000 A 
ATOM     20  C   UNL     1      38.437  -1.125  13.636  0.00  0.00    +0.000 A 
ATOM     21  C   UNL     1      39.397  -0.371  14.218  0.00  0.00    +0.000 A 
ATOM     22  C   UNL     1      40.713  -0.765  14.297  0.00  0.00    +0.000 A 
BRANCH  17  23
ATOM     23  O   UNL     1      42.406  -2.431  13.817  0.00  0.00    +0.000 OA
BRANCH  23  25
ATOM     24  C   UNL     1      44.347  -1.666  15.019  0.00  0.00    +0.000 C 
ATOM     25  C   UNL     1      43.446  -1.473  13.831  0.00  0.00    +0.000 C 
ENDBRANCH  23  25
ENDBRANCH  17  23
ENDBRANCH  16  20
ENDBRANCH   1  16
BRANCH   2  26
ATOM     26  S   UNL     1      35.476  -0.790  16.432  0.00  0.00    +0.000 S 
BRANCH  26  27
ATOM     27  C   UNL     1      36.688  -2.070  16.518  0.00  0.00    +0.000 A 
ATOM     28  C   UNL     1      36.504  -3.336  15.992  0.00  0.00    +0.000 A 
ATOM     29  C   UNL     1      37.500  -4.270  16.106  0.00  0.00    +0.000 A 
ATOM     30  C   UNL     1      38.683  -3.960  16.740  0.00  0.00    +0.000 A 
ATOM     31  C   UNL     1      38.887  -2.718  17.267  0.00  0.00    +0.000 A 
ATOM     32  C   UNL     1      37.886  -1.772  17.155  0.00  0.00    +0.000 A 
ENDBRANCH  26  27
ENDBRANCH   2  26
TORSDOF 7
ENDMDL
MODEL 9
REMARK VINA RESULT:      -7.6      2.867      7.538
REMARK  Name = 
REMARK  7 active torsions:
REMARK  status: ('A' for Active; 'I' for Inactive)
REMARK    1  A    between atoms: C_2  and  O_3
REMARK    2  A    between atoms: O_3  and  C_4
REMARK    3  A    between atoms: C_7  and  N_8
REMARK    4  A    between atoms: N_8  and  C_9
REMARK    5  A    between atoms: C_10  and  S_11
REMARK    6  A    between atoms: S_11  and  C_12
REMARK    7  A    between atoms: N_20  and  C_21
REMARK                            x       y       z     vdW  Elec       q    Type
REMARK                         _______ _______ _______ _____ _____    ______ ____
ROOT
ATOM      1  C   UNL     1      35.840   5.682  14.017  0.00  0.00    +0.000 C 
ATOM      2  C   UNL     1      36.984   6.133  14.506  0.00  0.00    +0.000 C 
ATOM      3  C   UNL     1      36.790   7.535  14.932  0.00  0.00    +0.000 C 
ATOM      4  O   UNL     1      37.654   8.294  15.447  0.00  0.00    +0.000 OA
ATOM      5  N   UNL     1      35.444   7.906  14.668  0.00  0.00    +0.000 N 
ATOM      6  C   UNL     1      34.840   6.755  14.094  0.00  0.00    +0.000 C 
ATOM      7  O   UNL     1      33.655   6.631  13.705  0.00  0.00    +0.000 OA
ENDROOT
BRANCH   5   8
ATOM      8  C   UNL     1      34.843   9.178  14.931  0.00  0.00    +0.000 A 
ATOM      9  C   UNL     1      34.290   9.490  16.168  0.00  0.00    +0.000 A 
ATOM     10  C   UNL     1      33.716  10.702  16.424  0.00  0.00    +0.000 A 
ATOM     11  C   UNL     1      33.125  11.016  17.771  0.00  0.00    +0.000 C 
ATOM     12  C   UNL     1      33.667  11.668  15.442  0.00  0.00    +0.000 A 
ATOM     13  C   UNL     1      34.206  11.396  14.199  0.00  0.00    +0.000 A 
ATOM     14  C   UNL     1      34.784  10.164  13.956  0.00  0.00    +0.000 A 
ATOM     15  C   UNL     1      35.376   9.826  12.636  0.00  0.00    +0.000 C 
ENDBRANCH   5   8
BRANCH   1  16
ATOM     16  N   UNL     1      35.648   4.368  13.509  0.00  0.00    +0.000 NA
BRANCH  16  20
ATOM     17  C   UNL     1      35.490   0.992  16.038  0.00  0.00    +0.000 A 
ATOM     18  C   UNL     1      36.209   0.980  14.876  0.00  0.00    +0.000 A 
ATOM     19  C   UNL     1      36.271   2.076  14.039  0.00  0.00    +0.000 A 
ATOM     20  C   UNL     1      35.590   3.230  14.373  0.00  0.00    +0.000 A 
ATOM     21  C   UNL     1      34.879   3.238  15.524  0.00  0.00    +0.000 A 
ATOM     22  C   UNL     1      34.809   2.154  16.368  0.00  0.00    +0.000 A 
BRANCH  17  23
ATOM     23  O   UNL     1      35.452  -0.132  16.858  0.00  0.00    +0.000 OA
BRANCH  23  25
ATOM     24  C   UNL     1      35.605  -0.327  19.252  0.00  0.00    +0.000 C 
ATOM     25  C   UNL     1      36.346  -0.207  17.949  0.00  0.00    +0.000 C 
ENDBRANCH  23  25
ENDBRANCH  17  23
ENDBRANCH  16  20
ENDBRANCH   1  16
BRANCH   2  26
ATOM     26  S   UNL     1      38.565   5.309  14.685  0.00  0.00    +0.000 S 
BRANCH  26  27
ATOM     27  C   UNL     1      39.255   5.551  16.291  0.00  0.00    +0.000 A 
ATOM     28  C   UNL     1      40.483   6.149  16.515  0.00  0.00    +0.000 A 
ATOM     29  C   UNL     1      40.943   6.295  17.798  0.00  0.00    +0.000 A 
ATOM     30  C   UNL     1      40.194   5.850  18.866  0.00  0.00    +0.000 A 
ATOM     31  C   UNL     1      38.981   5.257  18.669  0.00  0.00    +0.000 A 
ATOM     32  C   UNL     1      38.512   5.108  17.377  0.00  0.00    +0.000 A 
ENDBRANCH  26  27
ENDBRANCH   2  26
TORSDOF 7
ENDMDL
MODEL 10
REMARK VINA RESULT:      -7.6     24.382     27.860
REMARK  Name = 
REMARK  7 active torsions:
REMARK  status: ('A' for Active; 'I' for Inactive)
REMARK    1  A    between atoms: C_2  and  O_3
REMARK    2  A    between atoms: O_3  and  C_4
REMARK    3  A    between atoms: C_7  and  N_8
REMARK    4  A    between atoms: N_8  and  C_9
REMARK    5  A    between atoms: C_10  and  S_11
REMARK    6  A    between atoms: S_11  and  C_12
REMARK    7  A    between atoms: N_20  and  C_21
REMARK                            x       y       z     vdW  Elec       q    Type
REMARK                         _______ _______ _______ _____ _____    ______ ____
ROOT
ATOM      1  C   UNL     1      27.650  15.484  38.646  0.00  0.00    +0.000 C 
ATOM      2  C   UNL     1      28.749  15.832  37.996  0.00  0.00    +0.000 C 
ATOM      3  C   UNL     1      28.378  16.196  36.613  0.00  0.00    +0.000 C 
ATOM      4  O   UNL     1      29.156  16.580  35.699  0.00  0.00    +0.000 OA
ATOM      5  N   UNL     1      26.972  16.044  36.465  0.00  0.00    +0.000 N 
ATOM      6  C   UNL     1      26.506  15.597  37.731  0.00  0.00    +0.000 C 
ATOM      7  O   UNL     1      25.325  15.333  38.058  0.00  0.00    +0.000 OA
ENDROOT
BRANCH   5   8
ATOM      8  C   UNL     1      26.207  16.292  35.282  0.00  0.00    +0.000 A 
ATOM      9  C   UNL     1      26.050  15.330  34.291  0.00  0.00    +0.000 A 
ATOM     10  C   UNL     1      25.320  15.562  33.160  0.00  0.00    +0.000 A 
ATOM     11  C   UNL     1      25.164  14.505  32.102  0.00  0.00    +0.000 C 
ATOM     12  C   UNL     1      24.710  16.783  32.967  0.00  0.00    +0.000 A 
ATOM     13  C   UNL     1      24.843  17.764  33.930  0.00  0.00    +0.000 A 
ATOM     14  C   UNL     1      25.583  17.514  35.069  0.00  0.00    +0.000 A 
ATOM     15  C   UNL     1      25.754  18.538  36.131  0.00  0.00    +0.000 C 
ENDBRANCH   5   8
BRANCH   1  16
ATOM     16  N   UNL     1      27.620  15.071  40.007  0.00  0.00    +0.000 NA
BRANCH  16  20
ATOM     17  C   UNL     1      27.883  11.004  41.103  0.00  0.00    +0.000 A 
ATOM     18  C   UNL     1      26.676  11.629  40.964  0.00  0.00    +0.000 A 
ATOM     19  C   UNL     1      26.573  12.958  40.606  0.00  0.00    +0.000 A 
ATOM     20  C   UNL     1      27.719  13.693  40.376  0.00  0.00    +0.000 A 
ATOM     21  C   UNL     1      28.912  13.071  40.514  0.00  0.00    +0.000 A 
ATOM     22  C   UNL     1      29.029  11.748  40.871  0.00  0.00    +0.000 A 
BRANCH  17  23
ATOM     23  O   UNL     1      27.947   9.662  41.465  0.00  0.00    +0.000 OA
BRANCH  23  25
ATOM     24  C   UNL     1      26.892   7.611  42.156  0.00  0.00    +0.000 C 
ATOM     25  C   UNL     1      26.785   8.867  41.337  0.00  0.00    +0.000 C 
ENDBRANCH  23  25
ENDBRANCH  17  23
ENDBRANCH  16  20
ENDBRANCH   1  16
BRANCH   2  26
ATOM     26  S   UNL     1      30.448  15.902  38.561  0.00  0.00    +0.000 S 
BRANCH  26  27
ATOM     27  C   UNL     1      31.305  14.390  38.257  0.00  0.00    +0.000 A 
ATOM     28  C   UNL     1      32.139  13.784  39.180  0.00  0.00    +0.000 A 
ATOM     29  C   UNL     1      32.767  12.609  38.859  0.00  0.00    +0.000 A 
ATOM     30  C   UNL     1      32.576  12.026  37.625  0.00  0.00    +0.000 A 
ATOM     31  C   UNL     1      31.759  12.607  36.698  0.00  0.00    +0.000 A 
ATOM     32  C   UNL     1      31.122  13.791  37.017  0.00  0.00    +0.000 A 
ENDBRANCH  26  27
ENDBRANCH   2  26
TORSDOF 7
ENDMDL
