MODEL 1
REMARK VINA RESULT:      -6.1      0.000      0.000
REMARK  Name = 
REMARK  5 active torsions:
REMARK  status: ('A' for Active; 'I' for Inactive)
REMARK    1  A    between atoms: C_2  and  N_5
REMARK    2  A    between atoms: N_5  and  C_6
REMARK    3  A    between atoms: C_6  and  N_8
REMARK    4  A    between atoms: C_9  and  C_11
REMARK    5  A    between atoms: C_14  and  N_15
REMARK                            x       y       z     vdW  Elec       q    Type
REMARK                         _______ _______ _______ _____ _____    ______ ____
ROOT
ATOM      1  N   UNL     1      17.554  10.374  37.717  0.00  0.00    +0.000 NA
ATOM      2  C   UNL     1      17.880  10.100  36.378  0.00  0.00    +0.000 C 
ATOM      3  O   UNL     1      18.910   9.424  36.136  0.00  0.00    +0.000 OA
ENDROOT
BRANCH   2   4
ATOM      4  C   UNL     1      17.043  10.590  35.261  0.00  0.00    +0.000 A 
ATOM      5  C   UNL     1      17.353  10.202  33.975  0.00  0.00    +0.000 A 
ATOM      6  C   UNL     1      16.589  10.645  32.918  0.00  0.00    +0.000 A 
ATOM      7  C   UNL     1      15.507  11.475  33.111  0.00  0.00    +0.000 A 
ATOM      8  C   UNL     1      15.231  11.838  34.403  0.00  0.00    +0.000 A 
ATOM      9  C   UNL     1      15.969  11.419  35.487  0.00  0.00    +0.000 A 
BRANCH   7  10
ATOM     10  N   UNL     1      14.704  11.942  32.028  0.00  0.00    +0.000 N 
ATOM     11  O   UNL     1      14.523  11.195  31.044  0.00  0.00    +0.000 OA
ATOM     12  O   UNL     1      14.122  13.167  32.006  0.00  0.00    +0.000 OA
ENDBRANCH   7  10
ENDBRANCH   2   4
BRANCH   1  13
ATOM     13  C   UNL     1      18.309   9.939  38.837  0.00  0.00    +0.000 C 
ATOM     14  S   UNL     1      19.583  10.850  39.296  0.00  0.00    +0.000 S 
BRANCH  13  15
ATOM     15  N   UNL     1      17.991   8.755  39.554  0.00  0.00    +0.000 NA
BRANCH  15  17
ATOM     16  C   UNL     1      15.939   9.616  40.540  0.00  0.00    +0.000 C 
ATOM     17  C   UNL     1      17.196   8.802  40.761  0.00  0.00    +0.000 C 
ATOM     18  C   UNL     1      16.802   7.352  41.068  0.00  0.00    +0.000 C 
ATOM     19  C   UNL     1      17.965   9.303  41.942  0.00  0.00    +0.000 C 
ENDBRANCH  15  17
ENDBRANCH  13  15
ENDBRANCH   1  13
TORSDOF 5
ENDMDL
MODEL 2
REMARK VINA RESULT:      -6.0     30.048     31.072
REMARK  Name = 
REMARK  5 active torsions:
REMARK  status: ('A' for Active; 'I' for Inactive)
REMARK    1  A    between atoms: C_2  and  N_5
REMARK    2  A    between atoms: N_5  and  C_6
REMARK    3  A    between atoms: C_6  and  N_8
REMARK    4  A    between atoms: C_9  and  C_11
REMARK    5  A    between atoms: C_14  and  N_15
REMARK                            x       y       z     vdW  Elec       q    Type
REMARK                         _______ _______ _______ _____ _____    ______ ____
ROOT
ATOM      1  N   UNL     1      34.270  20.422  12.206  0.00  0.00    +0.000 NA
ATOM      2  C   UNL     1      33.302  20.257  11.201  0.00  0.00    +0.000 C 
ATOM      3  O   UNL     1      33.596  19.576  10.188  0.00  0.00    +0.000 OA
ENDROOT
BRANCH   2   4
ATOM      4  C   UNL     1      31.957  20.864  11.313  0.00  0.00    +0.000 A 
ATOM      5  C   UNL     1      31.630  21.553  12.461  0.00  0.00    +0.000 A 
ATOM      6  C   UNL     1      30.384  22.128  12.589  0.00  0.00    +0.000 A 
ATOM      7  C   UNL     1      29.442  22.032  11.589  0.00  0.00    +0.000 A 
ATOM      8  C   UNL     1      29.805  21.339  10.464  0.00  0.00    +0.000 A 
ATOM      9  C   UNL     1      31.039  20.750  10.296  0.00  0.00    +0.000 A 
BRANCH   7  10
ATOM     10  N   UNL     1      28.148  22.622  11.705  0.00  0.00    +0.000 N 
ATOM     11  O   UNL     1      28.013  23.653  12.395  0.00  0.00    +0.000 OA
ATOM     12  O   UNL     1      27.043  22.116  11.102  0.00  0.00    +0.000 OA
ENDBRANCH   7  10
ENDBRANCH   2   4
BRANCH   1  13
ATOM     13  C   UNL     1      35.576  19.869  12.167  0.00  0.00    +0.000 C 
ATOM     14  S   UNL     1      36.740  20.725  11.407  0.00  0.00    +0.000 S 
BRANCH  13  15
ATOM     15  N   UNL     1      35.890  18.618  12.759  0.00  0.00    +0.000 NA
BRANCH  15  17
ATOM     16  C   UNL     1      36.600  19.840  14.740  0.00  0.00    +0.000 C 
ATOM     17  C   UNL     1      36.676  18.539  13.970  0.00  0.00    +0.000 C 
ATOM     18  C   UNL     1      36.048  17.424  14.814  0.00  0.00    +0.000 C 
ATOM     19  C   UNL     1      38.096  18.144  13.715  0.00  0.00    +0.000 C 
ENDBRANCH  15  17
ENDBRANCH  13  15
ENDBRANCH   1  13
TORSDOF 5
ENDMDL
MODEL 3
REMARK VINA RESULT:      -5.6      1.613      2.142
REMARK  Name = 
REMARK  5 active torsions:
REMARK  status: ('A' for Active; 'I' for Inactive)
REMARK    1  A    between atoms: C_2  and  N_5
REMARK    2  A    between atoms: N_5  and  C_6
REMARK    3  A    between atoms: C_6  and  N_8
REMARK    4  A    between atoms: C_9  and  C_11
REMARK    5  A    between atoms: C_14  and  N_15
REMARK                            x       y       z     vdW  Elec       q    Type
REMARK                         _______ _______ _______ _____ _____    ______ ____
ROOT
ATOM      1  N   UNL     1      17.893   9.079  38.861  0.00  0.00    +0.000 NA
ATOM      2  C   UNL     1      18.279  10.194  38.100  0.00  0.00    +0.000 C 
ATOM      3  O   UNL     1      19.115  10.995  38.587  0.00  0.00    +0.000 OA
ENDROOT
BRANCH   2   4
ATOM      4  C   UNL     1      17.725  10.441  36.750  0.00  0.00    +0.000 A 
ATOM      5  C   UNL     1      18.281   9.787  35.671  0.00  0.00    +0.000 A 
ATOM      6  C   UNL     1      17.783  10.000  34.405  0.00  0.00    +0.000 A 
ATOM      7  C   UNL     1      16.731  10.861  34.181  0.00  0.00    +0.000 A 
ATOM      8  C   UNL     1      16.207  11.492  35.278  0.00  0.00    +0.000 A 
ATOM      9  C   UNL     1      16.675  11.308  36.560  0.00  0.00    +0.000 A 
BRANCH   7  10
ATOM     10  N   UNL     1      16.203  11.092  32.876  0.00  0.00    +0.000 N 
ATOM     11  O   UNL     1      16.586  10.371  31.932  0.00  0.00    +0.000 OA
ATOM     12  O   UNL     1      15.298  12.066  32.601  0.00  0.00    +0.000 OA
ENDBRANCH   7  10
ENDBRANCH   2   4
BRANCH   1  13
ATOM     13  C   UNL     1      18.381   8.779  40.160  0.00  0.00    +0.000 C 
ATOM     14  S   UNL     1      19.623   7.728  40.281  0.00  0.00    +0.000 S 
BRANCH  13  15
ATOM     15  N   UNL     1      17.828   9.360  41.331  0.00  0.00    +0.000 NA
BRANCH  15  17
ATOM     16  C   UNL     1      16.323   7.536  41.905  0.00  0.00    +0.000 C 
ATOM     17  C   UNL     1      16.488   9.034  41.767  0.00  0.00    +0.000 C 
ATOM     18  C   UNL     1      16.320   9.682  43.146  0.00  0.00    +0.000 C 
ATOM     19  C   UNL     1      15.432   9.616  40.882  0.00  0.00    +0.000 C 
ENDBRANCH  15  17
ENDBRANCH  13  15
ENDBRANCH   1  13
TORSDOF 5
ENDMDL
MODEL 4
REMARK VINA RESULT:      -5.5     21.754     23.137
REMARK  Name = 
REMARK  5 active torsions:
REMARK  status: ('A' for Active; 'I' for Inactive)
REMARK    1  A    between atoms: C_2  and  N_5
REMARK    2  A    between atoms: N_5  and  C_6
REMARK    3  A    between atoms: C_6  and  N_8
REMARK    4  A    between atoms: C_9  and  C_11
REMARK    5  A    between atoms: C_14  and  N_15
REMARK                            x       y       z     vdW  Elec       q    Type
REMARK                         _______ _______ _______ _____ _____    ______ ____
ROOT
ATOM      1  N   UNL     1      22.723  -9.124  23.443  0.00  0.00    +0.000 NA
ATOM      2  C   UNL     1      22.555  -8.828  24.806  0.00  0.00    +0.000 C 
ATOM      3  O   UNL     1      23.408  -9.254  25.624  0.00  0.00    +0.000 OA
ENDROOT
BRANCH   2   4
ATOM      4  C   UNL     1      21.405  -8.033  25.291  0.00  0.00    +0.000 A 
ATOM      5  C   UNL     1      20.314  -8.691  25.817  0.00  0.00    +0.000 A 
ATOM      6  C   UNL     1      19.230  -7.973  26.274  0.00  0.00    +0.000 A 
ATOM      7  C   UNL     1      19.205  -6.598  26.220  0.00  0.00    +0.000 A 
ATOM      8  C   UNL     1      20.307  -5.981  25.690  0.00  0.00    +0.000 A 
ATOM      9  C   UNL     1      21.410  -6.660  25.222  0.00  0.00    +0.000 A 
BRANCH   7  10
ATOM     10  N   UNL     1      18.091  -5.839  26.690  0.00  0.00    +0.000 N 
ATOM     11  O   UNL     1      17.109  -6.441  27.171  0.00  0.00    +0.000 OA
ATOM     12  O   UNL     1      18.040  -4.484  26.641  0.00  0.00    +0.000 OA
ENDBRANCH   7  10
ENDBRANCH   2   4
BRANCH   1  13
ATOM     13  C   UNL     1      23.799  -9.879  22.908  0.00  0.00    +0.000 C 
ATOM     14  S   UNL     1      23.745 -11.501  23.071  0.00  0.00    +0.000 S 
BRANCH  13  15
ATOM     15  N   UNL     1      24.899  -9.270  22.248  0.00  0.00    +0.000 NA
BRANCH  15  17
ATOM     16  C   UNL     1      26.408  -9.474  24.146  0.00  0.00    +0.000 C 
ATOM     17  C   UNL     1      25.947  -8.609  22.993  0.00  0.00    +0.000 C 
ATOM     18  C   UNL     1      27.112  -8.421  22.014  0.00  0.00    +0.000 C 
ATOM     19  C   UNL     1      25.551  -7.246  23.464  0.00  0.00    +0.000 C 
ENDBRANCH  15  17
ENDBRANCH  13  15
ENDBRANCH   1  13
TORSDOF 5
ENDMDL
MODEL 5
REMARK VINA RESULT:      -5.4     20.343     21.867
REMARK  Name = 
REMARK  5 active torsions:
REMARK  status: ('A' for Active; 'I' for Inactive)
REMARK    1  A    between atoms: C_2  and  N_5
REMARK    2  A    between atoms: N_5  and  C_6
REMARK    3  A    between atoms: C_6  and  N_8
REMARK    4  A    between atoms: C_9  and  C_11
REMARK    5  A    between atoms: C_14  and  N_15
REMARK                            x       y       z     vdW  Elec       q    Type
REMARK                         _______ _______ _______ _____ _____    ______ ____
ROOT
ATOM      1  N   UNL     1      33.785  -3.834  33.398  0.00  0.00    +0.000 NA
ATOM      2  C   UNL     1      33.002  -2.901  34.098  0.00  0.00    +0.000 C 
ATOM      3  O   UNL     1      32.119  -3.325  34.884  0.00  0.00    +0.000 OA
ENDROOT
BRANCH   2   4
ATOM      4  C   UNL     1      33.195  -1.444  33.928  0.00  0.00    +0.000 A 
ATOM      5  C   UNL     1      32.395  -0.577  34.640  0.00  0.00    +0.000 A 
ATOM      6  C   UNL     1      32.555   0.784  34.498  0.00  0.00    +0.000 A 
ATOM      7  C   UNL     1      33.507   1.311  33.653  0.00  0.00    +0.000 A 
ATOM      8  C   UNL     1      34.282   0.417  32.963  0.00  0.00    +0.000 A 
ATOM      9  C   UNL     1      34.154  -0.949  33.075  0.00  0.00    +0.000 A 
BRANCH   7  10
ATOM     10  N   UNL     1      33.687   2.718  33.496  0.00  0.00    +0.000 N 
ATOM     11  O   UNL     1      33.539   3.224  32.364  0.00  0.00    +0.000 OA
ATOM     12  O   UNL     1      34.017   3.546  34.519  0.00  0.00    +0.000 OA
ENDBRANCH   7  10
ENDBRANCH   2   4
BRANCH   1  13
ATOM     13  C   UNL     1      33.655  -5.243  33.512  0.00  0.00    +0.000 C 
ATOM     14  S   UNL     1      34.326  -5.966  34.812  0.00  0.00    +0.000 S 
BRANCH  13  15
ATOM     15  N   UNL     1      32.970  -6.022  32.542  0.00  0.00    +0.000 NA
BRANCH  15  17
ATOM     16  C   UNL     1      33.331  -7.786  30.905  0.00  0.00    +0.000 C 
ATOM     17  C   UNL     1      33.579  -6.338  31.270  0.00  0.00    +0.000 C 
ATOM     18  C   UNL     1      32.893  -5.440  30.235  0.00  0.00    +0.000 C 
ATOM     19  C   UNL     1      35.038  -6.013  31.228  0.00  0.00    +0.000 C 
ENDBRANCH  15  17
ENDBRANCH  13  15
ENDBRANCH   1  13
TORSDOF 5
ENDMDL
MODEL 6
REMARK VINA RESULT:      -5.3     19.206     20.338
REMARK  Name = 
REMARK  5 active torsions:
REMARK  status: ('A' for Active; 'I' for Inactive)
REMARK    1  A    between atoms: C_2  and  N_5
REMARK    2  A    between atoms: N_5  and  C_6
REMARK    3  A    between atoms: C_6  and  N_8
REMARK    4  A    between atoms: C_9  and  C_11
REMARK    5  A    between atoms: C_14  and  N_15
REMARK                            x       y       z     vdW  Elec       q    Type
REMARK                         _______ _______ _______ _____ _____    ______ ____
ROOT
ATOM      1  N   UNL     1      29.638  23.328  28.641  0.00  0.00    +0.000 NA
ATOM      2  C   UNL     1      28.639  22.720  27.862  0.00  0.00    +0.000 C 
ATOM      3  O   UNL     1      27.803  21.975  28.430  0.00  0.00    +0.000 OA
ENDROOT
BRANCH   2   4
ATOM      4  C   UNL     1      28.556  22.938  26.401  0.00  0.00    +0.000 A 
ATOM      5  C   UNL     1      29.722  23.015  25.670  0.00  0.00    +0.000 A 
ATOM      6  C   UNL     1      29.671  23.218  24.309  0.00  0.00    +0.000 A 
ATOM      7  C   UNL     1      28.471  23.349  23.646  0.00  0.00    +0.000 A 
ATOM      8  C   UNL     1      27.334  23.268  24.407  0.00  0.00    +0.000 A 
ATOM      9  C   UNL     1      27.341  23.066  25.769  0.00  0.00    +0.000 A 
BRANCH   7  10
ATOM     10  N   UNL     1      28.400  23.559  22.237  0.00  0.00    +0.000 N 
ATOM     11  O   UNL     1      27.312  23.377  21.652  0.00  0.00    +0.000 OA
ATOM     12  O   UNL     1      29.462  23.948  21.487  0.00  0.00    +0.000 OA
ENDBRANCH   7  10
ENDBRANCH   2   4
BRANCH   1  13
ATOM     13  C   UNL     1      29.779  23.164  30.044  0.00  0.00    +0.000 C 
ATOM     14  S   UNL     1      29.064  24.265  31.013  0.00  0.00    +0.000 S 
BRANCH  13  15
ATOM     15  N   UNL     1      30.510  22.088  30.613  0.00  0.00    +0.000 NA
BRANCH  15  17
ATOM     16  C   UNL     1      32.278  21.508  29.045  0.00  0.00    +0.000 C 
ATOM     17  C   UNL     1      31.942  21.983  30.442  0.00  0.00    +0.000 C 
ATOM     18  C   UNL     1      32.498  23.398  30.634  0.00  0.00    +0.000 C 
ATOM     19  C   UNL     1      32.587  21.118  31.477  0.00  0.00    +0.000 C 
ENDBRANCH  15  17
ENDBRANCH  13  15
ENDBRANCH   1  13
TORSDOF 5
ENDMDL
MODEL 7
REMARK VINA RESULT:      -5.2     18.073     18.991
REMARK  Name = 
REMARK  5 active torsions:
REMARK  status: ('A' for Active; 'I' for Inactive)
REMARK    1  A    between atoms: C_2  and  N_5
REMARK    2  A    between atoms: N_5  and  C_6
REMARK    3  A    between atoms: C_6  and  N_8
REMARK    4  A    between atoms: C_9  and  C_11
REMARK    5  A    between atoms: C_14  and  N_15
REMARK                            x       y       z     vdW  Elec       q    Type
REMARK                         _______ _______ _______ _____ _____    ______ ____
ROOT
ATOM      1  N   UNL     1      26.067  25.180  29.917  0.00  0.00    +0.000 NA
ATOM      2  C   UNL     1      26.069  23.890  29.359  0.00  0.00    +0.000 C 
ATOM      3  O   UNL     1      25.919  22.904  30.122  0.00  0.00    +0.000 OA
ENDROOT
BRANCH   2   4
ATOM      4  C   UNL     1      26.244  23.675  27.906  0.00  0.00    +0.000 A 
ATOM      5  C   UNL     1      25.393  24.314  27.030  0.00  0.00    +0.000 A 
ATOM      6  C   UNL     1      25.535  24.130  25.672  0.00  0.00    +0.000 A 
ATOM      7  C   UNL     1      26.516  23.313  25.156  0.00  0.00    +0.000 A 
ATOM      8  C   UNL     1      27.341  22.694  26.059  0.00  0.00    +0.000 A 
ATOM      9  C   UNL     1      27.233  22.851  27.423  0.00  0.00    +0.000 A 
BRANCH   7  10
ATOM     10  N   UNL     1      26.678  23.111  23.753  0.00  0.00    +0.000 N 
ATOM     11  O   UNL     1      27.831  23.071  23.277  0.00  0.00    +0.000 OA
ATOM     12  O   UNL     1      25.635  22.962  22.897  0.00  0.00    +0.000 OA
ENDBRANCH   7  10
ENDBRANCH   2   4
BRANCH   1  13
ATOM     13  C   UNL     1      25.905  25.461  31.299  0.00  0.00    +0.000 C 
ATOM     14  S   UNL     1      27.249  25.544  32.220  0.00  0.00    +0.000 S 
BRANCH  13  15
ATOM     15  N   UNL     1      24.630  25.667  31.887  0.00  0.00    +0.000 NA
BRANCH  15  17
ATOM     16  C   UNL     1      22.604  26.909  32.415  0.00  0.00    +0.000 C 
ATOM     17  C   UNL     1      23.790  26.773  31.484  0.00  0.00    +0.000 C 
ATOM     18  C   UNL     1      24.658  28.031  31.598  0.00  0.00    +0.000 C 
ATOM     19  C   UNL     1      23.349  26.677  30.058  0.00  0.00    +0.000 C 
ENDBRANCH  15  17
ENDBRANCH  13  15
ENDBRANCH   1  13
TORSDOF 5
ENDMDL
MODEL 8
REMARK VINA RESULT:      -5.2     19.729     21.107
REMARK  Name = 
REMARK  5 active torsions:
REMARK  status: ('A' for Active; 'I' for Inactive)
REMARK    1  A    between atoms: C_2  and  N_5
REMARK    2  A    between atoms: N_5  and  C_6
REMARK    3  A    between atoms: C_6  and  N_8
REMARK    4  A    between atoms: C_9  and  C_11
REMARK    5  A    between atoms: C_14  and  N_15
REMARK                            x       y       z     vdW  Elec       q    Type
REMARK                         _______ _______ _______ _____ _____    ______ ____
ROOT
ATOM      1  N   UNL     1      29.187  23.858  27.322  0.00  0.00    +0.000 NA
ATOM      2  C   UNL     1      29.518  23.166  26.145  0.00  0.00    +0.000 C 
ATOM      3  O   UNL     1      29.929  21.983  26.238  0.00  0.00    +0.000 OA
ENDROOT
BRANCH   2   4
ATOM      4  C   UNL     1      29.393  23.798  24.813  0.00  0.00    +0.000 A 
ATOM      5  C   UNL     1      29.851  25.086  24.640  0.00  0.00    +0.000 A 
ATOM      6  C   UNL     1      29.745  25.696  23.409  0.00  0.00    +0.000 A 
ATOM      7  C   UNL     1      29.188  25.047  22.331  0.00  0.00    +0.000 A 
ATOM      8  C   UNL     1      28.744  23.768  22.542  0.00  0.00    +0.000 A 
ATOM      9  C   UNL     1      28.830  23.122  23.756  0.00  0.00    +0.000 A 
BRANCH   7  10
ATOM     10  N   UNL     1      29.072  25.664  21.049  0.00  0.00    +0.000 N 
ATOM     11  O   UNL     1      28.246  26.586  20.894  0.00  0.00    +0.000 OA
ATOM     12  O   UNL     1      29.818  25.297  19.976  0.00  0.00    +0.000 OA
ENDBRANCH   7  10
ENDBRANCH   2   4
BRANCH   1  13
ATOM     13  C   UNL     1      29.281  23.317  28.630  0.00  0.00    +0.000 C 
ATOM     14  S   UNL     1      30.572  23.738  29.535  0.00  0.00    +0.000 S 
BRANCH  13  15
ATOM     15  N   UNL     1      28.301  22.438  29.161  0.00  0.00    +0.000 NA
BRANCH  15  17
ATOM     16  C   UNL     1      26.162  23.449  28.593  0.00  0.00    +0.000 C 
ATOM     17  C   UNL     1      27.058  22.941  29.702  0.00  0.00    +0.000 C 
ATOM     18  C   UNL     1      26.378  21.749  30.385  0.00  0.00    +0.000 C 
ATOM     19  C   UNL     1      27.264  23.985  30.752  0.00  0.00    +0.000 C 
ENDBRANCH  15  17
ENDBRANCH  13  15
ENDBRANCH   1  13
TORSDOF 5
ENDMDL
MODEL 9
REMARK VINA RESULT:      -5.1     20.955     22.605
REMARK  Name = 
REMARK  5 active torsions:
REMARK  status: ('A' for Active; 'I' for Inactive)
REMARK    1  A    between atoms: C_2  and  N_5
REMARK    2  A    between atoms: N_5  and  C_6
REMARK    3  A    between atoms: C_6  and  N_8
REMARK    4  A    between atoms: C_9  and  C_11
REMARK    5  A    between atoms: C_14  and  N_15
REMARK                            x       y       z     vdW  Elec       q    Type
REMARK                         _______ _______ _______ _____ _____    ______ ____
ROOT
ATOM      1  N   UNL     1      33.409  -5.501  33.121  0.00  0.00    +0.000 NA
ATOM      2  C   UNL     1      32.508  -4.746  33.891  0.00  0.00    +0.000 C 
ATOM      3  O   UNL     1      31.499  -5.319  34.371  0.00  0.00    +0.000 OA
ENDROOT
BRANCH   2   4
ATOM      4  C   UNL     1      32.724  -3.304  34.145  0.00  0.00    +0.000 A 
ATOM      5  C   UNL     1      33.648  -2.624  33.381  0.00  0.00    +0.000 A 
ATOM      6  C   UNL     1      33.867  -1.281  33.597  0.00  0.00    +0.000 A 
ATOM      7  C   UNL     1      33.181  -0.588  34.569  0.00  0.00    +0.000 A 
ATOM      8  C   UNL     1      32.272  -1.299  35.308  0.00  0.00    +0.000 A 
ATOM      9  C   UNL     1      32.023  -2.641  35.124  0.00  0.00    +0.000 A 
BRANCH   7  10
ATOM     10  N   UNL     1      33.395   0.803  34.806  0.00  0.00    +0.000 N 
ATOM     11  O   UNL     1      33.714   1.179  35.953  0.00  0.00    +0.000 OA
ATOM     12  O   UNL     1      33.266   1.750  33.843  0.00  0.00    +0.000 OA
ENDBRANCH   7  10
ENDBRANCH   2   4
BRANCH   1  13
ATOM     13  C   UNL     1      33.266  -6.884  32.838  0.00  0.00    +0.000 C 
ATOM     14  S   UNL     1      33.926  -7.947  33.886  0.00  0.00    +0.000 S 
BRANCH  13  15
ATOM     15  N   UNL     1      32.578  -7.356  31.689  0.00  0.00    +0.000 NA
BRANCH  15  17
ATOM     16  C   UNL     1      34.516  -7.140  30.235  0.00  0.00    +0.000 C 
ATOM     17  C   UNL     1      33.014  -7.003  30.357  0.00  0.00    +0.000 C 
ATOM     18  C   UNL     1      32.344  -8.004  29.410  0.00  0.00    +0.000 C 
ATOM     19  C   UNL     1      32.560  -5.640  29.941  0.00  0.00    +0.000 C 
ENDBRANCH  15  17
ENDBRANCH  13  15
ENDBRANCH   1  13
TORSDOF 5
ENDMDL
MODEL 10
REMARK VINA RESULT:      -5.0     20.694     21.539
REMARK  Name = 
REMARK  5 active torsions:
REMARK  status: ('A' for Active; 'I' for Inactive)
REMARK    1  A    between atoms: C_2  and  N_5
REMARK    2  A    between atoms: N_5  and  C_6
REMARK    3  A    between atoms: C_6  and  N_8
REMARK    4  A    between atoms: C_9  and  C_11
REMARK    5  A    between atoms: C_14  and  N_15
REMARK                            x       y       z     vdW  Elec       q    Type
REMARK                         _______ _______ _______ _____ _____    ______ ____
ROOT
ATOM      1  N   UNL     1      18.193  -9.819  27.943  0.00  0.00    +0.000 NA
ATOM      2  C   UNL     1      18.180  -8.490  27.486  0.00  0.00    +0.000 C 
ATOM      3  O   UNL     1      17.187  -7.770  27.756  0.00  0.00    +0.000 OA
ENDROOT
BRANCH   2   4
ATOM      4  C   UNL     1      19.301  -7.930  26.699  0.00  0.00    +0.000 A 
ATOM      5  C   UNL     1      19.242  -6.613  26.298  0.00  0.00    +0.000 A 
ATOM      6  C   UNL     1      20.274  -6.069  25.565  0.00  0.00    +0.000 A 
ATOM      7  C   UNL     1      21.379  -6.813  25.215  0.00  0.00    +0.000 A 
ATOM      8  C   UNL     1      21.400  -8.118  25.632  0.00  0.00    +0.000 A 
ATOM      9  C   UNL     1      20.390  -8.701  26.366  0.00  0.00    +0.000 A 
BRANCH   7  10
ATOM     10  N   UNL     1      22.456  -6.265  24.458  0.00  0.00    +0.000 N 
ATOM     11  O   UNL     1      22.202  -5.658  23.397  0.00  0.00    +0.000 OA
ATOM     12  O   UNL     1      23.757  -6.370  24.829  0.00  0.00    +0.000 OA
ENDBRANCH   7  10
ENDBRANCH   2   4
BRANCH   1  13
ATOM     13  C   UNL     1      17.155 -10.422  28.700  0.00  0.00    +0.000 C 
ATOM     14  S   UNL     1      16.061 -11.331  27.901  0.00  0.00    +0.000 S 
BRANCH  13  15
ATOM     15  N   UNL     1      17.047 -10.257  30.106  0.00  0.00    +0.000 NA
BRANCH  15  17
ATOM     16  C   UNL     1      18.608 -12.102  30.394  0.00  0.00    +0.000 C 
ATOM     17  C   UNL     1      18.011 -10.852  31.005  0.00  0.00    +0.000 C 
ATOM     18  C   UNL     1      19.120  -9.811  31.191  0.00  0.00    +0.000 C 
ATOM     19  C   UNL     1      17.444 -11.131  32.361  0.00  0.00    +0.000 C 
ENDBRANCH  15  17
ENDBRANCH  13  15
ENDBRANCH   1  13
TORSDOF 5
ENDMDL
