MODEL 1
REMARK VINA RESULT:      -8.1      0.000      0.000
REMARK  Name = 
REMARK  8 active torsions:
REMARK  status: ('A' for Active; 'I' for Inactive)
REMARK    1  A    between atoms: C_2  and  N_3
REMARK    2  A    between atoms: N_3  and  C_4
REMARK    3  A    between atoms: N_3  and  C_6
REMARK    4  A    between atoms: C_9  and  N_10
REMARK    5  A    between atoms: C_11  and  C_13
REMARK    6  A    between atoms: C_13  and  C_15
REMARK    7  A    between atoms: C_19  and  C_20
REMARK    8  A    between atoms: C_20  and  C_22
REMARK                            x       y       z     vdW  Elec       q    Type
REMARK                         _______ _______ _______ _____ _____    ______ ____
ROOT
ATOM      1  C   UNL     1      36.625   2.387  14.240  0.00  0.00    +0.000 C 
ATOM      2  C   UNL     1      35.445   3.499  14.604  0.00  0.00    +0.000 C 
ENDROOT
BRANCH   1   3
ATOM      3  C   UNL     1      36.085   1.254  15.141  0.00  0.00    +0.000 A 
ATOM      4  C   UNL     1      35.265   1.705  16.210  0.00  0.00    +0.000 A 
ATOM      5  C   UNL     1      34.703   0.794  17.060  0.00  0.00    +0.000 A 
ATOM      6  C   UNL     1      34.942  -0.550  16.868  0.00  0.00    +0.000 A 
ATOM      7  C   UNL     1      35.752  -0.993  15.815  0.00  0.00    +0.000 A 
ATOM      8  C   UNL     1      36.283  -0.048  15.004  0.00  0.00    +0.000 A 
BRANCH   7   9
ATOM      9  C   UNL     1      35.931  -2.445  15.696  0.00  0.00    +0.000 C 
ATOM     10  O   UNL     1      35.245  -3.075  14.877  0.00  0.00    +0.000 OA
BRANCH   9  11
ATOM     11  C   UNL     1      36.899  -3.144  16.530  0.00  0.00    +0.000 A 
ATOM     12  C   UNL     1      37.599  -2.421  17.472  0.00  0.00    +0.000 A 
ATOM     13  C   UNL     1      38.536  -2.952  18.330  0.00  0.00    +0.000 A 
ATOM     14  C   UNL     1      38.797  -4.313  18.244  0.00  0.00    +0.000 A 
ATOM     15  C   UNL     1      38.101  -5.035  17.308  0.00  0.00    +0.000 A 
ATOM     16  C   UNL     1      37.160  -4.479  16.450  0.00  0.00    +0.000 A 
ENDBRANCH   9  11
ENDBRANCH   7   9
ENDBRANCH   1   3
BRANCH   1  18
ATOM     17  N   UNL     1      37.345   4.234  15.822  0.00  0.00    +0.000 NA
ATOM     18  C   UNL     1      37.704   3.019  15.203  0.00  0.00    +0.000 C 
ATOM     19  O   UNL     1      38.788   2.516  15.421  0.00  0.00    +0.000 OA
BRANCH  17  23
ATOM     20  C   UNL     1      39.900   6.594  18.240  0.00  0.00    +0.000 A 
ATOM     21  C   UNL     1      39.398   5.385  18.744  0.00  0.00    +0.000 A 
ATOM     22  C   UNL     1      38.566   4.625  17.963  0.00  0.00    +0.000 A 
ATOM     23  C   UNL     1      38.165   4.946  16.693  0.00  0.00    +0.000 A 
ATOM     24  C   UNL     1      38.671   6.152  16.213  0.00  0.00    +0.000 A 
ATOM     25  C   UNL     1      38.273   6.578  14.840  0.00  0.00    +0.000 C 
ATOM     26  C   UNL     1      39.507   6.935  16.972  0.00  0.00    +0.000 A 
BRANCH  20  27
ATOM     27  N   UNL     1      40.785   7.401  18.978  0.00  0.00    +0.000 N 
BRANCH  27  29
ATOM     28  C   UNL     1      42.280   6.416  20.544  0.00  0.00    +0.000 C 
ATOM     29  C   UNL     1      42.150   7.024  19.164  0.00  0.00    +0.000 C 
ENDBRANCH  27  29
BRANCH  27  30
ATOM     30  C   UNL     1      40.293   8.619  19.569  0.00  0.00    +0.000 C 
ATOM     31  C   UNL     1      39.130   8.302  20.475  0.00  0.00    +0.000 C 
ENDBRANCH  27  30
ENDBRANCH  20  27
ENDBRANCH  17  23
ENDBRANCH   1  18
TORSDOF 8
ENDMDL
MODEL 2
REMARK VINA RESULT:      -8.1      1.420      2.385
REMARK  Name = 
REMARK  8 active torsions:
REMARK  status: ('A' for Active; 'I' for Inactive)
REMARK    1  A    between atoms: C_2  and  N_3
REMARK    2  A    between atoms: N_3  and  C_4
REMARK    3  A    between atoms: N_3  and  C_6
REMARK    4  A    between atoms: C_9  and  N_10
REMARK    5  A    between atoms: C_11  and  C_13
REMARK    6  A    between atoms: C_13  and  C_15
REMARK    7  A    between atoms: C_19  and  C_20
REMARK    8  A    between atoms: C_20  and  C_22
REMARK                            x       y       z     vdW  Elec       q    Type
REMARK                         _______ _______ _______ _____ _____    ______ ____
ROOT
ATOM      1  C   UNL     1      36.434   1.909  14.345  0.00  0.00    +0.000 C 
ATOM      2  C   UNL     1      35.175   2.907  14.768  0.00  0.00    +0.000 C 
ENDROOT
BRANCH   1   3
ATOM      3  C   UNL     1      36.059   0.742  15.286  0.00  0.00    +0.000 A 
ATOM      4  C   UNL     1      35.074   1.072  16.254  0.00  0.00    +0.000 A 
ATOM      5  C   UNL     1      34.637   0.115  17.126  0.00  0.00    +0.000 A 
ATOM      6  C   UNL     1      35.160  -1.158  17.052  0.00  0.00    +0.000 A 
ATOM      7  C   UNL     1      36.133  -1.482  16.098  0.00  0.00    +0.000 A 
ATOM      8  C   UNL     1      36.529  -0.496  15.261  0.00  0.00    +0.000 A 
BRANCH   7   9
ATOM      9  C   UNL     1      36.613  -2.870  16.102  0.00  0.00    +0.000 C 
ATOM     10  O   UNL     1      37.784  -3.104  16.437  0.00  0.00    +0.000 OA
BRANCH   9  11
ATOM     11  C   UNL     1      35.731  -3.961  15.714  0.00  0.00    +0.000 A 
ATOM     12  C   UNL     1      34.684  -3.690  14.858  0.00  0.00    +0.000 A 
ATOM     13  C   UNL     1      33.780  -4.623  14.405  0.00  0.00    +0.000 A 
ATOM     14  C   UNL     1      33.929  -5.934  14.838  0.00  0.00    +0.000 A 
ATOM     15  C   UNL     1      34.969  -6.207  15.689  0.00  0.00    +0.000 A 
ATOM     16  C   UNL     1      35.870  -5.249  16.136  0.00  0.00    +0.000 A 
ENDBRANCH   9  11
ENDBRANCH   7   9
ENDBRANCH   1   3
BRANCH   1  18
ATOM     17  N   UNL     1      37.057   3.826  15.883  0.00  0.00    +0.000 NA
ATOM     18  C   UNL     1      37.501   2.654  15.237  0.00  0.00    +0.000 C 
ATOM     19  O   UNL     1      38.645   2.270  15.381  0.00  0.00    +0.000 OA
BRANCH  17  23
ATOM     20  C   UNL     1      39.505   6.448  18.137  0.00  0.00    +0.000 A 
ATOM     21  C   UNL     1      39.148   5.204  18.678  0.00  0.00    +0.000 A 
ATOM     22  C   UNL     1      38.350   4.358  17.950  0.00  0.00    +0.000 A 
ATOM     23  C   UNL     1      37.851   4.624  16.702  0.00  0.00    +0.000 A 
ATOM     24  C   UNL     1      38.214   5.865  16.184  0.00  0.00    +0.000 A 
ATOM     25  C   UNL     1      37.704   6.233  14.833  0.00  0.00    +0.000 C 
ATOM     26  C   UNL     1      39.012   6.734  16.889  0.00  0.00    +0.000 A 
BRANCH  20  27
ATOM     27  N   UNL     1      40.349   7.344  18.817  0.00  0.00    +0.000 N 
BRANCH  27  29
ATOM     28  C   UNL     1      38.655   8.355  20.145  0.00  0.00    +0.000 C 
ATOM     29  C   UNL     1      40.054   7.776  20.146  0.00  0.00    +0.000 C 
ENDBRANCH  27  29
BRANCH  27  30
ATOM     30  C   UNL     1      41.522   7.844  18.147  0.00  0.00    +0.000 C 
ATOM     31  C   UNL     1      42.621   6.816  18.226  0.00  0.00    +0.000 C 
ENDBRANCH  27  30
ENDBRANCH  20  27
ENDBRANCH  17  23
ENDBRANCH   1  18
TORSDOF 8
ENDMDL
MODEL 3
REMARK VINA RESULT:      -8.0      1.843      1.982
REMARK  Name = 
REMARK  8 active torsions:
REMARK  status: ('A' for Active; 'I' for Inactive)
REMARK    1  A    between atoms: C_2  and  N_3
REMARK    2  A    between atoms: N_3  and  C_4
REMARK    3  A    between atoms: N_3  and  C_6
REMARK    4  A    between atoms: C_9  and  N_10
REMARK    5  A    between atoms: C_11  and  C_13
REMARK    6  A    between atoms: C_13  and  C_15
REMARK    7  A    between atoms: C_19  and  C_20
REMARK    8  A    between atoms: C_20  and  C_22
REMARK                            x       y       z     vdW  Elec       q    Type
REMARK                         _______ _______ _______ _____ _____    ______ ____
ROOT
ATOM      1  C   UNL     1      36.092   2.346  14.386  0.00  0.00    +0.000 C 
ATOM      2  C   UNL     1      34.869   3.093  15.228  0.00  0.00    +0.000 C 
ENDROOT
BRANCH   1   3
ATOM      3  C   UNL     1      35.958   0.964  15.065  0.00  0.00    +0.000 A 
ATOM      4  C   UNL     1      35.106   0.958  16.201  0.00  0.00    +0.000 A 
ATOM      5  C   UNL     1      34.883  -0.212  16.870  0.00  0.00    +0.000 A 
ATOM      6  C   UNL     1      35.489  -1.370  16.433  0.00  0.00    +0.000 A 
ATOM      7  C   UNL     1      36.330  -1.362  15.313  0.00  0.00    +0.000 A 
ATOM      8  C   UNL     1      36.516  -0.176  14.688  0.00  0.00    +0.000 A 
BRANCH   7   9
ATOM      9  C   UNL     1      36.915  -2.652  14.927  0.00  0.00    +0.000 C 
ATOM     10  O   UNL     1      36.231  -3.681  15.029  0.00  0.00    +0.000 OA
BRANCH   9  11
ATOM     11  C   UNL     1      38.284  -2.728  14.434  0.00  0.00    +0.000 A 
ATOM     12  C   UNL     1      39.316  -2.702  15.348  0.00  0.00    +0.000 A 
ATOM     13  C   UNL     1      40.651  -2.772  15.025  0.00  0.00    +0.000 A 
ATOM     14  C   UNL     1      40.989  -2.880  13.682  0.00  0.00    +0.000 A 
ATOM     15  C   UNL     1      39.964  -2.907  12.770  0.00  0.00    +0.000 A 
ATOM     16  C   UNL     1      38.622  -2.833  13.118  0.00  0.00    +0.000 A 
ENDBRANCH   9  11
ENDBRANCH   7   9
ENDBRANCH   1   3
BRANCH   1  18
ATOM     17  N   UNL     1      36.940   4.165  15.937  0.00  0.00    +0.000 NA
ATOM     18  C   UNL     1      37.253   2.971  15.254  0.00  0.00    +0.000 C 
ATOM     19  O   UNL     1      38.360   2.480  15.351  0.00  0.00    +0.000 OA
BRANCH  17  23
ATOM     20  C   UNL     1      39.679   6.513  18.158  0.00  0.00    +0.000 A 
ATOM     21  C   UNL     1      39.287   5.259  18.652  0.00  0.00    +0.000 A 
ATOM     22  C   UNL     1      38.396   4.503  17.935  0.00  0.00    +0.000 A 
ATOM     23  C   UNL     1      37.832   4.868  16.742  0.00  0.00    +0.000 A 
ATOM     24  C   UNL     1      38.231   6.117  16.270  0.00  0.00    +0.000 A 
ATOM     25  C   UNL     1      37.655   6.592  14.980  0.00  0.00    +0.000 C 
ATOM     26  C   UNL     1      39.122   6.898  16.966  0.00  0.00    +0.000 A 
BRANCH  20  27
ATOM     27  N   UNL     1      40.616   7.319  18.828  0.00  0.00    +0.000 N 
BRANCH  27  29
ATOM     28  C   UNL     1      42.757   6.752  17.964  0.00  0.00    +0.000 C 
ATOM     29  C   UNL     1      41.746   7.863  18.146  0.00  0.00    +0.000 C 
ENDBRANCH  27  29
BRANCH  27  30
ATOM     30  C   UNL     1      40.434   7.582  20.233  0.00  0.00    +0.000 C 
ATOM     31  C   UNL     1      39.088   8.222  20.453  0.00  0.00    +0.000 C 
ENDBRANCH  27  30
ENDBRANCH  20  27
ENDBRANCH  17  23
ENDBRANCH   1  18
TORSDOF 8
ENDMDL
MODEL 4
REMARK VINA RESULT:      -7.9      4.228      5.971
REMARK  Name = 
REMARK  8 active torsions:
REMARK  status: ('A' for Active; 'I' for Inactive)
REMARK    1  A    between atoms: C_2  and  N_3
REMARK    2  A    between atoms: N_3  and  C_4
REMARK    3  A    between atoms: N_3  and  C_6
REMARK    4  A    between atoms: C_9  and  N_10
REMARK    5  A    between atoms: C_11  and  C_13
REMARK    6  A    between atoms: C_13  and  C_15
REMARK    7  A    between atoms: C_19  and  C_20
REMARK    8  A    between atoms: C_20  and  C_22
REMARK                            x       y       z     vdW  Elec       q    Type
REMARK                         _______ _______ _______ _____ _____    ______ ____
ROOT
ATOM      1  C   UNL     1      36.985   1.677  13.715  0.00  0.00    +0.000 C 
ATOM      2  C   UNL     1      36.878   3.227  14.306  0.00  0.00    +0.000 C 
ENDROOT
BRANCH   1   3
ATOM      3  C   UNL     1      36.268   0.986  14.897  0.00  0.00    +0.000 A 
ATOM      4  C   UNL     1      35.605   1.884  15.776  0.00  0.00    +0.000 A 
ATOM      5  C   UNL     1      34.909   1.391  16.844  0.00  0.00    +0.000 A 
ATOM      6  C   UNL     1      34.862   0.030  17.053  0.00  0.00    +0.000 A 
ATOM      7  C   UNL     1      35.518  -0.854  16.186  0.00  0.00    +0.000 A 
ATOM      8  C   UNL     1      36.192  -0.312  15.145  0.00  0.00    +0.000 A 
BRANCH   7   9
ATOM      9  C   UNL     1      35.393  -2.284  16.495  0.00  0.00    +0.000 C 
ATOM     10  O   UNL     1      34.294  -2.840  16.355  0.00  0.00    +0.000 OA
BRANCH   9  11
ATOM     11  C   UNL     1      36.543  -3.044  16.965  0.00  0.00    +0.000 A 
ATOM     12  C   UNL     1      37.380  -2.464  17.895  0.00  0.00    +0.000 A 
ATOM     13  C   UNL     1      38.496  -3.068  18.429  0.00  0.00    +0.000 A 
ATOM     14  C   UNL     1      38.804  -4.354  18.005  0.00  0.00    +0.000 A 
ATOM     15  C   UNL     1      37.972  -4.933  17.080  0.00  0.00    +0.000 A 
ATOM     16  C   UNL     1      36.851  -4.305  16.552  0.00  0.00    +0.000 A 
ENDBRANCH   9  11
ENDBRANCH   7   9
ENDBRANCH   1   3
BRANCH   1  18
ATOM     17  N   UNL     1      39.247   0.591  13.348  0.00  0.00    +0.000 NA
ATOM     18  C   UNL     1      38.490   1.474  14.145  0.00  0.00    +0.000 C 
ATOM     19  O   UNL     1      38.999   2.029  15.099  0.00  0.00    +0.000 OA
BRANCH  17  23
ATOM     20  C   UNL     1      43.221  -0.595  14.213  0.00  0.00    +0.000 A 
ATOM     21  C   UNL     1      42.997   0.591  13.498  0.00  0.00    +0.000 A 
ATOM     22  C   UNL     1      41.710   0.971  13.213  0.00  0.00    +0.000 A 
ATOM     23  C   UNL     1      40.585   0.277  13.573  0.00  0.00    +0.000 A 
ATOM     24  C   UNL     1      40.829  -0.898  14.279  0.00  0.00    +0.000 A 
ATOM     25  C   UNL     1      39.655  -1.715  14.700  0.00  0.00    +0.000 C 
ATOM     26  C   UNL     1      42.106  -1.305  14.580  0.00  0.00    +0.000 A 
BRANCH  20  27
ATOM     27  N   UNL     1      44.514  -1.020  14.568  0.00  0.00    +0.000 N 
BRANCH  27  29
ATOM     28  C   UNL     1      45.347  -0.224  16.648  0.00  0.00    +0.000 C 
ATOM     29  C   UNL     1      45.459  -0.117  15.142  0.00  0.00    +0.000 C 
ENDBRANCH  27  29
BRANCH  27  30
ATOM     30  C   UNL     1      44.889  -2.390  14.327  0.00  0.00    +0.000 C 
ATOM     31  C   UNL     1      45.049  -2.613  12.845  0.00  0.00    +0.000 C 
ENDBRANCH  27  30
ENDBRANCH  20  27
ENDBRANCH  17  23
ENDBRANCH   1  18
TORSDOF 8
ENDMDL
MODEL 5
REMARK VINA RESULT:      -7.9      3.991      5.758
REMARK  Name = 
REMARK  8 active torsions:
REMARK  status: ('A' for Active; 'I' for Inactive)
REMARK    1  A    between atoms: C_2  and  N_3
REMARK    2  A    between atoms: N_3  and  C_4
REMARK    3  A    between atoms: N_3  and  C_6
REMARK    4  A    between atoms: C_9  and  N_10
REMARK    5  A    between atoms: C_11  and  C_13
REMARK    6  A    between atoms: C_13  and  C_15
REMARK    7  A    between atoms: C_19  and  C_20
REMARK    8  A    between atoms: C_20  and  C_22
REMARK                            x       y       z     vdW  Elec       q    Type
REMARK                         _______ _______ _______ _____ _____    ______ ____
ROOT
ATOM      1  C   UNL     1      35.255  -0.707  17.697  0.00  0.00    +0.000 C 
ATOM      2  C   UNL     1      35.246  -0.095  19.242  0.00  0.00    +0.000 C 
ENDROOT
BRANCH   1   3
ATOM      3  C   UNL     1      36.597  -1.463  17.813  0.00  0.00    +0.000 A 
ATOM      4  C   UNL     1      36.921  -1.867  19.136  0.00  0.00    +0.000 A 
ATOM      5  C   UNL     1      38.071  -2.571  19.364  0.00  0.00    +0.000 A 
ATOM      6  C   UNL     1      38.898  -2.879  18.306  0.00  0.00    +0.000 A 
ATOM      7  C   UNL     1      38.578  -2.478  17.002  0.00  0.00    +0.000 A 
ATOM      8  C   UNL     1      37.429  -1.784  16.834  0.00  0.00    +0.000 A 
BRANCH   7   9
ATOM      9  C   UNL     1      39.524  -2.868  15.949  0.00  0.00    +0.000 C 
ATOM     10  O   UNL     1      40.226  -3.878  16.109  0.00  0.00    +0.000 OA
BRANCH   9  11
ATOM     11  C   UNL     1      39.645  -2.078  14.731  0.00  0.00    +0.000 A 
ATOM     12  C   UNL     1      40.283  -0.858  14.797  0.00  0.00    +0.000 A 
ATOM     13  C   UNL     1      40.473  -0.014  13.728  0.00  0.00    +0.000 A 
ATOM     14  C   UNL     1      39.990  -0.417  12.489  0.00  0.00    +0.000 A 
ATOM     15  C   UNL     1      39.355  -1.631  12.420  0.00  0.00    +0.000 A 
ATOM     16  C   UNL     1      39.172  -2.467  13.514  0.00  0.00    +0.000 A 
ENDBRANCH   9  11
ENDBRANCH   7   9
ENDBRANCH   1   3
BRANCH   1  18
ATOM     17  N   UNL     1      35.128   0.979  15.807  0.00  0.00    +0.000 NA
ATOM     18  C   UNL     1      35.748   0.633  17.026  0.00  0.00    +0.000 C 
ATOM     19  O   UNL     1      36.606   1.349  17.502  0.00  0.00    +0.000 OA
BRANCH  17  23
ATOM     20  C   UNL     1      36.264   4.264  13.386  0.00  0.00    +0.000 A 
ATOM     21  C   UNL     1      35.394   4.474  14.467  0.00  0.00    +0.000 A 
ATOM     22  C   UNL     1      35.022   3.408  15.246  0.00  0.00    +0.000 A 
ATOM     23  C   UNL     1      35.433   2.115  15.062  0.00  0.00    +0.000 A 
ATOM     24  C   UNL     1      36.293   1.927  13.983  0.00  0.00    +0.000 A 
ATOM     25  C   UNL     1      36.779   0.545  13.710  0.00  0.00    +0.000 C 
ATOM     26  C   UNL     1      36.684   2.975  13.183  0.00  0.00    +0.000 A 
BRANCH  20  27
ATOM     27  N   UNL     1      36.711   5.320  12.572  0.00  0.00    +0.000 N 
BRANCH  27  29
ATOM     28  C   UNL     1      38.928   5.937  13.172  0.00  0.00    +0.000 C 
ATOM     29  C   UNL     1      37.486   6.393  13.109  0.00  0.00    +0.000 C 
ENDBRANCH  27  29
BRANCH  27  30
ATOM     30  C   UNL     1      36.361   5.322  11.175  0.00  0.00    +0.000 C 
ATOM     31  C   UNL     1      35.365   6.422  10.909  0.00  0.00    +0.000 C 
ENDBRANCH  27  30
ENDBRANCH  20  27
ENDBRANCH  17  23
ENDBRANCH   1  18
TORSDOF 8
ENDMDL
MODEL 6
REMARK VINA RESULT:      -7.8      1.655      2.494
REMARK  Name = 
REMARK  8 active torsions:
REMARK  status: ('A' for Active; 'I' for Inactive)
REMARK    1  A    between atoms: C_2  and  N_3
REMARK    2  A    between atoms: N_3  and  C_4
REMARK    3  A    between atoms: N_3  and  C_6
REMARK    4  A    between atoms: C_9  and  N_10
REMARK    5  A    between atoms: C_11  and  C_13
REMARK    6  A    between atoms: C_13  and  C_15
REMARK    7  A    between atoms: C_19  and  C_20
REMARK    8  A    between atoms: C_20  and  C_22
REMARK                            x       y       z     vdW  Elec       q    Type
REMARK                         _______ _______ _______ _____ _____    ______ ____
ROOT
ATOM      1  C   UNL     1      37.196   4.235  13.168  0.00  0.00    +0.000 C 
ATOM      2  C   UNL     1      35.909   5.257  12.927  0.00  0.00    +0.000 C 
ENDROOT
BRANCH   1   3
ATOM      3  C   UNL     1      36.466   3.245  14.103  0.00  0.00    +0.000 A 
ATOM      4  C   UNL     1      35.320   3.790  14.740  0.00  0.00    +0.000 A 
ATOM      5  C   UNL     1      34.571   3.003  15.570  0.00  0.00    +0.000 A 
ATOM      6  C   UNL     1      34.940   1.692  15.776  0.00  0.00    +0.000 A 
ATOM      7  C   UNL     1      36.072   1.156  15.148  0.00  0.00    +0.000 A 
ATOM      8  C   UNL     1      36.776   1.979  14.337  0.00  0.00    +0.000 A 
BRANCH   7   9
ATOM      9  C   UNL     1      36.367  -0.255  15.429  0.00  0.00    +0.000 C 
ATOM     10  O   UNL     1      36.335  -1.076  14.501  0.00  0.00    +0.000 OA
BRANCH   9  11
ATOM     11  C   UNL     1      36.692  -0.689  16.780  0.00  0.00    +0.000 A 
ATOM     12  C   UNL     1      37.756  -1.548  16.958  0.00  0.00    +0.000 A 
ATOM     13  C   UNL     1      38.178  -2.032  18.175  0.00  0.00    +0.000 A 
ATOM     14  C   UNL     1      37.485  -1.628  19.310  0.00  0.00    +0.000 A 
ATOM     15  C   UNL     1      36.427  -0.773  19.136  0.00  0.00    +0.000 A 
ATOM     16  C   UNL     1      36.016  -0.297  17.897  0.00  0.00    +0.000 A 
ENDBRANCH   9  11
ENDBRANCH   7   9
ENDBRANCH   1   3
BRANCH   1  18
ATOM     17  N   UNL     1      38.840   4.524  15.078  0.00  0.00    +0.000 NA
ATOM     18  C   UNL     1      37.902   5.158  14.235  0.00  0.00    +0.000 C 
ATOM     19  O   UNL     1      37.676   6.346  14.353  0.00  0.00    +0.000 OA
BRANCH  17  23
ATOM     20  C   UNL     1      40.790   6.404  18.335  0.00  0.00    +0.000 A 
ATOM     21  C   UNL     1      41.307   6.560  17.039  0.00  0.00    +0.000 A 
ATOM     22  C   UNL     1      40.678   5.945  15.987  0.00  0.00    +0.000 A 
ATOM     23  C   UNL     1      39.555   5.167  16.084  0.00  0.00    +0.000 A 
ATOM     24  C   UNL     1      39.059   5.023  17.377  0.00  0.00    +0.000 A 
ATOM     25  C   UNL     1      37.843   4.183  17.568  0.00  0.00    +0.000 C 
ATOM     26  C   UNL     1      39.667   5.626  18.453  0.00  0.00    +0.000 A 
BRANCH  20  27
ATOM     27  N   UNL     1      41.367   7.037  19.450  0.00  0.00    +0.000 N 
BRANCH  27  29
ATOM     28  C   UNL     1      42.821   6.025  21.036  0.00  0.00    +0.000 C 
ATOM     29  C   UNL     1      42.746   6.856  19.773  0.00  0.00    +0.000 C 
ENDBRANCH  27  29
BRANCH  27  30
ATOM     30  C   UNL     1      40.540   7.868  20.287  0.00  0.00    +0.000 C 
ATOM     31  C   UNL     1      40.301   9.189  19.602  0.00  0.00    +0.000 C 
ENDBRANCH  27  30
ENDBRANCH  20  27
ENDBRANCH  17  23
ENDBRANCH   1  18
TORSDOF 8
ENDMDL
MODEL 7
REMARK VINA RESULT:      -7.8      4.384      7.426
REMARK  Name = 
REMARK  8 active torsions:
REMARK  status: ('A' for Active; 'I' for Inactive)
REMARK    1  A    between atoms: C_2  and  N_3
REMARK    2  A    between atoms: N_3  and  C_4
REMARK    3  A    between atoms: N_3  and  C_6
REMARK    4  A    between atoms: C_9  and  N_10
REMARK    5  A    between atoms: C_11  and  C_13
REMARK    6  A    between atoms: C_13  and  C_15
REMARK    7  A    between atoms: C_19  and  C_20
REMARK    8  A    between atoms: C_20  and  C_22
REMARK                            x       y       z     vdW  Elec       q    Type
REMARK                         _______ _______ _______ _____ _____    ______ ____
ROOT
ATOM      1  C   UNL     1      36.757  -3.122  16.407  0.00  0.00    +0.000 C 
ATOM      2  C   UNL     1      36.305  -2.753  14.852  0.00  0.00    +0.000 C 
ENDROOT
BRANCH   1   3
ATOM      3  C   UNL     1      36.341  -1.775  17.038  0.00  0.00    +0.000 A 
ATOM      4  C   UNL     1      36.408  -1.755  18.457  0.00  0.00    +0.000 A 
ATOM      5  C   UNL     1      36.091  -0.609  19.131  0.00  0.00    +0.000 A 
ATOM      6  C   UNL     1      35.712   0.511  18.424  0.00  0.00    +0.000 A 
ATOM      7  C   UNL     1      35.644   0.489  17.025  0.00  0.00    +0.000 A 
ATOM      8  C   UNL     1      35.968  -0.671  16.409  0.00  0.00    +0.000 A 
BRANCH   7   9
ATOM      9  C   UNL     1      35.238   1.740  16.372  0.00  0.00    +0.000 C 
ATOM     10  O   UNL     1      34.077   2.150  16.518  0.00  0.00    +0.000 OA
BRANCH   9  11
ATOM     11  C   UNL     1      36.182   2.492  15.557  0.00  0.00    +0.000 A 
ATOM     12  C   UNL     1      37.197   3.178  16.190  0.00  0.00    +0.000 A 
ATOM     13  C   UNL     1      38.161   3.921  15.547  0.00  0.00    +0.000 A 
ATOM     14  C   UNL     1      38.111   3.987  14.161  0.00  0.00    +0.000 A 
ATOM     15  C   UNL     1      37.103   3.306  13.528  0.00  0.00    +0.000 A 
ATOM     16  C   UNL     1      36.139   2.562  14.197  0.00  0.00    +0.000 A 
ENDBRANCH   9  11
ENDBRANCH   7   9
ENDBRANCH   1   3
BRANCH   1  18
ATOM     17  N   UNL     1      38.634  -2.272  14.929  0.00  0.00    +0.000 NA
ATOM     18  C   UNL     1      38.293  -2.855  16.168  0.00  0.00    +0.000 C 
ATOM     19  O   UNL     1      39.159  -3.121  16.979  0.00  0.00    +0.000 OA
BRANCH  17  23
ATOM     20  C   UNL     1      42.500  -1.056  13.695  0.00  0.00    +0.000 A 
ATOM     21  C   UNL     1      42.216  -2.425  13.822  0.00  0.00    +0.000 A 
ATOM     22  C   UNL     1      40.966  -2.817  14.227  0.00  0.00    +0.000 A 
ATOM     23  C   UNL     1      39.933  -1.969  14.532  0.00  0.00    +0.000 A 
ATOM     24  C   UNL     1      40.237  -0.616  14.403  0.00  0.00    +0.000 A 
ATOM     25  C   UNL     1      39.167   0.372  14.724  0.00  0.00    +0.000 C 
ATOM     26  C   UNL     1      41.480  -0.192  13.999  0.00  0.00    +0.000 A 
BRANCH  20  27
ATOM     27  N   UNL     1      43.750  -0.592  13.250  0.00  0.00    +0.000 N 
BRANCH  27  29
ATOM     28  C   UNL     1      44.438   0.276  11.145  0.00  0.00    +0.000 C 
ATOM     29  C   UNL     1      44.273  -0.977  11.978  0.00  0.00    +0.000 C 
ENDBRANCH  27  29
BRANCH  27  30
ATOM     30  C   UNL     1      44.519   0.275  14.106  0.00  0.00    +0.000 C 
ATOM     31  C   UNL     1      44.804  -0.429  15.407  0.00  0.00    +0.000 C 
ENDBRANCH  27  30
ENDBRANCH  20  27
ENDBRANCH  17  23
ENDBRANCH   1  18
TORSDOF 8
ENDMDL
MODEL 8
REMARK VINA RESULT:      -7.7      2.332      8.978
REMARK  Name = 
REMARK  8 active torsions:
REMARK  status: ('A' for Active; 'I' for Inactive)
REMARK    1  A    between atoms: C_2  and  N_3
REMARK    2  A    between atoms: N_3  and  C_4
REMARK    3  A    between atoms: N_3  and  C_6
REMARK    4  A    between atoms: C_9  and  N_10
REMARK    5  A    between atoms: C_11  and  C_13
REMARK    6  A    between atoms: C_13  and  C_15
REMARK    7  A    between atoms: C_19  and  C_20
REMARK    8  A    between atoms: C_20  and  C_22
REMARK                            x       y       z     vdW  Elec       q    Type
REMARK                         _______ _______ _______ _____ _____    ______ ____
ROOT
ATOM      1  C   UNL     1      36.185   4.648  13.711  0.00  0.00    +0.000 C 
ATOM      2  C   UNL     1      37.008   4.059  12.393  0.00  0.00    +0.000 C 
ENDROOT
BRANCH   1   3
ATOM      3  C   UNL     1      37.426   4.901  14.597  0.00  0.00    +0.000 A 
ATOM      4  C   UNL     1      38.584   5.291  13.873  0.00  0.00    +0.000 A 
ATOM      5  C   UNL     1      39.739   5.572  14.548  0.00  0.00    +0.000 A 
ATOM      6  C   UNL     1      39.762   5.472  15.922  0.00  0.00    +0.000 A 
ATOM      7  C   UNL     1      38.619   5.086  16.635  0.00  0.00    +0.000 A 
ATOM      8  C   UNL     1      37.504   4.820  15.916  0.00  0.00    +0.000 A 
BRANCH   7   9
ATOM      9  C   UNL     1      38.752   5.022  18.096  0.00  0.00    +0.000 C 
ATOM     10  O   UNL     1      38.506   3.956  18.680  0.00  0.00    +0.000 OA
BRANCH   9  11
ATOM     11  C   UNL     1      39.164   6.195  18.855  0.00  0.00    +0.000 A 
ATOM     12  C   UNL     1      40.377   6.163  19.509  0.00  0.00    +0.000 A 
ATOM     13  C   UNL     1      40.893   7.198  20.255  0.00  0.00    +0.000 A 
ATOM     14  C   UNL     1      40.141   8.362  20.357  0.00  0.00    +0.000 A 
ATOM     15  C   UNL     1      38.933   8.396  19.707  0.00  0.00    +0.000 A 
ATOM     16  C   UNL     1      38.430   7.338  18.960  0.00  0.00    +0.000 A 
ENDBRANCH   9  11
ENDBRANCH   7   9
ENDBRANCH   1   3
BRANCH   1  18
ATOM     17  N   UNL     1      36.745   2.230  14.232  0.00  0.00    +0.000 NA
ATOM     18  C   UNL     1      35.748   3.229  14.242  0.00  0.00    +0.000 C 
ATOM     19  O   UNL     1      34.629   2.974  14.643  0.00  0.00    +0.000 OA
BRANCH  17  23
ATOM     20  C   UNL     1      36.213  -1.855  15.220  0.00  0.00    +0.000 A 
ATOM     21  C   UNL     1      35.887  -0.869  16.165  0.00  0.00    +0.000 A 
ATOM     22  C   UNL     1      36.066   0.452  15.846  0.00  0.00    +0.000 A 
ATOM     23  C   UNL     1      36.549   0.918  14.652  0.00  0.00    +0.000 A 
ATOM     24  C   UNL     1      36.868  -0.075  13.729  0.00  0.00    +0.000 A 
ATOM     25  C   UNL     1      37.409   0.349  12.406  0.00  0.00    +0.000 C 
ATOM     26  C   UNL     1      36.701  -1.408  14.018  0.00  0.00    +0.000 A 
BRANCH  20  27
ATOM     27  N   UNL     1      36.019  -3.224  15.472  0.00  0.00    +0.000 N 
BRANCH  27  29
ATOM     28  C   UNL     1      33.907  -4.208  14.992  0.00  0.00    +0.000 C 
ATOM     29  C   UNL     1      35.343  -4.062  14.534  0.00  0.00    +0.000 C 
ENDBRANCH  27  29
BRANCH  27  30
ATOM     30  C   UNL     1      36.498  -3.781  16.712  0.00  0.00    +0.000 C 
ATOM     31  C   UNL     1      37.956  -4.135  16.571  0.00  0.00    +0.000 C 
ENDBRANCH  27  30
ENDBRANCH  20  27
ENDBRANCH  17  23
ENDBRANCH   1  18
TORSDOF 8
ENDMDL
MODEL 9
REMARK VINA RESULT:      -7.6      2.026      2.704
REMARK  Name = 
REMARK  8 active torsions:
REMARK  status: ('A' for Active; 'I' for Inactive)
REMARK    1  A    between atoms: C_2  and  N_3
REMARK    2  A    between atoms: N_3  and  C_4
REMARK    3  A    between atoms: N_3  and  C_6
REMARK    4  A    between atoms: C_9  and  N_10
REMARK    5  A    between atoms: C_11  and  C_13
REMARK    6  A    between atoms: C_13  and  C_15
REMARK    7  A    between atoms: C_19  and  C_20
REMARK    8  A    between atoms: C_20  and  C_22
REMARK                            x       y       z     vdW  Elec       q    Type
REMARK                         _______ _______ _______ _____ _____    ______ ____
ROOT
ATOM      1  C   UNL     1      36.872   3.904  13.878  0.00  0.00    +0.000 C 
ATOM      2  C   UNL     1      35.425   4.712  13.767  0.00  0.00    +0.000 C 
ENDROOT
BRANCH   1   3
ATOM      3  C   UNL     1      36.358   2.736  14.750  0.00  0.00    +0.000 A 
ATOM      4  C   UNL     1      35.284   3.087  15.611  0.00  0.00    +0.000 A 
ATOM      5  C   UNL     1      34.723   2.132  16.412  0.00  0.00    +0.000 A 
ATOM      6  C   UNL     1      35.207   0.842  16.371  0.00  0.00    +0.000 A 
ATOM      7  C   UNL     1      36.266   0.499  15.522  0.00  0.00    +0.000 A 
ATOM      8  C   UNL     1      36.785   1.483  14.751  0.00  0.00    +0.000 A 
BRANCH   7   9
ATOM      9  C   UNL     1      36.696  -0.905  15.550  0.00  0.00    +0.000 C 
ATOM     10  O   UNL     1      35.975  -1.748  16.104  0.00  0.00    +0.000 OA
BRANCH   9  11
ATOM     11  C   UNL     1      37.956  -1.307  14.940  0.00  0.00    +0.000 A 
ATOM     12  C   UNL     1      37.934  -1.820  13.660  0.00  0.00    +0.000 A 
ATOM     13  C   UNL     1      39.046  -2.232  12.962  0.00  0.00    +0.000 A 
ATOM     14  C   UNL     1      40.282  -2.125  13.587  0.00  0.00    +0.000 A 
ATOM     15  C   UNL     1      40.307  -1.615  14.860  0.00  0.00    +0.000 A 
ATOM     16  C   UNL     1      39.171  -1.206  15.548  0.00  0.00    +0.000 A 
ENDBRANCH   9  11
ENDBRANCH   7   9
ENDBRANCH   1   3
BRANCH   1  18
ATOM     17  N   UNL     1      38.582   4.345  15.698  0.00  0.00    +0.000 NA
ATOM     18  C   UNL     1      37.466   4.846  14.996  0.00  0.00    +0.000 C 
ATOM     19  O   UNL     1      37.015   5.942  15.262  0.00  0.00    +0.000 OA
BRANCH  17  23
ATOM     20  C   UNL     1      40.801   6.470  18.615  0.00  0.00    +0.000 A 
ATOM     21  C   UNL     1      39.652   5.763  19.003  0.00  0.00    +0.000 A 
ATOM     22  C   UNL     1      38.931   5.081  18.057  0.00  0.00    +0.000 A 
ATOM     23  C   UNL     1      39.237   5.022  16.723  0.00  0.00    +0.000 A 
ATOM     24  C   UNL     1      40.378   5.732  16.357  0.00  0.00    +0.000 A 
ATOM     25  C   UNL     1      40.773   5.725  14.920  0.00  0.00    +0.000 C 
ATOM     26  C   UNL     1      41.122   6.425  17.282  0.00  0.00    +0.000 A 
BRANCH  20  27
ATOM     27  N   UNL     1      41.603   7.159  19.542  0.00  0.00    +0.000 N 
BRANCH  27  29
ATOM     28  C   UNL     1      41.837   9.524  19.624  0.00  0.00    +0.000 C 
ATOM     29  C   UNL     1      41.124   8.325  20.213  0.00  0.00    +0.000 C 
ENDBRANCH  27  29
BRANCH  27  30
ATOM     30  C   UNL     1      42.938   6.682  19.801  0.00  0.00    +0.000 C 
ATOM     31  C   UNL     1      43.009   6.125  21.199  0.00  0.00    +0.000 C 
ENDBRANCH  27  30
ENDBRANCH  20  27
ENDBRANCH  17  23
ENDBRANCH   1  18
TORSDOF 8
ENDMDL
MODEL 10
REMARK VINA RESULT:      -7.6      2.497      9.181
REMARK  Name = 
REMARK  8 active torsions:
REMARK  status: ('A' for Active; 'I' for Inactive)
REMARK    1  A    between atoms: C_2  and  N_3
REMARK    2  A    between atoms: N_3  and  C_4
REMARK    3  A    between atoms: N_3  and  C_6
REMARK    4  A    between atoms: C_9  and  N_10
REMARK    5  A    between atoms: C_11  and  C_13
REMARK    6  A    between atoms: C_13  and  C_15
REMARK    7  A    between atoms: C_19  and  C_20
REMARK    8  A    between atoms: C_20  and  C_22
REMARK                            x       y       z     vdW  Elec       q    Type
REMARK                         _______ _______ _______ _____ _____    ______ ____
ROOT
ATOM      1  C   UNL     1      38.956   4.098  13.130  0.00  0.00    +0.000 C 
ATOM      2  C   UNL     1      40.424   3.892  12.379  0.00  0.00    +0.000 C 
ENDROOT
BRANCH   1   3
ATOM      3  C   UNL     1      39.506   4.732  14.427  0.00  0.00    +0.000 A 
ATOM      4  C   UNL     1      40.699   5.481  14.244  0.00  0.00    +0.000 A 
ATOM      5  C   UNL     1      41.267   6.116  15.312  0.00  0.00    +0.000 A 
ATOM      6  C   UNL     1      40.675   6.019  16.553  0.00  0.00    +0.000 A 
ATOM      7  C   UNL     1      39.500   5.278  16.732  0.00  0.00    +0.000 A 
ATOM      8  C   UNL     1      38.980   4.670  15.641  0.00  0.00    +0.000 A 
BRANCH   7   9
ATOM      9  C   UNL     1      38.948   5.249  18.093  0.00  0.00    +0.000 C 
ATOM     10  O   UNL     1      38.565   4.170  18.568  0.00  0.00    +0.000 OA
BRANCH   9  11
ATOM     11  C   UNL     1      38.846   6.471  18.877  0.00  0.00    +0.000 A 
ATOM     12  C   UNL     1      37.910   7.414  18.509  0.00  0.00    +0.000 A 
ATOM     13  C   UNL     1      37.700   8.608  19.161  0.00  0.00    +0.000 A 
ATOM     14  C   UNL     1      38.485   8.886  20.273  0.00  0.00    +0.000 A 
ATOM     15  C   UNL     1      39.417   7.950  20.642  0.00  0.00    +0.000 A 
ATOM     16  C   UNL     1      39.613   6.751  19.968  0.00  0.00    +0.000 A 
ENDBRANCH   9  11
ENDBRANCH   7   9
ENDBRANCH   1   3
BRANCH   1  18
ATOM     17  N   UNL     1      37.532   2.037  13.530  0.00  0.00    +0.000 NA
ATOM     18  C   UNL     1      38.827   2.594  13.588  0.00  0.00    +0.000 C 
ATOM     19  O   UNL     1      39.766   1.924  13.972  0.00  0.00    +0.000 OA
BRANCH  17  23
ATOM     20  C   UNL     1      36.460  -1.818  14.918  0.00  0.00    +0.000 A 
ATOM     21  C   UNL     1      37.222  -1.696  13.747  0.00  0.00    +0.000 A 
ATOM     22  C   UNL     1      37.563  -0.447  13.295  0.00  0.00    +0.000 A 
ATOM     23  C   UNL     1      37.218   0.733  13.900  0.00  0.00    +0.000 A 
ATOM     24  C   UNL     1      36.459   0.590  15.059  0.00  0.00    +0.000 A 
ATOM     25  C   UNL     1      36.035   1.828  15.772  0.00  0.00    +0.000 C 
ATOM     26  C   UNL     1      36.101  -0.648  15.537  0.00  0.00    +0.000 A 
BRANCH  20  27
ATOM     27  N   UNL     1      36.108  -3.071  15.453  0.00  0.00    +0.000 N 
BRANCH  27  29
ATOM     28  C   UNL     1      34.326  -4.405  14.618  0.00  0.00    +0.000 C 
ATOM     29  C   UNL     1      34.744  -3.419  15.688  0.00  0.00    +0.000 C 
ENDBRANCH  27  29
BRANCH  27  30
ATOM     30  C   UNL     1      37.153  -4.007  15.783  0.00  0.00    +0.000 C 
ATOM     31  C   UNL     1      37.809  -3.590  17.074  0.00  0.00    +0.000 C 
ENDBRANCH  27  30
ENDBRANCH  20  27
ENDBRANCH  17  23
ENDBRANCH   1  18
TORSDOF 8
ENDMDL
