MODEL 1
REMARK VINA RESULT:      -5.9      0.000      0.000
REMARK  Name = 
REMARK  6 active torsions:
REMARK  status: ('A' for Active; 'I' for Inactive)
REMARK    1  A    between atoms: C_2  and  C_3
REMARK    2  A    between atoms: C_3  and  C_4
REMARK    3  A    between atoms: C_4  and  C_5
REMARK    4  A    between atoms: C_5  and  C_6
REMARK    5  A    between atoms: C_6  and  C_7
REMARK    6  A    between atoms: C_11  and  C_12
REMARK                            x       y       z     vdW  Elec       q    Type
REMARK                         _______ _______ _______ _____ _____    ______ ____
ROOT
ATOM      1  C   UNL     1      26.247  23.945  26.305  0.00  0.00    +0.000 A 
ATOM      2  C   UNL     1      25.309  24.396  27.167  0.00  0.00    +0.000 A 
ATOM      3  C   UNL     1      24.593  25.489  26.834  0.00  0.00    +0.000 A 
ATOM      4  S   UNL     1      25.231  25.889  25.310  0.00  0.00    +0.000 S 
ATOM      5  C   UNL     1      26.409  24.621  25.148  0.00  0.00    +0.000 A 
ENDROOT
BRANCH   5   6
ATOM      6  C   UNL     1      27.265  24.491  23.976  0.00  0.00    +0.000 A 
ATOM      7  C   UNL     1      28.391  25.301  23.852  0.00  0.00    +0.000 A 
ATOM      8  N   UNL     1      29.191  25.282  22.790  0.00  0.00    +0.000 NA
ATOM      9  C   UNL     1      28.934  24.455  21.763  0.00  0.00    +0.000 A 
ATOM     10  O   UNL     1      29.680  24.418  20.742  0.00  0.00    +0.000 OA
ATOM     11  N   UNL     1      27.864  23.672  21.859  0.00  0.00    +0.000 NA
ATOM     12  C   UNL     1      27.027  23.660  22.919  0.00  0.00    +0.000 A 
ATOM     13  O   UNL     1      26.068  22.882  22.869  0.00  0.00    +0.000 OA
ENDBRANCH   5   6
BRANCH   1  14
ATOM     14  C   UNL     1      27.126  22.788  26.743  0.00  0.00    +0.000 C 
BRANCH  14  15
ATOM     15  C   UNL     1      28.229  23.243  27.656  0.00  0.00    +0.000 C 
BRANCH  15  16
ATOM     16  C   UNL     1      29.488  23.460  26.913  0.00  0.00    +0.000 C 
BRANCH  16  17
ATOM     17  C   UNL     1      30.054  22.239  26.269  0.00  0.00    +0.000 C 
BRANCH  17  19
ATOM     18  C   UNL     1      31.554  23.180  24.570  0.00  0.00    +0.000 C 
ATOM     19  C   UNL     1      30.277  22.379  24.790  0.00  0.00    +0.000 C 
ENDBRANCH  17  19
ENDBRANCH  16  17
ENDBRANCH  15  16
ENDBRANCH  14  15
ENDBRANCH   1  14
TORSDOF 6
ENDMDL
MODEL 2
REMARK VINA RESULT:      -5.4      1.801      2.503
REMARK  Name = 
REMARK  6 active torsions:
REMARK  status: ('A' for Active; 'I' for Inactive)
REMARK    1  A    between atoms: C_2  and  C_3
REMARK    2  A    between atoms: C_3  and  C_4
REMARK    3  A    between atoms: C_4  and  C_5
REMARK    4  A    between atoms: C_5  and  C_6
REMARK    5  A    between atoms: C_6  and  C_7
REMARK    6  A    between atoms: C_11  and  C_12
REMARK                            x       y       z     vdW  Elec       q    Type
REMARK                         _______ _______ _______ _____ _____    ______ ____
ROOT
ATOM      1  C   UNL     1      27.143  23.053  27.919  0.00  0.00    +0.000 A 
ATOM      2  C   UNL     1      26.793  23.286  29.204  0.00  0.00    +0.000 A 
ATOM      3  C   UNL     1      25.840  24.205  29.461  0.00  0.00    +0.000 A 
ATOM      4  S   UNL     1      25.428  24.746  27.904  0.00  0.00    +0.000 S 
ATOM      5  C   UNL     1      26.506  23.759  26.961  0.00  0.00    +0.000 A 
ENDROOT
BRANCH   5   6
ATOM      6  C   UNL     1      26.559  23.825  25.507  0.00  0.00    +0.000 A 
ATOM      7  C   UNL     1      25.735  22.995  24.749  0.00  0.00    +0.000 A 
ATOM      8  N   UNL     1      25.762  22.956  23.420  0.00  0.00    +0.000 NA
ATOM      9  C   UNL     1      26.613  23.739  22.736  0.00  0.00    +0.000 A 
ATOM     10  O   UNL     1      26.657  23.719  21.472  0.00  0.00    +0.000 OA
ATOM     11  N   UNL     1      27.409  24.539  23.438  0.00  0.00    +0.000 NA
ATOM     12  C   UNL     1      27.413  24.610  24.787  0.00  0.00    +0.000 A 
ATOM     13  O   UNL     1      28.212  25.397  25.305  0.00  0.00    +0.000 OA
ENDBRANCH   5   6
BRANCH   1  14
ATOM     14  C   UNL     1      28.297  22.106  27.651  0.00  0.00    +0.000 C 
BRANCH  14  15
ATOM     15  C   UNL     1      29.613  22.702  28.067  0.00  0.00    +0.000 C 
BRANCH  15  16
ATOM     16  C   UNL     1      30.624  22.575  26.996  0.00  0.00    +0.000 C 
BRANCH  16  17
ATOM     17  C   UNL     1      30.067  22.328  25.635  0.00  0.00    +0.000 C 
BRANCH  17  19
ATOM     18  C   UNL     1      31.374  24.124  24.589  0.00  0.00    +0.000 C 
ATOM     19  C   UNL     1      31.024  22.643  24.520  0.00  0.00    +0.000 C 
ENDBRANCH  17  19
ENDBRANCH  16  17
ENDBRANCH  15  16
ENDBRANCH  14  15
ENDBRANCH   1  14
TORSDOF 6
ENDMDL
MODEL 3
REMARK VINA RESULT:      -5.3      1.950      4.053
REMARK  Name = 
REMARK  6 active torsions:
REMARK  status: ('A' for Active; 'I' for Inactive)
REMARK    1  A    between atoms: C_2  and  C_3
REMARK    2  A    between atoms: C_3  and  C_4
REMARK    3  A    between atoms: C_4  and  C_5
REMARK    4  A    between atoms: C_5  and  C_6
REMARK    5  A    between atoms: C_6  and  C_7
REMARK    6  A    between atoms: C_11  and  C_12
REMARK                            x       y       z     vdW  Elec       q    Type
REMARK                         _______ _______ _______ _____ _____    ______ ____
ROOT
ATOM      1  C   UNL     1      30.863  25.132  24.496  0.00  0.00    +0.000 A 
ATOM      2  C   UNL     1      31.659  26.115  24.973  0.00  0.00    +0.000 A 
ATOM      3  C   UNL     1      31.191  27.380  24.987  0.00  0.00    +0.000 A 
ATOM      4  S   UNL     1      29.634  27.197  24.332  0.00  0.00    +0.000 S 
ATOM      5  C   UNL     1      29.633  25.479  24.062  0.00  0.00    +0.000 A 
ENDROOT
BRANCH   5   6
ATOM      6  C   UNL     1      28.490  24.775  23.498  0.00  0.00    +0.000 A 
ATOM      7  C   UNL     1      27.315  24.662  24.239  0.00  0.00    +0.000 A 
ATOM      8  N   UNL     1      26.248  23.989  23.817  0.00  0.00    +0.000 NA
ATOM      9  C   UNL     1      26.263  23.373  22.624  0.00  0.00    +0.000 A 
ATOM     10  O   UNL     1      25.261  22.727  22.202  0.00  0.00    +0.000 OA
ATOM     11  N   UNL     1      27.374  23.467  21.900  0.00  0.00    +0.000 NA
ATOM     12  C   UNL     1      28.478  24.139  22.289  0.00  0.00    +0.000 A 
ATOM     13  O   UNL     1      29.440  24.137  21.514  0.00  0.00    +0.000 OA
ENDBRANCH   5   6
BRANCH   1  14
ATOM     14  C   UNL     1      31.444  23.735  24.376  0.00  0.00    +0.000 C 
BRANCH  14  15
ATOM     15  C   UNL     1      31.410  23.005  25.690  0.00  0.00    +0.000 C 
BRANCH  15  16
ATOM     16  C   UNL     1      30.180  22.197  25.824  0.00  0.00    +0.000 C 
BRANCH  16  17
ATOM     17  C   UNL     1      29.585  22.182  27.192  0.00  0.00    +0.000 C 
BRANCH  17  19
ATOM     18  C   UNL     1      27.607  22.372  28.632  0.00  0.00    +0.000 C 
ATOM     19  C   UNL     1      28.158  22.649  27.239  0.00  0.00    +0.000 C 
ENDBRANCH  17  19
ENDBRANCH  16  17
ENDBRANCH  15  16
ENDBRANCH  14  15
ENDBRANCH   1  14
TORSDOF 6
ENDMDL
MODEL 4
REMARK VINA RESULT:      -5.2      1.915      4.699
REMARK  Name = 
REMARK  6 active torsions:
REMARK  status: ('A' for Active; 'I' for Inactive)
REMARK    1  A    between atoms: C_2  and  C_3
REMARK    2  A    between atoms: C_3  and  C_4
REMARK    3  A    between atoms: C_4  and  C_5
REMARK    4  A    between atoms: C_5  and  C_6
REMARK    5  A    between atoms: C_6  and  C_7
REMARK    6  A    between atoms: C_11  and  C_12
REMARK                            x       y       z     vdW  Elec       q    Type
REMARK                         _______ _______ _______ _____ _____    ______ ____
ROOT
ATOM      1  C   UNL     1      25.608  24.820  25.884  0.00  0.00    +0.000 A 
ATOM      2  C   UNL     1      25.218  24.602  27.160  0.00  0.00    +0.000 A 
ATOM      3  C   UNL     1      25.967  23.795  27.939  0.00  0.00    +0.000 A 
ATOM      4  S   UNL     1      27.221  23.338  26.886  0.00  0.00    +0.000 S 
ATOM      5  C   UNL     1      26.737  24.213  25.463  0.00  0.00    +0.000 A 
ENDROOT
BRANCH   5   6
ATOM      6  C   UNL     1      27.497  24.171  24.221  0.00  0.00    +0.000 A 
ATOM      7  C   UNL     1      28.704  24.862  24.129  0.00  0.00    +0.000 A 
ATOM      8  N   UNL     1      29.429  24.919  23.015  0.00  0.00    +0.000 NA
ATOM      9  C   UNL     1      29.012  24.294  21.902  0.00  0.00    +0.000 A 
ATOM     10  O   UNL     1      29.684  24.333  20.831  0.00  0.00    +0.000 OA
ATOM     11  N   UNL     1      27.862  23.628  21.967  0.00  0.00    +0.000 NA
ATOM     12  C   UNL     1      27.097  23.545  23.076  0.00  0.00    +0.000 A 
ATOM     13  O   UNL     1      26.050  22.895  22.988  0.00  0.00    +0.000 OA
ENDBRANCH   5   6
BRANCH   1  14
ATOM     14  C   UNL     1      24.694  25.633  24.985  0.00  0.00    +0.000 C 
BRANCH  14  15
ATOM     15  C   UNL     1      24.765  27.100  25.303  0.00  0.00    +0.000 C 
BRANCH  15  16
ATOM     16  C   UNL     1      23.469  27.605  25.803  0.00  0.00    +0.000 C 
BRANCH  16  17
ATOM     17  C   UNL     1      22.277  26.829  25.353  0.00  0.00    +0.000 C 
BRANCH  17  19
ATOM     18  C   UNL     1      22.076  26.535  27.781  0.00  0.00    +0.000 C 
ATOM     19  C   UNL     1      21.321  26.487  26.459  0.00  0.00    +0.000 C 
ENDBRANCH  17  19
ENDBRANCH  16  17
ENDBRANCH  15  16
ENDBRANCH  14  15
ENDBRANCH   1  14
TORSDOF 6
ENDMDL
MODEL 5
REMARK VINA RESULT:      -5.2      1.348      2.556
REMARK  Name = 
REMARK  6 active torsions:
REMARK  status: ('A' for Active; 'I' for Inactive)
REMARK    1  A    between atoms: C_2  and  C_3
REMARK    2  A    between atoms: C_3  and  C_4
REMARK    3  A    between atoms: C_4  and  C_5
REMARK    4  A    between atoms: C_5  and  C_6
REMARK    5  A    between atoms: C_6  and  C_7
REMARK    6  A    between atoms: C_11  and  C_12
REMARK                            x       y       z     vdW  Elec       q    Type
REMARK                         _______ _______ _______ _____ _____    ______ ____
ROOT
ATOM      1  C   UNL     1      25.997  24.175  26.145  0.00  0.00    +0.000 A 
ATOM      2  C   UNL     1      25.059  24.701  26.964  0.00  0.00    +0.000 A 
ATOM      3  C   UNL     1      24.453  25.850  26.603  0.00  0.00    +0.000 A 
ATOM      4  S   UNL     1      25.196  26.199  25.114  0.00  0.00    +0.000 S 
ATOM      5  C   UNL     1      26.271  24.837  25.002  0.00  0.00    +0.000 A 
ENDROOT
BRANCH   5   6
ATOM      6  C   UNL     1      27.169  24.638  23.872  0.00  0.00    +0.000 A 
ATOM      7  C   UNL     1      28.282  25.463  23.724  0.00  0.00    +0.000 A 
ATOM      8  N   UNL     1      29.118  25.382  22.692  0.00  0.00    +0.000 NA
ATOM      9  C   UNL     1      28.914  24.473  21.724  0.00  0.00    +0.000 A 
ATOM     10  O   UNL     1      29.695  24.376  20.734  0.00  0.00    +0.000 OA
ATOM     11  N   UNL     1      27.857  23.675  21.845  0.00  0.00    +0.000 NA
ATOM     12  C   UNL     1      26.985  23.724  22.875  0.00  0.00    +0.000 A 
ATOM     13  O   UNL     1      26.045  22.923  22.853  0.00  0.00    +0.000 OA
ENDBRANCH   5   6
BRANCH   1  14
ATOM     14  C   UNL     1      26.754  22.948  26.619  0.00  0.00    +0.000 C 
BRANCH  14  15
ATOM     15  C   UNL     1      28.194  23.262  26.912  0.00  0.00    +0.000 C 
BRANCH  15  16
ATOM     16  C   UNL     1      28.591  22.773  28.249  0.00  0.00    +0.000 C 
BRANCH  16  17
ATOM     17  C   UNL     1      27.458  22.374  29.133  0.00  0.00    +0.000 C 
BRANCH  17  19
ATOM     18  C   UNL     1      26.131  24.020  30.378  0.00  0.00    +0.000 C 
ATOM     19  C   UNL     1      27.382  23.153  30.414  0.00  0.00    +0.000 C 
ENDBRANCH  17  19
ENDBRANCH  16  17
ENDBRANCH  15  16
ENDBRANCH  14  15
ENDBRANCH   1  14
TORSDOF 6
ENDMDL
MODEL 6
REMARK VINA RESULT:      -5.2      1.738      2.648
REMARK  Name = 
REMARK  6 active torsions:
REMARK  status: ('A' for Active; 'I' for Inactive)
REMARK    1  A    between atoms: C_2  and  C_3
REMARK    2  A    between atoms: C_3  and  C_4
REMARK    3  A    between atoms: C_4  and  C_5
REMARK    4  A    between atoms: C_5  and  C_6
REMARK    5  A    between atoms: C_6  and  C_7
REMARK    6  A    between atoms: C_11  and  C_12
REMARK                            x       y       z     vdW  Elec       q    Type
REMARK                         _______ _______ _______ _____ _____    ______ ____
ROOT
ATOM      1  C   UNL     1      27.988  22.864  26.793  0.00  0.00    +0.000 A 
ATOM      2  C   UNL     1      27.228  22.969  27.907  0.00  0.00    +0.000 A 
ATOM      3  C   UNL     1      26.152  23.782  27.885  0.00  0.00    +0.000 A 
ATOM      4  S   UNL     1      26.200  24.403  26.304  0.00  0.00    +0.000 S 
ATOM      5  C   UNL     1      27.617  23.584  25.714  0.00  0.00    +0.000 A 
ENDROOT
BRANCH   5   6
ATOM      6  C   UNL     1      28.119  23.764  24.359  0.00  0.00    +0.000 A 
ATOM      7  C   UNL     1      29.339  24.406  24.156  0.00  0.00    +0.000 A 
ATOM      8  N   UNL     1      29.840  24.657  22.950  0.00  0.00    +0.000 NA
ATOM      9  C   UNL     1      29.167  24.291  21.846  0.00  0.00    +0.000 A 
ATOM     10  O   UNL     1      29.623  24.519  20.689  0.00  0.00    +0.000 OA
ATOM     11  N   UNL     1      28.000  23.677  22.016  0.00  0.00    +0.000 NA
ATOM     12  C   UNL     1      27.456  23.403  23.221  0.00  0.00    +0.000 A 
ATOM     13  O   UNL     1      26.361  22.831  23.226  0.00  0.00    +0.000 OA
ENDBRANCH   5   6
BRANCH   1  14
ATOM     14  C   UNL     1      29.259  22.040  26.869  0.00  0.00    +0.000 C 
BRANCH  14  15
ATOM     15  C   UNL     1      30.424  22.859  27.350  0.00  0.00    +0.000 C 
BRANCH  15  16
ATOM     16  C   UNL     1      31.368  22.040  28.139  0.00  0.00    +0.000 C 
BRANCH  16  17
ATOM     17  C   UNL     1      31.488  22.428  29.575  0.00  0.00    +0.000 C 
BRANCH  17  19
ATOM     18  C   UNL     1      29.452  22.511  30.942  0.00  0.00    +0.000 C 
ATOM     19  C   UNL     1      30.384  23.326  30.055  0.00  0.00    +0.000 C 
ENDBRANCH  17  19
ENDBRANCH  16  17
ENDBRANCH  15  16
ENDBRANCH  14  15
ENDBRANCH   1  14
TORSDOF 6
ENDMDL
MODEL 7
REMARK VINA RESULT:      -5.1     28.165     29.855
REMARK  Name = 
REMARK  6 active torsions:
REMARK  status: ('A' for Active; 'I' for Inactive)
REMARK    1  A    between atoms: C_2  and  C_3
REMARK    2  A    between atoms: C_3  and  C_4
REMARK    3  A    between atoms: C_4  and  C_5
REMARK    4  A    between atoms: C_5  and  C_6
REMARK    5  A    between atoms: C_6  and  C_7
REMARK    6  A    between atoms: C_11  and  C_12
REMARK                            x       y       z     vdW  Elec       q    Type
REMARK                         _______ _______ _______ _____ _____    ______ ____
ROOT
ATOM      1  C   UNL     1      33.534  -4.228  33.788  0.00  0.00    +0.000 A 
ATOM      2  C   UNL     1      33.460  -4.422  35.124  0.00  0.00    +0.000 A 
ATOM      3  C   UNL     1      33.322  -5.679  35.592  0.00  0.00    +0.000 A 
ATOM      4  S   UNL     1      33.295  -6.596  34.161  0.00  0.00    +0.000 S 
ATOM      5  C   UNL     1      33.468  -5.318  32.995  0.00  0.00    +0.000 A 
ENDROOT
BRANCH   5   6
ATOM      6  C   UNL     1      33.510  -5.566  31.560  0.00  0.00    +0.000 A 
ATOM      7  C   UNL     1      32.322  -5.605  30.833  0.00  0.00    +0.000 A 
ATOM      8  N   UNL     1      32.271  -5.880  29.532  0.00  0.00    +0.000 NA
ATOM      9  C   UNL     1      33.399  -6.138  28.849  0.00  0.00    +0.000 A 
ATOM     10  O   UNL     1      33.376  -6.401  27.612  0.00  0.00    +0.000 OA
ATOM     11  N   UNL     1      34.544  -6.106  29.523  0.00  0.00    +0.000 NA
ATOM     12  C   UNL     1      34.640  -5.832  30.842  0.00  0.00    +0.000 A 
ATOM     13  O   UNL     1      35.772  -5.842  31.337  0.00  0.00    +0.000 OA
ENDBRANCH   5   6
BRANCH   1  14
ATOM     14  C   UNL     1      33.569  -2.802  33.272  0.00  0.00    +0.000 C 
BRANCH  14  15
ATOM     15  C   UNL     1      33.155  -1.818  34.331  0.00  0.00    +0.000 C 
BRANCH  15  16
ATOM     16  C   UNL     1      33.920  -0.558  34.223  0.00  0.00    +0.000 C 
BRANCH  16  17
ATOM     17  C   UNL     1      34.305  -0.174  32.834  0.00  0.00    +0.000 C 
BRANCH  17  19
ATOM     18  C   UNL     1      33.378   1.921  33.712  0.00  0.00    +0.000 C 
ATOM     19  C   UNL     1      34.020   1.261  32.499  0.00  0.00    +0.000 C 
ENDBRANCH  17  19
ENDBRANCH  16  17
ENDBRANCH  15  16
ENDBRANCH  14  15
ENDBRANCH   1  14
TORSDOF 6
ENDMDL
MODEL 8
REMARK VINA RESULT:      -5.1     19.204     20.524
REMARK  Name = 
REMARK  6 active torsions:
REMARK  status: ('A' for Active; 'I' for Inactive)
REMARK    1  A    between atoms: C_2  and  C_3
REMARK    2  A    between atoms: C_3  and  C_4
REMARK    3  A    between atoms: C_4  and  C_5
REMARK    4  A    between atoms: C_5  and  C_6
REMARK    5  A    between atoms: C_6  and  C_7
REMARK    6  A    between atoms: C_11  and  C_12
REMARK                            x       y       z     vdW  Elec       q    Type
REMARK                         _______ _______ _______ _____ _____    ______ ____
ROOT
ATOM      1  C   UNL     1      19.331   9.687  37.866  0.00  0.00    +0.000 A 
ATOM      2  C   UNL     1      19.557   9.337  39.153  0.00  0.00    +0.000 A 
ATOM      3  C   UNL     1      18.524   9.347  40.019  0.00  0.00    +0.000 A 
ATOM      4  S   UNL     1      17.231   9.847  39.035  0.00  0.00    +0.000 S 
ATOM      5  C   UNL     1      18.071  10.025  37.523  0.00  0.00    +0.000 A 
ENDROOT
BRANCH   5   6
ATOM      6  C   UNL     1      17.402  10.446  36.300  0.00  0.00    +0.000 A 
ATOM      7  C   UNL     1      16.759  11.682  36.256  0.00  0.00    +0.000 A 
ATOM      8  N   UNL     1      16.080  12.114  35.198  0.00  0.00    +0.000 NA
ATOM      9  C   UNL     1      15.985  11.353  34.095  0.00  0.00    +0.000 A 
ATOM     10  O   UNL     1      15.346  11.743  33.076  0.00  0.00    +0.000 OA
ATOM     11  N   UNL     1      16.591  10.169  34.114  0.00  0.00    +0.000 NA
ATOM     12  C   UNL     1      17.289   9.692  35.167  0.00  0.00    +0.000 A 
ATOM     13  O   UNL     1      17.796   8.572  35.044  0.00  0.00    +0.000 OA
ENDBRANCH   5   6
BRANCH   1  14
ATOM     14  C   UNL     1      20.523   9.786  36.931  0.00  0.00    +0.000 C 
BRANCH  14  15
ATOM     15  C   UNL     1      21.802  10.020  37.685  0.00  0.00    +0.000 C 
BRANCH  15  16
ATOM     16  C   UNL     1      22.191  11.445  37.655  0.00  0.00    +0.000 C 
BRANCH  16  17
ATOM     17  C   UNL     1      21.873  12.209  38.895  0.00  0.00    +0.000 C 
BRANCH  17  19
ATOM     18  C   UNL     1      19.785  13.304  38.215  0.00  0.00    +0.000 C 
ATOM     19  C   UNL     1      21.228  13.541  38.641  0.00  0.00    +0.000 C 
ENDBRANCH  17  19
ENDBRANCH  16  17
ENDBRANCH  15  16
ENDBRANCH  14  15
ENDBRANCH   1  14
TORSDOF 6
ENDMDL
MODEL 9
REMARK VINA RESULT:      -4.9     21.515     23.554
REMARK  Name = 
REMARK  6 active torsions:
REMARK  status: ('A' for Active; 'I' for Inactive)
REMARK    1  A    between atoms: C_2  and  C_3
REMARK    2  A    between atoms: C_3  and  C_4
REMARK    3  A    between atoms: C_4  and  C_5
REMARK    4  A    between atoms: C_5  and  C_6
REMARK    5  A    between atoms: C_6  and  C_7
REMARK    6  A    between atoms: C_11  and  C_12
REMARK                            x       y       z     vdW  Elec       q    Type
REMARK                         _______ _______ _______ _____ _____    ______ ____
ROOT
ATOM      1  C   UNL     1      18.195  11.041  38.218  0.00  0.00    +0.000 A 
ATOM      2  C   UNL     1      18.920  12.122  37.853  0.00  0.00    +0.000 A 
ATOM      3  C   UNL     1      20.096  12.354  38.471  0.00  0.00    +0.000 A 
ATOM      4  S   UNL     1      20.192  11.057  39.565  0.00  0.00    +0.000 S 
ATOM      5  C   UNL     1      18.700  10.248  39.185  0.00  0.00    +0.000 A 
ENDROOT
BRANCH   5   6
ATOM      6  C   UNL     1      18.278   9.026  39.858  0.00  0.00    +0.000 A 
ATOM      7  C   UNL     1      18.933   7.828  39.584  0.00  0.00    +0.000 A 
ATOM      8  N   UNL     1      18.574   6.662  40.114  0.00  0.00    +0.000 NA
ATOM      9  C   UNL     1      17.532   6.594  40.960  0.00  0.00    +0.000 A 
ATOM     10  O   UNL     1      17.171   5.497  41.476  0.00  0.00    +0.000 OA
ATOM     11  N   UNL     1      16.891   7.726  41.235  0.00  0.00    +0.000 NA
ATOM     12  C   UNL     1      17.223   8.929  40.719  0.00  0.00    +0.000 A 
ATOM     13  O   UNL     1      16.535   9.896  41.062  0.00  0.00    +0.000 OA
ENDBRANCH   5   6
BRANCH   1  14
ATOM     14  C   UNL     1      16.821  10.858  37.600  0.00  0.00    +0.000 C 
BRANCH  14  15
ATOM     15  C   UNL     1      16.257  12.161  37.106  0.00  0.00    +0.000 C 
BRANCH  15  16
ATOM     16  C   UNL     1      14.961  11.961  36.424  0.00  0.00    +0.000 C 
BRANCH  16  17
ATOM     17  C   UNL     1      13.783  11.859  37.334  0.00  0.00    +0.000 C 
BRANCH  17  19
ATOM     18  C   UNL     1      11.347  11.558  37.326  0.00  0.00    +0.000 C 
ATOM     19  C   UNL     1      12.501  12.352  36.726  0.00  0.00    +0.000 C 
ENDBRANCH  17  19
ENDBRANCH  16  17
ENDBRANCH  15  16
ENDBRANCH  14  15
ENDBRANCH   1  14
TORSDOF 6
ENDMDL
MODEL 10
REMARK VINA RESULT:      -4.9      4.402      5.734
REMARK  Name = 
REMARK  6 active torsions:
REMARK  status: ('A' for Active; 'I' for Inactive)
REMARK    1  A    between atoms: C_2  and  C_3
REMARK    2  A    between atoms: C_3  and  C_4
REMARK    3  A    between atoms: C_4  and  C_5
REMARK    4  A    between atoms: C_5  and  C_6
REMARK    5  A    between atoms: C_6  and  C_7
REMARK    6  A    between atoms: C_11  and  C_12
REMARK                            x       y       z     vdW  Elec       q    Type
REMARK                         _______ _______ _______ _____ _____    ______ ____
ROOT
ATOM      1  C   UNL     1      27.233  22.949  26.982  0.00  0.00    +0.000 A 
ATOM      2  C   UNL     1      26.955  22.755  25.673  0.00  0.00    +0.000 A 
ATOM      3  C   UNL     1      25.953  23.459  25.110  0.00  0.00    +0.000 A 
ATOM      4  S   UNL     1      25.395  24.398  26.412  0.00  0.00    +0.000 S 
ATOM      5  C   UNL     1      26.484  23.850  27.651  0.00  0.00    +0.000 A 
ENDROOT
BRANCH   5   6
ATOM      6  C   UNL     1      26.440  24.360  29.016  0.00  0.00    +0.000 A 
ATOM      7  C   UNL     1      26.787  25.685  29.267  0.00  0.00    +0.000 A 
ATOM      8  N   UNL     1      26.825  26.211  30.489  0.00  0.00    +0.000 NA
ATOM      9  C   UNL     1      26.521  25.459  31.560  0.00  0.00    +0.000 A 
ATOM     10  O   UNL     1      26.550  25.936  32.731  0.00  0.00    +0.000 OA
ATOM     11  N   UNL     1      26.187  24.190  31.343  0.00  0.00    +0.000 NA
ATOM     12  C   UNL     1      26.136  23.618  30.121  0.00  0.00    +0.000 A 
ATOM     13  O   UNL     1      25.813  22.427  30.072  0.00  0.00    +0.000 OA
ENDBRANCH   5   6
BRANCH   1  14
ATOM     14  C   UNL     1      28.283  22.066  27.630  0.00  0.00    +0.000 C 
BRANCH  14  15
ATOM     15  C   UNL     1      29.608  22.766  27.736  0.00  0.00    +0.000 C 
BRANCH  15  16
ATOM     16  C   UNL     1      30.566  22.260  26.730  0.00  0.00    +0.000 C 
BRANCH  16  17
ATOM     17  C   UNL     1      31.360  23.313  26.035  0.00  0.00    +0.000 C 
BRANCH  17  19
ATOM     18  C   UNL     1      30.093  23.377  23.934  0.00  0.00    +0.000 C 
ATOM     19  C   UNL     1      31.462  23.117  24.549  0.00  0.00    +0.000 C 
ENDBRANCH  17  19
ENDBRANCH  16  17
ENDBRANCH  15  16
ENDBRANCH  14  15
ENDBRANCH   1  14
TORSDOF 6
ENDMDL
