MODEL 1
REMARK VINA RESULT:      -7.4      0.000      0.000
REMARK  Name = 
REMARK  7 active torsions:
REMARK  status: ('A' for Active; 'I' for Inactive)
REMARK    1  A    between atoms: O_2  and  C_3
REMARK    2  A    between atoms: C_7  and  N_8
REMARK    3  A    between atoms: C_9  and  C_11
REMARK    4  A    between atoms: C_16  and  S_17
REMARK    5  A    between atoms: S_17  and  C_18
REMARK    6  A    between atoms: C_23  and  C_24
REMARK    7  A    between atoms: C_27  and  C_28
REMARK                            x       y       z     vdW  Elec       q    Type
REMARK                         _______ _______ _______ _____ _____    ______ ____
ROOT
ATOM      1  N   UNL     1      36.943   1.787  14.530  0.00  0.00    +0.000 NA
ATOM      2  C   UNL     1      36.794   2.876  15.426  0.00  0.00    +0.000 C 
ATOM      3  O   UNL     1      36.885   2.680  16.652  0.00  0.00    +0.000 OA
ENDROOT
BRANCH   1   8
ATOM      4  C   UNL     1      37.731  -2.206  15.773  0.00  0.00    +0.000 A 
ATOM      5  C   UNL     1      38.741  -1.341  15.352  0.00  0.00    +0.000 A 
ATOM      6  C   UNL     1      38.466  -0.056  14.960  0.00  0.00    +0.000 A 
ATOM      7  C   UNL     1      39.559   0.863  14.506  0.00  0.00    +0.000 C 
ATOM      8  C   UNL     1      37.165   0.456  14.961  0.00  0.00    +0.000 A 
ATOM      9  C   UNL     1      36.169  -0.387  15.373  0.00  0.00    +0.000 A 
ATOM     10  C   UNL     1      36.426  -1.676  15.768  0.00  0.00    +0.000 A 
BRANCH  10  11
ATOM     11  C   UNL     1      35.365  -2.613  16.179  0.00  0.00    +0.000 C 
ATOM     12  C   UNL     1      34.872  -3.521  15.109  0.00  0.00    +0.000 C 
ATOM     13  C   UNL     1      34.337  -2.084  17.089  0.00  0.00    +0.000 C 
ENDBRANCH  10  11
BRANCH   4  15
ATOM     14  C   UNL     1      38.751  -3.912  17.247  0.00  0.00    +0.000 C 
ATOM     15  O   UNL     1      37.967  -3.485  16.173  0.00  0.00    +0.000 OA
ENDBRANCH   4  15
ENDBRANCH   1   8
BRANCH   2  16
ATOM     16  C   UNL     1      36.539   4.231  14.843  0.00  0.00    +0.000 A 
ATOM     17  C   UNL     1      35.297   4.643  14.435  0.00  0.00    +0.000 A 
ATOM     18  C   UNL     1      35.057   5.922  13.965  0.00  0.00    +0.000 A 
ATOM     19  C   UNL     1      36.097   6.811  13.903  0.00  0.00    +0.000 A 
ATOM     20  C   UNL     1      37.359   6.426  14.306  0.00  0.00    +0.000 A 
ATOM     21  C   UNL     1      37.561   5.145  14.768  0.00  0.00    +0.000 A 
BRANCH  21  22
ATOM     22  S   UNL     1      39.182   4.611  15.233  0.00  0.00    +0.000 S 
BRANCH  22  23
ATOM     23  C   UNL     1      39.663   5.355  16.813  0.00  0.00    +0.000 A 
ATOM     24  C   UNL     1      38.953   5.235  17.957  0.00  0.00    +0.000 A 
ATOM     25  C   UNL     1      39.337   5.825  19.136  0.00  0.00    +0.000 A 
ATOM     26  C   UNL     1      40.510   6.601  19.204  0.00  0.00    +0.000 A 
ATOM     27  C   UNL     1      41.225   6.718  18.037  0.00  0.00    +0.000 A 
ATOM     28  C   UNL     1      40.835   6.120  16.858  0.00  0.00    +0.000 A 
BRANCH  28  29
ATOM     29  C   UNL     1      41.608   6.283  15.684  0.00  0.00    +0.000 C 
ATOM     30  N   UNL     1      42.263   6.420  14.721  0.00  0.00    +0.000 NA
ENDBRANCH  28  29
ENDBRANCH  22  23
ENDBRANCH  21  22
ENDBRANCH   2  16
TORSDOF 7
ENDMDL
MODEL 2
REMARK VINA RESULT:      -7.0      4.275      7.886
REMARK  Name = 
REMARK  7 active torsions:
REMARK  status: ('A' for Active; 'I' for Inactive)
REMARK    1  A    between atoms: O_2  and  C_3
REMARK    2  A    between atoms: C_7  and  N_8
REMARK    3  A    between atoms: C_9  and  C_11
REMARK    4  A    between atoms: C_16  and  S_17
REMARK    5  A    between atoms: S_17  and  C_18
REMARK    6  A    between atoms: C_23  and  C_24
REMARK    7  A    between atoms: C_27  and  C_28
REMARK                            x       y       z     vdW  Elec       q    Type
REMARK                         _______ _______ _______ _____ _____    ______ ____
ROOT
ATOM      1  N   UNL     1      37.873  -0.311  13.340  0.00  0.00    +0.000 NA
ATOM      2  C   UNL     1      38.119   0.290  14.601  0.00  0.00    +0.000 C 
ATOM      3  O   UNL     1      39.290   0.412  15.005  0.00  0.00    +0.000 OA
ENDROOT
BRANCH   1   8
ATOM      4  C   UNL     1      40.961  -1.947  10.912  0.00  0.00    +0.000 A 
ATOM      5  C   UNL     1      40.137  -2.742  11.709  0.00  0.00    +0.000 A 
ATOM      6  C   UNL     1      39.145  -2.195  12.481  0.00  0.00    +0.000 A 
ATOM      7  C   UNL     1      38.268  -3.058  13.336  0.00  0.00    +0.000 C 
ATOM      8  C   UNL     1      38.904  -0.819  12.511  0.00  0.00    +0.000 A 
ATOM      9  C   UNL     1      39.708  -0.033  11.731  0.00  0.00    +0.000 A 
ATOM     10  C   UNL     1      40.707  -0.564  10.953  0.00  0.00    +0.000 A 
BRANCH  10  11
ATOM     11  C   UNL     1      41.609   0.266  10.135  0.00  0.00    +0.000 C 
ATOM     12  C   UNL     1      42.671   0.982  10.891  0.00  0.00    +0.000 C 
ATOM     13  C   UNL     1      40.990   1.024   9.035  0.00  0.00    +0.000 C 
ENDBRANCH  10  11
BRANCH   4  15
ATOM     14  C   UNL     1      42.669  -3.638  10.323  0.00  0.00    +0.000 C 
ATOM     15  O   UNL     1      41.952  -2.456  10.130  0.00  0.00    +0.000 OA
ENDBRANCH   4  15
ENDBRANCH   1   8
BRANCH   2  16
ATOM     16  C   UNL     1      36.940   0.764  15.390  0.00  0.00    +0.000 A 
ATOM     17  C   UNL     1      36.290   1.941  15.123  0.00  0.00    +0.000 A 
ATOM     18  C   UNL     1      35.157   2.336  15.811  0.00  0.00    +0.000 A 
ATOM     19  C   UNL     1      34.663   1.524  16.797  0.00  0.00    +0.000 A 
ATOM     20  C   UNL     1      35.295   0.333  17.090  0.00  0.00    +0.000 A 
ATOM     21  C   UNL     1      36.420  -0.028  16.385  0.00  0.00    +0.000 A 
BRANCH  21  22
ATOM     22  S   UNL     1      37.281  -1.522  16.783  0.00  0.00    +0.000 S 
BRANCH  22  23
ATOM     23  C   UNL     1      36.342  -2.963  16.215  0.00  0.00    +0.000 A 
ATOM     24  C   UNL     1      35.210  -2.890  15.481  0.00  0.00    +0.000 A 
ATOM     25  C   UNL     1      34.512  -4.002  15.079  0.00  0.00    +0.000 A 
ATOM     26  C   UNL     1      34.953  -5.293  15.426  0.00  0.00    +0.000 A 
ATOM     27  C   UNL     1      36.105  -5.358  16.172  0.00  0.00    +0.000 A 
ATOM     28  C   UNL     1      36.801  -4.237  16.570  0.00  0.00    +0.000 A 
BRANCH  28  29
ATOM     29  C   UNL     1      37.978  -4.365  17.347  0.00  0.00    +0.000 C 
ATOM     30  N   UNL     1      38.961  -4.472  17.975  0.00  0.00    +0.000 NA
ENDBRANCH  28  29
ENDBRANCH  22  23
ENDBRANCH  21  22
ENDBRANCH   2  16
TORSDOF 7
ENDMDL
MODEL 3
REMARK VINA RESULT:      -6.9      2.795      8.078
REMARK  Name = 
REMARK  7 active torsions:
REMARK  status: ('A' for Active; 'I' for Inactive)
REMARK    1  A    between atoms: O_2  and  C_3
REMARK    2  A    between atoms: C_7  and  N_8
REMARK    3  A    between atoms: C_9  and  C_11
REMARK    4  A    between atoms: C_16  and  S_17
REMARK    5  A    between atoms: S_17  and  C_18
REMARK    6  A    between atoms: C_23  and  C_24
REMARK    7  A    between atoms: C_27  and  C_28
REMARK                            x       y       z     vdW  Elec       q    Type
REMARK                         _______ _______ _______ _____ _____    ______ ____
ROOT
ATOM      1  N   UNL     1      37.921   3.394  16.963  0.00  0.00    +0.000 NA
ATOM      2  C   UNL     1      36.733   3.069  16.261  0.00  0.00    +0.000 C 
ATOM      3  O   UNL     1      36.145   3.952  15.608  0.00  0.00    +0.000 OA
ENDROOT
BRANCH   1   8
ATOM      4  C   UNL     1      39.666   7.275  16.942  0.00  0.00    +0.000 A 
ATOM      5  C   UNL     1      39.886   6.351  15.920  0.00  0.00    +0.000 A 
ATOM      6  C   UNL     1      39.311   5.107  15.944  0.00  0.00    +0.000 A 
ATOM      7  C   UNL     1      39.558   4.121  14.843  0.00  0.00    +0.000 C 
ATOM      8  C   UNL     1      38.475   4.698  16.987  0.00  0.00    +0.000 A 
ATOM      9  C   UNL     1      38.254   5.600  17.992  0.00  0.00    +0.000 A 
ATOM     10  C   UNL     1      38.823   6.849  17.985  0.00  0.00    +0.000 A 
BRANCH  10  11
ATOM     11  C   UNL     1      38.629   7.821  19.075  0.00  0.00    +0.000 C 
ATOM     12  C   UNL     1      39.307   7.482  20.355  0.00  0.00    +0.000 C 
ATOM     13  C   UNL     1      37.285   8.408  19.202  0.00  0.00    +0.000 C 
ENDBRANCH  10  11
BRANCH   4  15
ATOM     14  C   UNL     1      41.570   8.853  17.036  0.00  0.00    +0.000 C 
ATOM     15  O   UNL     1      40.217   8.520  16.949  0.00  0.00    +0.000 OA
ENDBRANCH   4  15
ENDBRANCH   1   8
BRANCH   2  16
ATOM     16  C   UNL     1      36.240   1.658  16.335  0.00  0.00    +0.000 A 
ATOM     17  C   UNL     1      35.164   1.286  17.096  0.00  0.00    +0.000 A 
ATOM     18  C   UNL     1      34.671  -0.007  17.102  0.00  0.00    +0.000 A 
ATOM     19  C   UNL     1      35.279  -0.952  16.319  0.00  0.00    +0.000 A 
ATOM     20  C   UNL     1      36.365  -0.608  15.542  0.00  0.00    +0.000 A 
ATOM     21  C   UNL     1      36.829   0.688  15.561  0.00  0.00    +0.000 A 
BRANCH  21  22
ATOM     22  S   UNL     1      38.257   1.139  14.619  0.00  0.00    +0.000 S 
BRANCH  22  23
ATOM     23  C   UNL     1      39.093  -0.342  13.992  0.00  0.00    +0.000 A 
ATOM     24  C   UNL     1      40.008  -1.050  14.691  0.00  0.00    +0.000 A 
ATOM     25  C   UNL     1      40.636  -2.159  14.182  0.00  0.00    +0.000 A 
ATOM     26  C   UNL     1      40.352  -2.614  12.881  0.00  0.00    +0.000 A 
ATOM     27  C   UNL     1      39.421  -1.888  12.178  0.00  0.00    +0.000 A 
ATOM     28  C   UNL     1      38.792  -0.777  12.696  0.00  0.00    +0.000 A 
BRANCH  28  29
ATOM     29  C   UNL     1      37.848  -0.063  11.921  0.00  0.00    +0.000 C 
ATOM     30  N   UNL     1      37.070   0.543  11.288  0.00  0.00    +0.000 NA
ENDBRANCH  28  29
ENDBRANCH  22  23
ENDBRANCH  21  22
ENDBRANCH   2  16
TORSDOF 7
ENDMDL
MODEL 4
REMARK VINA RESULT:      -6.9      2.471      3.830
REMARK  Name = 
REMARK  7 active torsions:
REMARK  status: ('A' for Active; 'I' for Inactive)
REMARK    1  A    between atoms: O_2  and  C_3
REMARK    2  A    between atoms: C_7  and  N_8
REMARK    3  A    between atoms: C_9  and  C_11
REMARK    4  A    between atoms: C_16  and  S_17
REMARK    5  A    between atoms: S_17  and  C_18
REMARK    6  A    between atoms: C_23  and  C_24
REMARK    7  A    between atoms: C_27  and  C_28
REMARK                            x       y       z     vdW  Elec       q    Type
REMARK                         _______ _______ _______ _____ _____    ______ ____
ROOT
ATOM      1  N   UNL     1      38.377  -0.054  14.023  0.00  0.00    +0.000 NA
ATOM      2  C   UNL     1      39.153   1.132  13.991  0.00  0.00    +0.000 C 
ATOM      3  O   UNL     1      39.736   1.512  15.023  0.00  0.00    +0.000 OA
ENDROOT
BRANCH   1   8
ATOM      4  C   UNL     1      37.930  -2.473  17.496  0.00  0.00    +0.000 A 
ATOM      5  C   UNL     1      38.988  -2.636  16.602  0.00  0.00    +0.000 A 
ATOM      6  C   UNL     1      39.116  -1.844  15.491  0.00  0.00    +0.000 A 
ATOM      7  C   UNL     1      40.255  -2.031  14.536  0.00  0.00    +0.000 C 
ATOM      8  C   UNL     1      38.199  -0.831  15.195  0.00  0.00    +0.000 A 
ATOM      9  C   UNL     1      37.158  -0.665  16.068  0.00  0.00    +0.000 A 
ATOM     10  C   UNL     1      37.014  -1.450  17.184  0.00  0.00    +0.000 A 
BRANCH  10  11
ATOM     11  C   UNL     1      35.881  -1.314  18.117  0.00  0.00    +0.000 C 
ATOM     12  C   UNL     1      34.534  -1.396  17.493  0.00  0.00    +0.000 C 
ATOM     13  C   UNL     1      36.027  -0.314  19.187  0.00  0.00    +0.000 C 
ENDBRANCH  10  11
BRANCH   4  15
ATOM     14  C   UNL     1      38.721  -3.508  19.600  0.00  0.00    +0.000 C 
ATOM     15  O   UNL     1      37.773  -3.238  18.610  0.00  0.00    +0.000 OA
ENDBRANCH   4  15
ENDBRANCH   1   8
BRANCH   2  16
ATOM     16  C   UNL     1      39.242   1.874  12.694  0.00  0.00    +0.000 A 
ATOM     17  C   UNL     1      40.145   1.553  11.715  0.00  0.00    +0.000 A 
ATOM     18  C   UNL     1      40.172   2.197  10.491  0.00  0.00    +0.000 A 
ATOM     19  C   UNL     1      39.264   3.193  10.245  0.00  0.00    +0.000 A 
ATOM     20  C   UNL     1      38.342   3.538  11.212  0.00  0.00    +0.000 A 
ATOM     21  C   UNL     1      38.345   2.876  12.418  0.00  0.00    +0.000 A 
BRANCH  21  22
ATOM     22  S   UNL     1      37.212   3.343  13.694  0.00  0.00    +0.000 S 
BRANCH  22  23
ATOM     23  C   UNL     1      38.084   4.197  15.033  0.00  0.00    +0.000 A 
ATOM     24  C   UNL     1      39.143   5.016  14.848  0.00  0.00    +0.000 A 
ATOM     25  C   UNL     1      39.794   5.637  15.885  0.00  0.00    +0.000 A 
ATOM     26  C   UNL     1      39.380   5.438  17.216  0.00  0.00    +0.000 A 
ATOM     27  C   UNL     1      38.302   4.604  17.395  0.00  0.00    +0.000 A 
ATOM     28  C   UNL     1      37.653   3.987  16.348  0.00  0.00    +0.000 A 
BRANCH  28  29
ATOM     29  C   UNL     1      36.554   3.129  16.594  0.00  0.00    +0.000 C 
ATOM     30  N   UNL     1      35.642   2.418  16.780  0.00  0.00    +0.000 NA
ENDBRANCH  28  29
ENDBRANCH  22  23
ENDBRANCH  21  22
ENDBRANCH   2  16
TORSDOF 7
ENDMDL
MODEL 5
REMARK VINA RESULT:      -6.9      3.863      7.911
REMARK  Name = 
REMARK  7 active torsions:
REMARK  status: ('A' for Active; 'I' for Inactive)
REMARK    1  A    between atoms: O_2  and  C_3
REMARK    2  A    between atoms: C_7  and  N_8
REMARK    3  A    between atoms: C_9  and  C_11
REMARK    4  A    between atoms: C_16  and  S_17
REMARK    5  A    between atoms: S_17  and  C_18
REMARK    6  A    between atoms: C_23  and  C_24
REMARK    7  A    between atoms: C_27  and  C_28
REMARK                            x       y       z     vdW  Elec       q    Type
REMARK                         _______ _______ _______ _____ _____    ______ ____
ROOT
ATOM      1  N   UNL     1      39.378   1.062  14.908  0.00  0.00    +0.000 NA
ATOM      2  C   UNL     1      38.110   0.577  14.499  0.00  0.00    +0.000 C 
ATOM      3  O   UNL     1      38.014  -0.071  13.440  0.00  0.00    +0.000 OA
ENDROOT
BRANCH   1   8
ATOM      4  C   UNL     1      42.894   0.593  12.557  0.00  0.00    +0.000 A 
ATOM      5  C   UNL     1      42.083   1.725  12.472  0.00  0.00    +0.000 A 
ATOM      6  C   UNL     1      40.956   1.859  13.242  0.00  0.00    +0.000 A 
ATOM      7  C   UNL     1      40.092   3.077  13.139  0.00  0.00    +0.000 C 
ATOM      8  C   UNL     1      40.561   0.873  14.151  0.00  0.00    +0.000 A 
ATOM      9  C   UNL     1      41.352  -0.240  14.240  0.00  0.00    +0.000 A 
ATOM     10  C   UNL     1      42.482  -0.390  13.476  0.00  0.00    +0.000 A 
BRANCH  10  11
ATOM     11  C   UNL     1      43.327  -1.597  13.528  0.00  0.00    +0.000 C 
ATOM     12  C   UNL     1      42.712  -2.826  12.960  0.00  0.00    +0.000 C 
ATOM     13  C   UNL     1      44.124  -1.790  14.750  0.00  0.00    +0.000 C 
ENDBRANCH  10  11
BRANCH   4  15
ATOM     14  C   UNL     1      44.120   0.352  10.421  0.00  0.00    +0.000 C 
ATOM     15  O   UNL     1      44.021   0.428  11.812  0.00  0.00    +0.000 OA
ENDBRANCH   4  15
ENDBRANCH   1   8
BRANCH   2  16
ATOM     16  C   UNL     1      36.934   0.864  15.378  0.00  0.00    +0.000 A 
ATOM     17  C   UNL     1      36.193   2.012  15.277  0.00  0.00    +0.000 A 
ATOM     18  C   UNL     1      35.064   2.237  16.045  0.00  0.00    +0.000 A 
ATOM     19  C   UNL     1      34.670   1.278  16.941  0.00  0.00    +0.000 A 
ATOM     20  C   UNL     1      35.396   0.112  17.066  0.00  0.00    +0.000 A 
ATOM     21  C   UNL     1      36.514  -0.078  16.286  0.00  0.00    +0.000 A 
BRANCH  21  22
ATOM     22  S   UNL     1      37.494  -1.539  16.472  0.00  0.00    +0.000 S 
BRANCH  22  23
ATOM     23  C   UNL     1      36.541  -3.004  15.995  0.00  0.00    +0.000 A 
ATOM     24  C   UNL     1      35.466  -2.977  15.177  0.00  0.00    +0.000 A 
ATOM     25  C   UNL     1      34.754  -4.103  14.847  0.00  0.00    +0.000 A 
ATOM     26  C   UNL     1      35.120  -5.362  15.360  0.00  0.00    +0.000 A 
ATOM     27  C   UNL     1      36.215  -5.380  16.190  0.00  0.00    +0.000 A 
ATOM     28  C   UNL     1      36.926  -4.245  16.515  0.00  0.00    +0.000 A 
BRANCH  28  29
ATOM     29  C   UNL     1      38.041  -4.324  17.384  0.00  0.00    +0.000 C 
ATOM     30  N   UNL     1      38.957  -4.404  18.110  0.00  0.00    +0.000 NA
ENDBRANCH  28  29
ENDBRANCH  22  23
ENDBRANCH  21  22
ENDBRANCH   2  16
TORSDOF 7
ENDMDL
MODEL 6
REMARK VINA RESULT:      -6.9      2.306      3.620
REMARK  Name = 
REMARK  7 active torsions:
REMARK  status: ('A' for Active; 'I' for Inactive)
REMARK    1  A    between atoms: O_2  and  C_3
REMARK    2  A    between atoms: C_7  and  N_8
REMARK    3  A    between atoms: C_9  and  C_11
REMARK    4  A    between atoms: C_16  and  S_17
REMARK    5  A    between atoms: S_17  and  C_18
REMARK    6  A    between atoms: C_23  and  C_24
REMARK    7  A    between atoms: C_27  and  C_28
REMARK                            x       y       z     vdW  Elec       q    Type
REMARK                         _______ _______ _______ _____ _____    ______ ____
ROOT
ATOM      1  N   UNL     1      37.898   0.894  15.524  0.00  0.00    +0.000 NA
ATOM      2  C   UNL     1      37.917   1.510  14.247  0.00  0.00    +0.000 C 
ATOM      3  O   UNL     1      36.954   1.351  13.475  0.00  0.00    +0.000 OA
ENDROOT
BRANCH   1   8
ATOM      4  C   UNL     1      34.674  -1.492  16.944  0.00  0.00    +0.000 A 
ATOM      5  C   UNL     1      34.763  -0.124  17.205  0.00  0.00    +0.000 A 
ATOM      6  C   UNL     1      35.809   0.627  16.734  0.00  0.00    +0.000 A 
ATOM      7  C   UNL     1      35.896   2.094  17.023  0.00  0.00    +0.000 C 
ATOM      8  C   UNL     1      36.837   0.068  15.970  0.00  0.00    +0.000 A 
ATOM      9  C   UNL     1      36.755  -1.273  15.710  0.00  0.00    +0.000 A 
ATOM     10  C   UNL     1      35.717  -2.041  16.174  0.00  0.00    +0.000 A 
BRANCH  10  11
ATOM     11  C   UNL     1      35.629  -3.493  15.939  0.00  0.00    +0.000 C 
ATOM     12  C   UNL     1      36.763  -4.291  16.474  0.00  0.00    +0.000 C 
ATOM     13  C   UNL     1      35.115  -3.916  14.626  0.00  0.00    +0.000 C 
ENDBRANCH  10  11
BRANCH   4  15
ATOM     14  C   UNL     1      32.294  -1.938  17.456  0.00  0.00    +0.000 C 
ATOM     15  O   UNL     1      33.649  -2.268  17.392  0.00  0.00    +0.000 OA
ENDBRANCH   4  15
ENDBRANCH   1   8
BRANCH   2  16
ATOM     16  C   UNL     1      39.110   2.340  13.889  0.00  0.00    +0.000 A 
ATOM     17  C   UNL     1      40.230   1.816  13.298  0.00  0.00    +0.000 A 
ATOM     18  C   UNL     1      41.298   2.602  12.904  0.00  0.00    +0.000 A 
ATOM     19  C   UNL     1      41.237   3.955  13.111  0.00  0.00    +0.000 A 
ATOM     20  C   UNL     1      40.123   4.512  13.703  0.00  0.00    +0.000 A 
ATOM     21  C   UNL     1      39.079   3.699  14.083  0.00  0.00    +0.000 A 
BRANCH  21  22
ATOM     22  S   UNL     1      37.666   4.384  14.898  0.00  0.00    +0.000 S 
BRANCH  22  23
ATOM     23  C   UNL     1      38.165   5.232  16.420  0.00  0.00    +0.000 A 
ATOM     24  C   UNL     1      38.684   4.609  17.501  0.00  0.00    +0.000 A 
ATOM     25  C   UNL     1      39.038   5.279  18.646  0.00  0.00    +0.000 A 
ATOM     26  C   UNL     1      38.867   6.672  18.747  0.00  0.00    +0.000 A 
ATOM     27  C   UNL     1      38.338   7.297  17.644  0.00  0.00    +0.000 A 
ATOM     28  C   UNL     1      37.988   6.619  16.497  0.00  0.00    +0.000 A 
BRANCH  28  29
ATOM     29  C   UNL     1      37.438   7.315  15.394  0.00  0.00    +0.000 C 
ATOM     30  N   UNL     1      36.969   7.896  14.490  0.00  0.00    +0.000 NA
ENDBRANCH  28  29
ENDBRANCH  22  23
ENDBRANCH  21  22
ENDBRANCH   2  16
TORSDOF 7
ENDMDL
MODEL 7
REMARK VINA RESULT:      -6.7      3.536      8.253
REMARK  Name = 
REMARK  7 active torsions:
REMARK  status: ('A' for Active; 'I' for Inactive)
REMARK    1  A    between atoms: O_2  and  C_3
REMARK    2  A    between atoms: C_7  and  N_8
REMARK    3  A    between atoms: C_9  and  C_11
REMARK    4  A    between atoms: C_16  and  S_17
REMARK    5  A    between atoms: S_17  and  C_18
REMARK    6  A    between atoms: C_23  and  C_24
REMARK    7  A    between atoms: C_27  and  C_28
REMARK                            x       y       z     vdW  Elec       q    Type
REMARK                         _______ _______ _______ _____ _____    ______ ____
ROOT
ATOM      1  N   UNL     1      37.377   1.063  15.594  0.00  0.00    +0.000 NA
ATOM      2  C   UNL     1      37.249  -0.232  15.032  0.00  0.00    +0.000 C 
ATOM      3  O   UNL     1      36.605  -0.382  13.977  0.00  0.00    +0.000 OA
ENDROOT
BRANCH   1   8
ATOM      4  C   UNL     1      35.465   4.491  13.950  0.00  0.00    +0.000 A 
ATOM      5  C   UNL     1      34.892   3.733  14.972  0.00  0.00    +0.000 A 
ATOM      6  C   UNL     1      35.526   2.634  15.491  0.00  0.00    +0.000 A 
ATOM      7  C   UNL     1      34.899   1.827  16.585  0.00  0.00    +0.000 C 
ATOM      8  C   UNL     1      36.777   2.216  15.028  0.00  0.00    +0.000 A 
ATOM      9  C   UNL     1      37.346   2.954  14.026  0.00  0.00    +0.000 A 
ATOM     10  C   UNL     1      36.723   4.056  13.494  0.00  0.00    +0.000 A 
BRANCH  10  11
ATOM     11  C   UNL     1      37.299   4.843  12.390  0.00  0.00    +0.000 C 
ATOM     12  C   UNL     1      37.294   4.172  11.063  0.00  0.00    +0.000 C 
ATOM     13  C   UNL     1      38.504   5.630  12.700  0.00  0.00    +0.000 C 
ENDBRANCH  10  11
BRANCH   4  15
ATOM     14  C   UNL     1      34.087   6.543  14.072  0.00  0.00    +0.000 C 
ATOM     15  O   UNL     1      34.866   5.589  13.414  0.00  0.00    +0.000 OA
ENDBRANCH   4  15
ENDBRANCH   1   8
BRANCH   2  16
ATOM     16  C   UNL     1      37.912  -1.371  15.741  0.00  0.00    +0.000 A 
ATOM     17  C   UNL     1      37.279  -2.119  16.699  0.00  0.00    +0.000 A 
ATOM     18  C   UNL     1      37.875  -3.215  17.297  0.00  0.00    +0.000 A 
ATOM     19  C   UNL     1      39.144  -3.568  16.921  0.00  0.00    +0.000 A 
ATOM     20  C   UNL     1      39.807  -2.834  15.960  0.00  0.00    +0.000 A 
ATOM     21  C   UNL     1      39.183  -1.749  15.386  0.00  0.00    +0.000 A 
BRANCH  21  22
ATOM     22  S   UNL     1      40.036  -0.757  14.195  0.00  0.00    +0.000 S 
BRANCH  22  23
ATOM     23  C   UNL     1      40.456  -1.745  12.735  0.00  0.00    +0.000 A 
ATOM     24  C   UNL     1      41.270  -2.824  12.756  0.00  0.00    +0.000 A 
ATOM     25  C   UNL     1      41.582  -3.543  11.629  0.00  0.00    +0.000 A 
ATOM     26  C   UNL     1      41.059  -3.176  10.374  0.00  0.00    +0.000 A 
ATOM     27  C   UNL     1      40.233  -2.079  10.362  0.00  0.00    +0.000 A 
ATOM     28  C   UNL     1      39.923  -1.364  11.498  0.00  0.00    +0.000 A 
BRANCH  28  29
ATOM     29  C   UNL     1      39.072  -0.234  11.423  0.00  0.00    +0.000 C 
ATOM     30  N   UNL     1      38.380   0.708  11.349  0.00  0.00    +0.000 NA
ENDBRANCH  28  29
ENDBRANCH  22  23
ENDBRANCH  21  22
ENDBRANCH   2  16
TORSDOF 7
ENDMDL
MODEL 8
REMARK VINA RESULT:      -6.7      1.363      2.573
REMARK  Name = 
REMARK  7 active torsions:
REMARK  status: ('A' for Active; 'I' for Inactive)
REMARK    1  A    between atoms: O_2  and  C_3
REMARK    2  A    between atoms: C_7  and  N_8
REMARK    3  A    between atoms: C_9  and  C_11
REMARK    4  A    between atoms: C_16  and  S_17
REMARK    5  A    between atoms: S_17  and  C_18
REMARK    6  A    between atoms: C_23  and  C_24
REMARK    7  A    between atoms: C_27  and  C_28
REMARK                            x       y       z     vdW  Elec       q    Type
REMARK                         _______ _______ _______ _____ _____    ______ ____
ROOT
ATOM      1  N   UNL     1      36.710   2.884  15.341  0.00  0.00    +0.000 NA
ATOM      2  C   UNL     1      36.680   3.664  14.158  0.00  0.00    +0.000 C 
ATOM      3  O   UNL     1      36.807   3.107  13.052  0.00  0.00    +0.000 OA
ENDROOT
BRANCH   1   8
ATOM      4  C   UNL     1      37.219  -1.340  15.429  0.00  0.00    +0.000 A 
ATOM      5  C   UNL     1      36.147  -0.704  16.054  0.00  0.00    +0.000 A 
ATOM      6  C   UNL     1      35.999   0.659  16.011  0.00  0.00    +0.000 A 
ATOM      7  C   UNL     1      34.846   1.332  16.689  0.00  0.00    +0.000 C 
ATOM      8  C   UNL     1      36.909   1.481  15.339  0.00  0.00    +0.000 A 
ATOM      9  C   UNL     1      37.962   0.863  14.722  0.00  0.00    +0.000 A 
ATOM     10  C   UNL     1      38.127  -0.499  14.757  0.00  0.00    +0.000 A 
BRANCH  10  11
ATOM     11  C   UNL     1      39.274  -1.182  14.133  0.00  0.00    +0.000 C 
ATOM     12  C   UNL     1      40.611  -0.731  14.601  0.00  0.00    +0.000 C 
ATOM     13  C   UNL     1      39.166  -1.467  12.693  0.00  0.00    +0.000 C 
ENDBRANCH  10  11
BRANCH   4  15
ATOM     14  C   UNL     1      36.603  -3.663  14.835  0.00  0.00    +0.000 C 
ATOM     15  O   UNL     1      37.396  -2.690  15.448  0.00  0.00    +0.000 OA
ENDBRANCH   4  15
ENDBRANCH   1   8
BRANCH   2  16
ATOM     16  C   UNL     1      36.486   5.141  14.300  0.00  0.00    +0.000 A 
ATOM     17  C   UNL     1      35.301   5.766  14.012  0.00  0.00    +0.000 A 
ATOM     18  C   UNL     1      35.108   7.121  14.215  0.00  0.00    +0.000 A 
ATOM     19  C   UNL     1      36.138   7.869  14.722  0.00  0.00    +0.000 A 
ATOM     20  C   UNL     1      37.343   7.268  15.021  0.00  0.00    +0.000 A 
ATOM     21  C   UNL     1      37.499   5.918  14.806  0.00  0.00    +0.000 A 
BRANCH  21  22
ATOM     22  S   UNL     1      39.055   5.138  15.126  0.00  0.00    +0.000 S 
BRANCH  22  23
ATOM     23  C   UNL     1      39.661   5.589  16.773  0.00  0.00    +0.000 A 
ATOM     24  C   UNL     1      38.943   5.451  17.910  0.00  0.00    +0.000 A 
ATOM     25  C   UNL     1      39.425   5.818  19.142  0.00  0.00    +0.000 A 
ATOM     26  C   UNL     1      40.714   6.369  19.277  0.00  0.00    +0.000 A 
ATOM     27  C   UNL     1      41.436   6.505  18.115  0.00  0.00    +0.000 A 
ATOM     28  C   UNL     1      40.946   6.132  16.882  0.00  0.00    +0.000 A 
BRANCH  28  29
ATOM     29  C   UNL     1      41.733   6.305  15.719  0.00  0.00    +0.000 C 
ATOM     30  N   UNL     1      42.388   6.465  14.760  0.00  0.00    +0.000 NA
ENDBRANCH  28  29
ENDBRANCH  22  23
ENDBRANCH  21  22
ENDBRANCH   2  16
TORSDOF 7
ENDMDL
MODEL 9
REMARK VINA RESULT:      -6.6      3.903      5.657
REMARK  Name = 
REMARK  7 active torsions:
REMARK  status: ('A' for Active; 'I' for Inactive)
REMARK    1  A    between atoms: O_2  and  C_3
REMARK    2  A    between atoms: C_7  and  N_8
REMARK    3  A    between atoms: C_9  and  C_11
REMARK    4  A    between atoms: C_16  and  S_17
REMARK    5  A    between atoms: S_17  and  C_18
REMARK    6  A    between atoms: C_23  and  C_24
REMARK    7  A    between atoms: C_27  and  C_28
REMARK                            x       y       z     vdW  Elec       q    Type
REMARK                         _______ _______ _______ _____ _____    ______ ____
ROOT
ATOM      1  N   UNL     1      38.007  -2.087  15.147  0.00  0.00    +0.000 NA
ATOM      2  C   UNL     1      38.721  -1.929  13.933  0.00  0.00    +0.000 C 
ATOM      3  O   UNL     1      38.618  -2.794  13.044  0.00  0.00    +0.000 OA
ENDROOT
BRANCH   1   8
ATOM      4  C   UNL     1      35.648  -5.517  16.031  0.00  0.00    +0.000 A 
ATOM      5  C   UNL     1      36.904  -5.306  16.601  0.00  0.00    +0.000 A 
ATOM      6  C   UNL     1      37.646  -4.192  16.306  0.00  0.00    +0.000 A 
ATOM      7  C   UNL     1      38.995  -3.978  16.921  0.00  0.00    +0.000 C 
ATOM      8  C   UNL     1      37.187  -3.209  15.424  0.00  0.00    +0.000 A 
ATOM      9  C   UNL     1      35.956  -3.409  14.861  0.00  0.00    +0.000 A 
ATOM     10  C   UNL     1      35.200  -4.520  15.144  0.00  0.00    +0.000 A 
BRANCH  10  11
ATOM     11  C   UNL     1      33.889  -4.774  14.522  0.00  0.00    +0.000 C 
ATOM     12  C   UNL     1      32.711  -4.433  15.363  0.00  0.00    +0.000 C 
ATOM     13  C   UNL     1      33.767  -6.005  13.725  0.00  0.00    +0.000 C 
ENDBRANCH  10  11
BRANCH   4  15
ATOM     14  C   UNL     1      35.276  -7.790  16.935  0.00  0.00    +0.000 C 
ATOM     15  O   UNL     1      34.883  -6.609  16.303  0.00  0.00    +0.000 OA
ENDBRANCH   4  15
ENDBRANCH   1   8
BRANCH   2  16
ATOM     16  C   UNL     1      39.571  -0.708  13.775  0.00  0.00    +0.000 A 
ATOM     17  C   UNL     1      40.905  -0.686  14.083  0.00  0.00    +0.000 A 
ATOM     18  C   UNL     1      41.699   0.426  13.865  0.00  0.00    +0.000 A 
ATOM     19  C   UNL     1      41.133   1.549  13.322  0.00  0.00    +0.000 A 
ATOM     20  C   UNL     1      39.791   1.558  13.001  0.00  0.00    +0.000 A 
ATOM     21  C   UNL     1      39.032   0.433  13.232  0.00  0.00    +0.000 A 
BRANCH  21  22
ATOM     22  S   UNL     1      37.297   0.442  12.885  0.00  0.00    +0.000 S 
BRANCH  22  23
ATOM     23  C   UNL     1      36.376   1.131  14.284  0.00  0.00    +0.000 A 
ATOM     24  C   UNL     1      35.882   0.394  15.304  0.00  0.00    +0.000 A 
ATOM     25  C   UNL     1      35.173   0.945  16.343  0.00  0.00    +0.000 A 
ATOM     26  C   UNL     1      34.923   2.329  16.391  0.00  0.00    +0.000 A 
ATOM     27  C   UNL     1      35.429   3.070  15.350  0.00  0.00    +0.000 A 
ATOM     28  C   UNL     1      36.141   2.511  14.311  0.00  0.00    +0.000 A 
BRANCH  28  29
ATOM     29  C   UNL     1      36.631   3.323  13.261  0.00  0.00    +0.000 C 
ATOM     30  N   UNL     1      37.043   4.008  12.403  0.00  0.00    +0.000 NA
ENDBRANCH  28  29
ENDBRANCH  22  23
ENDBRANCH  21  22
ENDBRANCH   2  16
TORSDOF 7
ENDMDL
MODEL 10
REMARK VINA RESULT:      -6.6      3.249      6.314
REMARK  Name = 
REMARK  7 active torsions:
REMARK  status: ('A' for Active; 'I' for Inactive)
REMARK    1  A    between atoms: O_2  and  C_3
REMARK    2  A    between atoms: C_7  and  N_8
REMARK    3  A    between atoms: C_9  and  C_11
REMARK    4  A    between atoms: C_16  and  S_17
REMARK    5  A    between atoms: S_17  and  C_18
REMARK    6  A    between atoms: C_23  and  C_24
REMARK    7  A    between atoms: C_27  and  C_28
REMARK                            x       y       z     vdW  Elec       q    Type
REMARK                         _______ _______ _______ _____ _____    ______ ____
ROOT
ATOM      1  N   UNL     1      39.186  -0.889  15.399  0.00  0.00    +0.000 NA
ATOM      2  C   UNL     1      37.902  -1.448  15.618  0.00  0.00    +0.000 C 
ATOM      3  O   UNL     1      37.432  -2.250  14.789  0.00  0.00    +0.000 OA
ENDROOT
BRANCH   1   8
ATOM      4  C   UNL     1      41.608  -1.833  12.030  0.00  0.00    +0.000 A 
ATOM      5  C   UNL     1      41.576  -2.630  13.174  0.00  0.00    +0.000 A 
ATOM      6  C   UNL     1      40.785  -2.310  14.248  0.00  0.00    +0.000 A 
ATOM      7  C   UNL     1      40.761  -3.172  15.473  0.00  0.00    +0.000 C 
ATOM      8  C   UNL     1      39.970  -1.175  14.254  0.00  0.00    +0.000 A 
ATOM      9  C   UNL     1      39.996  -0.388  13.134  0.00  0.00    +0.000 A 
ATOM     10  C   UNL     1      40.783  -0.693  12.052  0.00  0.00    +0.000 A 
BRANCH  10  11
ATOM     11  C   UNL     1      40.856   0.160  10.851  0.00  0.00    +0.000 C 
ATOM     12  C   UNL     1      41.728   1.358  10.977  0.00  0.00    +0.000 C 
ATOM     13  C   UNL     1      39.600   0.361  10.110  0.00  0.00    +0.000 C 
ENDBRANCH  10  11
BRANCH   4  15
ATOM     14  C   UNL     1      43.766  -2.260  10.896  0.00  0.00    +0.000 C 
ATOM     15  O   UNL     1      42.377  -2.121  10.945  0.00  0.00    +0.000 OA
ENDBRANCH   4  15
ENDBRANCH   1   8
BRANCH   2  16
ATOM     16  C   UNL     1      37.166  -1.046  16.857  0.00  0.00    +0.000 A 
ATOM     17  C   UNL     1      37.368  -1.651  18.070  0.00  0.00    +0.000 A 
ATOM     18  C   UNL     1      36.738  -1.225  19.226  0.00  0.00    +0.000 A 
ATOM     19  C   UNL     1      35.878  -0.160  19.158  0.00  0.00    +0.000 A 
ATOM     20  C   UNL     1      35.654   0.469  17.951  0.00  0.00    +0.000 A 
ATOM     21  C   UNL     1      36.299   0.018  16.822  0.00  0.00    +0.000 A 
BRANCH  21  22
ATOM     22  S   UNL     1      35.980   0.771  15.253  0.00  0.00    +0.000 S 
BRANCH  22  23
ATOM     23  C   UNL     1      36.915   2.315  15.092  0.00  0.00    +0.000 A 
ATOM     24  C   UNL     1      38.253   2.377  14.909  0.00  0.00    +0.000 A 
ATOM     25  C   UNL     1      38.934   3.564  14.807  0.00  0.00    +0.000 A 
ATOM     26  C   UNL     1      38.255   4.795  14.893  0.00  0.00    +0.000 A 
ATOM     27  C   UNL     1      36.896   4.722  15.079  0.00  0.00    +0.000 A 
ATOM     28  C   UNL     1      36.218   3.526  15.179  0.00  0.00    +0.000 A 
BRANCH  28  29
ATOM     29  C   UNL     1      34.817   3.513  15.379  0.00  0.00    +0.000 C 
ATOM     30  N   UNL     1      33.659   3.498  15.562  0.00  0.00    +0.000 NA
ENDBRANCH  28  29
ENDBRANCH  22  23
ENDBRANCH  21  22
ENDBRANCH   2  16
TORSDOF 7
ENDMDL
