MODEL 1
REMARK VINA RESULT:      -6.0      0.000      0.000
REMARK  Name = 
REMARK  5 active torsions:
REMARK  status: ('A' for Active; 'I' for Inactive)
REMARK    1  A    between atoms: C_2  and  C_3
REMARK    2  A    between atoms: C_3  and  C_4
REMARK    3  A    between atoms: C_4  and  S_5
REMARK    4  A    between atoms: S_5  and  C_6
REMARK    5  A    between atoms: C_9  and  C_10
REMARK                            x       y       z     vdW  Elec       q    Type
REMARK                         _______ _______ _______ _____ _____    ______ ____
ROOT
ATOM      1  C   UNL     1      16.715  10.884  34.494  0.00  0.00    +0.000 A 
ATOM      2  N   UNL     1      17.484   9.818  34.218  0.00  0.00    +0.000 NA
ATOM      3  N   UNL     1      18.190   9.505  35.286  0.00  0.00    +0.000 NA
ATOM      4  C   UNL     1      17.861  10.385  36.246  0.00  0.00    +0.000 A 
ATOM      5  N   UNL     1      16.950  11.241  35.768  0.00  0.00    +0.000 N 
ATOM      6  C   UNL     1      16.321  12.362  36.488  0.00  0.00    +0.000 C 
ENDROOT
BRANCH   4   7
ATOM      7  C   UNL     1      18.415  10.389  37.579  0.00  0.00    +0.000 A 
ATOM      8  C   UNL     1      17.809   9.666  38.582  0.00  0.00    +0.000 A 
ATOM      9  C   UNL     1      18.329   9.659  39.871  0.00  0.00    +0.000 A 
ATOM     10  C   UNL     1      19.467  10.371  40.186  0.00  0.00    +0.000 A 
ATOM     11  N   UNL     1      20.009  10.364  41.520  0.00  0.00    +0.000 NA
ATOM     12  C   UNL     1      20.065  11.091  39.173  0.00  0.00    +0.000 A 
ATOM     13  C   UNL     1      19.553  11.103  37.888  0.00  0.00    +0.000 A 
ENDBRANCH   4   7
BRANCH   1  14
ATOM     14  S   UNL     1      15.552  11.746  33.426  0.00  0.00    +0.000 S 
BRANCH  14  15
ATOM     15  C   UNL     1      15.987  11.293  31.717  0.00  0.00    +0.000 C 
BRANCH  15  16
ATOM     16  C   UNL     1      14.935  11.913  30.821  0.00  0.00    +0.000 C 
BRANCH  16  18
ATOM     17  C   UNL     1      16.486  13.736  30.173  0.00  0.00    +0.000 C 
ATOM     18  C   UNL     1      15.104  13.409  30.692  0.00  0.00    +0.000 C 
ENDBRANCH  16  18
ENDBRANCH  15  16
ENDBRANCH  14  15
ENDBRANCH   1  14
TORSDOF 5
ENDMDL
MODEL 2
REMARK VINA RESULT:      -5.8      2.848      7.189
REMARK  Name = 
REMARK  5 active torsions:
REMARK  status: ('A' for Active; 'I' for Inactive)
REMARK    1  A    between atoms: C_2  and  C_3
REMARK    2  A    between atoms: C_3  and  C_4
REMARK    3  A    between atoms: C_4  and  S_5
REMARK    4  A    between atoms: S_5  and  C_6
REMARK    5  A    between atoms: C_9  and  C_10
REMARK                            x       y       z     vdW  Elec       q    Type
REMARK                         _______ _______ _______ _____ _____    ______ ____
ROOT
ATOM      1  C   UNL     1      16.928  10.411  37.058  0.00  0.00    +0.000 A 
ATOM      2  N   UNL     1      15.926  10.974  37.752  0.00  0.00    +0.000 NA
ATOM      3  N   UNL     1      15.152  11.649  36.928  0.00  0.00    +0.000 NA
ATOM      4  C   UNL     1      15.673  11.510  35.697  0.00  0.00    +0.000 A 
ATOM      5  N   UNL     1      16.771  10.747  35.767  0.00  0.00    +0.000 N 
ATOM      6  C   UNL     1      17.645  10.345  34.650  0.00  0.00    +0.000 C 
ENDROOT
BRANCH   4   7
ATOM      7  C   UNL     1      15.122  12.100  34.501  0.00  0.00    +0.000 A 
ATOM      8  C   UNL     1      14.352  13.239  34.584  0.00  0.00    +0.000 A 
ATOM      9  C   UNL     1      13.813  13.820  33.442  0.00  0.00    +0.000 A 
ATOM     10  C   UNL     1      14.032  13.279  32.194  0.00  0.00    +0.000 A 
ATOM     11  N   UNL     1      13.476  13.880  31.009  0.00  0.00    +0.000 NA
ATOM     12  C   UNL     1      14.805  12.139  32.123  0.00  0.00    +0.000 A 
ATOM     13  C   UNL     1      15.344  11.555  33.255  0.00  0.00    +0.000 A 
ENDBRANCH   4   7
BRANCH   1  14
ATOM     14  S   UNL     1      18.277   9.381  37.653  0.00  0.00    +0.000 S 
BRANCH  14  15
ATOM     15  C   UNL     1      19.729  10.469  37.803  0.00  0.00    +0.000 C 
BRANCH  15  16
ATOM     16  C   UNL     1      20.766   9.949  36.827  0.00  0.00    +0.000 C 
BRANCH  16  18
ATOM     17  C   UNL     1      23.104  10.091  36.012  0.00  0.00    +0.000 C 
ATOM     18  C   UNL     1      22.141  10.513  37.099  0.00  0.00    +0.000 C 
ENDBRANCH  16  18
ENDBRANCH  15  16
ENDBRANCH  14  15
ENDBRANCH   1  14
TORSDOF 5
ENDMDL
MODEL 3
REMARK VINA RESULT:      -5.6     28.526     31.024
REMARK  Name = 
REMARK  5 active torsions:
REMARK  status: ('A' for Active; 'I' for Inactive)
REMARK    1  A    between atoms: C_2  and  C_3
REMARK    2  A    between atoms: C_3  and  C_4
REMARK    3  A    between atoms: C_4  and  S_5
REMARK    4  A    between atoms: S_5  and  C_6
REMARK    5  A    between atoms: C_9  and  C_10
REMARK                            x       y       z     vdW  Elec       q    Type
REMARK                         _______ _______ _______ _____ _____    ______ ____
ROOT
ATOM      1  C   UNL     1      32.693  20.838   9.230  0.00  0.00    +0.000 A 
ATOM      2  N   UNL     1      32.786  19.957  10.239  0.00  0.00    +0.000 NA
ATOM      3  N   UNL     1      31.895  20.258  11.161  0.00  0.00    +0.000 NA
ATOM      4  C   UNL     1      31.231  21.342  10.727  0.00  0.00    +0.000 A 
ATOM      5  N   UNL     1      31.716  21.708   9.534  0.00  0.00    +0.000 N 
ATOM      6  C   UNL     1      31.272  22.845   8.707  0.00  0.00    +0.000 C 
ENDROOT
BRANCH   4   7
ATOM      7  C   UNL     1      30.165  21.995  11.449  0.00  0.00    +0.000 A 
ATOM      8  C   UNL     1      30.439  22.689  12.606  0.00  0.00    +0.000 A 
ATOM      9  C   UNL     1      29.425  23.324  13.314  0.00  0.00    +0.000 A 
ATOM     10  C   UNL     1      28.116  23.280  12.882  0.00  0.00    +0.000 A 
ATOM     11  N   UNL     1      27.064  23.938  13.612  0.00  0.00    +0.000 NA
ATOM     12  C   UNL     1      27.855  22.581  11.722  0.00  0.00    +0.000 A 
ATOM     13  C   UNL     1      28.859  21.948  11.012  0.00  0.00    +0.000 A 
ENDBRANCH   4   7
BRANCH   1  14
ATOM     14  S   UNL     1      33.650  20.921   7.709  0.00  0.00    +0.000 S 
BRANCH  14  15
ATOM     15  C   UNL     1      32.498  20.536   6.353  0.00  0.00    +0.000 C 
BRANCH  15  16
ATOM     16  C   UNL     1      31.675  19.346   6.804  0.00  0.00    +0.000 C 
BRANCH  16  18
ATOM     17  C   UNL     1      29.498  18.832   5.734  0.00  0.00    +0.000 C 
ATOM     18  C   UNL     1      30.194  19.642   6.805  0.00  0.00    +0.000 C 
ENDBRANCH  16  18
ENDBRANCH  15  16
ENDBRANCH  14  15
ENDBRANCH   1  14
TORSDOF 5
ENDMDL
MODEL 4
REMARK VINA RESULT:      -5.4      3.310      4.467
REMARK  Name = 
REMARK  5 active torsions:
REMARK  status: ('A' for Active; 'I' for Inactive)
REMARK    1  A    between atoms: C_2  and  C_3
REMARK    2  A    between atoms: C_3  and  C_4
REMARK    3  A    between atoms: C_4  and  S_5
REMARK    4  A    between atoms: S_5  and  C_6
REMARK    5  A    between atoms: C_9  and  C_10
REMARK                            x       y       z     vdW  Elec       q    Type
REMARK                         _______ _______ _______ _____ _____    ______ ____
ROOT
ATOM      1  C   UNL     1      17.432  11.265  36.931  0.00  0.00    +0.000 A 
ATOM      2  N   UNL     1      17.277  10.013  36.469  0.00  0.00    +0.000 NA
ATOM      3  N   UNL     1      18.401   9.347  36.637  0.00  0.00    +0.000 NA
ATOM      4  C   UNL     1      19.275  10.189  37.212  0.00  0.00    +0.000 A 
ATOM      5  N   UNL     1      18.687  11.377  37.398  0.00  0.00    +0.000 N 
ATOM      6  C   UNL     1      19.288  12.582  37.998  0.00  0.00    +0.000 C 
ENDROOT
BRANCH   4   7
ATOM      7  C   UNL     1      20.633   9.848  37.564  0.00  0.00    +0.000 A 
ATOM      8  C   UNL     1      21.604   9.785  36.591  0.00  0.00    +0.000 A 
ATOM      9  C   UNL     1      22.916   9.458  36.913  0.00  0.00    +0.000 A 
ATOM     10  C   UNL     1      23.287   9.188  38.213  0.00  0.00    +0.000 A 
ATOM     11  N   UNL     1      24.645   8.850  38.549  0.00  0.00    +0.000 NA
ATOM     12  C   UNL     1      22.304   9.253  39.179  0.00  0.00    +0.000 A 
ATOM     13  C   UNL     1      20.997   9.578  38.866  0.00  0.00    +0.000 A 
ENDBRANCH   4   7
BRANCH   1  14
ATOM     14  S   UNL     1      16.242  12.613  36.965  0.00  0.00    +0.000 S 
BRANCH  14  15
ATOM     15  C   UNL     1      14.759  12.015  36.093  0.00  0.00    +0.000 C 
BRANCH  15  16
ATOM     16  C   UNL     1      13.714  11.734  37.154  0.00  0.00    +0.000 C 
BRANCH  16  18
ATOM     17  C   UNL     1      11.252  11.480  37.306  0.00  0.00    +0.000 C 
ATOM     18  C   UNL     1      12.381  12.363  36.823  0.00  0.00    +0.000 C 
ENDBRANCH  16  18
ENDBRANCH  15  16
ENDBRANCH  14  15
ENDBRANCH   1  14
TORSDOF 5
ENDMDL
MODEL 5
REMARK VINA RESULT:      -5.4     17.759     19.485
REMARK  Name = 
REMARK  5 active torsions:
REMARK  status: ('A' for Active; 'I' for Inactive)
REMARK    1  A    between atoms: C_2  and  C_3
REMARK    2  A    between atoms: C_3  and  C_4
REMARK    3  A    between atoms: C_4  and  S_5
REMARK    4  A    between atoms: S_5  and  C_6
REMARK    5  A    between atoms: C_9  and  C_10
REMARK                            x       y       z     vdW  Elec       q    Type
REMARK                         _______ _______ _______ _____ _____    ______ ____
ROOT
ATOM      1  C   UNL     1      33.527   1.710  34.714  0.00  0.00    +0.000 A 
ATOM      2  N   UNL     1      33.388   2.171  33.461  0.00  0.00    +0.000 NA
ATOM      3  N   UNL     1      33.759   3.433  33.419  0.00  0.00    +0.000 NA
ATOM      4  C   UNL     1      34.138   3.773  34.662  0.00  0.00    +0.000 A 
ATOM      5  N   UNL     1      33.999   2.716  35.470  0.00  0.00    +0.000 N 
ATOM      6  C   UNL     1      34.300   2.654  36.912  0.00  0.00    +0.000 C 
ENDROOT
BRANCH   4   7
ATOM      7  C   UNL     1      34.616   5.080  35.045  0.00  0.00    +0.000 A 
ATOM      8  C   UNL     1      33.723   6.067  35.398  0.00  0.00    +0.000 A 
ATOM      9  C   UNL     1      34.166   7.331  35.770  0.00  0.00    +0.000 A 
ATOM     10  C   UNL     1      35.510   7.636  35.799  0.00  0.00    +0.000 A 
ATOM     11  N   UNL     1      35.972   8.944  36.186  0.00  0.00    +0.000 NA
ATOM     12  C   UNL     1      36.395   6.640  35.443  0.00  0.00    +0.000 A 
ATOM     13  C   UNL     1      35.961   5.380  35.073  0.00  0.00    +0.000 A 
ENDBRANCH   4   7
BRANCH   1  14
ATOM     14  S   UNL     1      33.177   0.069  35.362  0.00  0.00    +0.000 S 
BRANCH  14  15
ATOM     15  C   UNL     1      34.429  -1.045  34.651  0.00  0.00    +0.000 C 
BRANCH  15  16
ATOM     16  C   UNL     1      33.801  -1.683  33.428  0.00  0.00    +0.000 C 
BRANCH  16  18
ATOM     17  C   UNL     1      34.228  -3.775  34.690  0.00  0.00    +0.000 C 
ATOM     18  C   UNL     1      33.312  -3.085  33.704  0.00  0.00    +0.000 C 
ENDBRANCH  16  18
ENDBRANCH  15  16
ENDBRANCH  14  15
ENDBRANCH   1  14
TORSDOF 5
ENDMDL
MODEL 6
REMARK VINA RESULT:      -5.4     20.909     23.493
REMARK  Name = 
REMARK  5 active torsions:
REMARK  status: ('A' for Active; 'I' for Inactive)
REMARK    1  A    between atoms: C_2  and  C_3
REMARK    2  A    between atoms: C_3  and  C_4
REMARK    3  A    between atoms: C_4  and  S_5
REMARK    4  A    between atoms: S_5  and  C_6
REMARK    5  A    between atoms: C_9  and  C_10
REMARK                            x       y       z     vdW  Elec       q    Type
REMARK                         _______ _______ _______ _____ _____    ______ ____
ROOT
ATOM      1  C   UNL     1      29.143  26.430  20.966  0.00  0.00    +0.000 A 
ATOM      2  N   UNL     1      29.483  25.342  20.257  0.00  0.00    +0.000 NA
ATOM      3  N   UNL     1      29.743  24.350  21.083  0.00  0.00    +0.000 NA
ATOM      4  C   UNL     1      29.563  24.818  22.329  0.00  0.00    +0.000 A 
ATOM      5  N   UNL     1      29.192  26.103  22.268  0.00  0.00    +0.000 N 
ATOM      6  C   UNL     1      28.893  26.995  23.403  0.00  0.00    +0.000 C 
ENDROOT
BRANCH   4   7
ATOM      7  C   UNL     1      29.748  24.042  23.532  0.00  0.00    +0.000 A 
ATOM      8  C   UNL     1      28.662  23.476  24.162  0.00  0.00    +0.000 A 
ATOM      9  C   UNL     1      28.822  22.725  25.321  0.00  0.00    +0.000 A 
ATOM     10  C   UNL     1      30.068  22.522  25.874  0.00  0.00    +0.000 A 
ATOM     11  N   UNL     1      30.237  21.743  27.074  0.00  0.00    +0.000 NA
ATOM     12  C   UNL     1      31.147  23.094  25.234  0.00  0.00    +0.000 A 
ATOM     13  C   UNL     1      30.996  23.842  24.080  0.00  0.00    +0.000 A 
ENDBRANCH   4   7
BRANCH   1  14
ATOM     14  S   UNL     1      28.687  28.068  20.376  0.00  0.00    +0.000 S 
BRANCH  14  15
ATOM     15  C   UNL     1      30.193  28.795  19.658  0.00  0.00    +0.000 C 
BRANCH  15  16
ATOM     16  C   UNL     1      30.278  28.298  18.229  0.00  0.00    +0.000 C 
BRANCH  16  18
ATOM     17  C   UNL     1      32.446  28.576  17.057  0.00  0.00    +0.000 C 
ATOM     18  C   UNL     1      31.613  27.659  17.925  0.00  0.00    +0.000 C 
ENDBRANCH  16  18
ENDBRANCH  15  16
ENDBRANCH  14  15
ENDBRANCH   1  14
TORSDOF 5
ENDMDL
MODEL 7
REMARK VINA RESULT:      -5.4     20.850     23.512
REMARK  Name = 
REMARK  5 active torsions:
REMARK  status: ('A' for Active; 'I' for Inactive)
REMARK    1  A    between atoms: C_2  and  C_3
REMARK    2  A    between atoms: C_3  and  C_4
REMARK    3  A    between atoms: C_4  and  S_5
REMARK    4  A    between atoms: S_5  and  C_6
REMARK    5  A    between atoms: C_9  and  C_10
REMARK                            x       y       z     vdW  Elec       q    Type
REMARK                         _______ _______ _______ _____ _____    ______ ____
ROOT
ATOM      1  C   UNL     1      29.534  26.476  20.669  0.00  0.00    +0.000 A 
ATOM      2  N   UNL     1      29.672  25.301  20.035  0.00  0.00    +0.000 NA
ATOM      3  N   UNL     1      29.671  24.327  20.922  0.00  0.00    +0.000 NA
ATOM      4  C   UNL     1      29.531  24.896  22.131  0.00  0.00    +0.000 A 
ATOM      5  N   UNL     1      29.445  26.224  21.986  0.00  0.00    +0.000 N 
ATOM      6  C   UNL     1      29.285  27.226  23.056  0.00  0.00    +0.000 C 
ENDROOT
BRANCH   4   7
ATOM      7  C   UNL     1      29.484  24.172  23.378  0.00  0.00    +0.000 A 
ATOM      8  C   UNL     1      30.651  23.776  23.992  0.00  0.00    +0.000 A 
ATOM      9  C   UNL     1      30.624  23.078  25.194  0.00  0.00    +0.000 A 
ATOM     10  C   UNL     1      29.431  22.761  25.809  0.00  0.00    +0.000 A 
ATOM     11  N   UNL     1      29.400  22.039  27.055  0.00  0.00    +0.000 NA
ATOM     12  C   UNL     1      28.269  23.163  25.185  0.00  0.00    +0.000 A 
ATOM     13  C   UNL     1      28.289  23.858  23.989  0.00  0.00    +0.000 A 
ENDBRANCH   4   7
BRANCH   1  14
ATOM     14  S   UNL     1      29.468  28.135  19.975  0.00  0.00    +0.000 S 
BRANCH  14  15
ATOM     15  C   UNL     1      30.915  28.294  18.882  0.00  0.00    +0.000 C 
BRANCH  15  16
ATOM     16  C   UNL     1      30.580  27.553  17.604  0.00  0.00    +0.000 C 
BRANCH  16  18
ATOM     17  C   UNL     1      28.979  27.293  15.727  0.00  0.00    +0.000 C 
ATOM     18  C   UNL     1      29.430  28.190  16.859  0.00  0.00    +0.000 C 
ENDBRANCH  16  18
ENDBRANCH  15  16
ENDBRANCH  14  15
ENDBRANCH   1  14
TORSDOF 5
ENDMDL
MODEL 8
REMARK VINA RESULT:      -5.4     19.338     22.849
REMARK  Name = 
REMARK  5 active torsions:
REMARK  status: ('A' for Active; 'I' for Inactive)
REMARK    1  A    between atoms: C_2  and  C_3
REMARK    2  A    between atoms: C_3  and  C_4
REMARK    3  A    between atoms: C_4  and  S_5
REMARK    4  A    between atoms: S_5  and  C_6
REMARK    5  A    between atoms: C_9  and  C_10
REMARK                            x       y       z     vdW  Elec       q    Type
REMARK                         _______ _______ _______ _____ _____    ______ ____
ROOT
ATOM      1  C   UNL     1      26.785  23.828  24.088  0.00  0.00    +0.000 A 
ATOM      2  N   UNL     1      26.517  23.080  23.006  0.00  0.00    +0.000 NA
ATOM      3  N   UNL     1      26.907  23.726  21.926  0.00  0.00    +0.000 NA
ATOM      4  C   UNL     1      27.427  24.895  22.333  0.00  0.00    +0.000 A 
ATOM      5  N   UNL     1      27.357  24.969  23.668  0.00  0.00    +0.000 N 
ATOM      6  C   UNL     1      27.814  26.080  24.521  0.00  0.00    +0.000 C 
ENDROOT
BRANCH   4   7
ATOM      7  C   UNL     1      27.970  25.902  21.453  0.00  0.00    +0.000 A 
ATOM      8  C   UNL     1      29.224  25.739  20.907  0.00  0.00    +0.000 A 
ATOM      9  C   UNL     1      29.762  26.699  20.058  0.00  0.00    +0.000 A 
ATOM     10  C   UNL     1      29.060  27.841  19.734  0.00  0.00    +0.000 A 
ATOM     11  N   UNL     1      29.615  28.836  18.853  0.00  0.00    +0.000 NA
ATOM     12  C   UNL     1      27.806  27.993  20.287  0.00  0.00    +0.000 A 
ATOM     13  C   UNL     1      27.264  27.042  21.132  0.00  0.00    +0.000 A 
ENDBRANCH   4   7
BRANCH   1  14
ATOM     14  S   UNL     1      26.476  23.459  25.822  0.00  0.00    +0.000 S 
BRANCH  14  15
ATOM     15  C   UNL     1      27.797  22.325  26.352  0.00  0.00    +0.000 C 
BRANCH  15  16
ATOM     16  C   UNL     1      29.105  23.074  26.190  0.00  0.00    +0.000 C 
BRANCH  16  18
ATOM     17  C   UNL     1      30.558  23.423  24.211  0.00  0.00    +0.000 C 
ATOM     18  C   UNL     1      30.026  22.406  25.196  0.00  0.00    +0.000 C 
ENDBRANCH  16  18
ENDBRANCH  15  16
ENDBRANCH  14  15
ENDBRANCH   1  14
TORSDOF 5
ENDMDL
MODEL 9
REMARK VINA RESULT:      -5.3     18.019     21.369
REMARK  Name = 
REMARK  5 active torsions:
REMARK  status: ('A' for Active; 'I' for Inactive)
REMARK    1  A    between atoms: C_2  and  C_3
REMARK    2  A    between atoms: C_3  and  C_4
REMARK    3  A    between atoms: C_4  and  S_5
REMARK    4  A    between atoms: S_5  and  C_6
REMARK    5  A    between atoms: C_9  and  C_10
REMARK                            x       y       z     vdW  Elec       q    Type
REMARK                         _______ _______ _______ _____ _____    ______ ____
ROOT
ATOM      1  C   UNL     1      26.372  23.791  26.078  0.00  0.00    +0.000 A 
ATOM      2  N   UNL     1      25.711  23.024  25.196  0.00  0.00    +0.000 NA
ATOM      3  N   UNL     1      26.125  23.308  23.979  0.00  0.00    +0.000 NA
ATOM      4  C   UNL     1      27.059  24.266  24.094  0.00  0.00    +0.000 A 
ATOM      5  N   UNL     1      27.220  24.572  25.387  0.00  0.00    +0.000 N 
ATOM      6  C   UNL     1      28.144  25.570  25.956  0.00  0.00    +0.000 C 
ENDROOT
BRANCH   4   7
ATOM      7  C   UNL     1      27.766  24.860  22.985  0.00  0.00    +0.000 A 
ATOM      8  C   UNL     1      28.795  24.177  22.376  0.00  0.00    +0.000 A 
ATOM      9  C   UNL     1      29.487  24.735  21.307  0.00  0.00    +0.000 A 
ATOM     10  C   UNL     1      29.165  25.984  20.821  0.00  0.00    +0.000 A 
ATOM     11  N   UNL     1      29.879  26.563  19.713  0.00  0.00    +0.000 NA
ATOM     12  C   UNL     1      28.133  26.658  21.440  0.00  0.00    +0.000 A 
ATOM     13  C   UNL     1      27.440  26.110  22.504  0.00  0.00    +0.000 A 
ENDBRANCH   4   7
BRANCH   1  14
ATOM     14  S   UNL     1      26.224  23.839  27.870  0.00  0.00    +0.000 S 
BRANCH  14  15
ATOM     15  C   UNL     1      27.730  23.062  28.533  0.00  0.00    +0.000 C 
BRANCH  15  16
ATOM     16  C   UNL     1      28.232  22.107  27.469  0.00  0.00    +0.000 C 
BRANCH  16  18
ATOM     17  C   UNL     1      29.994  22.290  25.733  0.00  0.00    +0.000 C 
ATOM     18  C   UNL     1      29.715  22.258  27.219  0.00  0.00    +0.000 C 
ENDBRANCH  16  18
ENDBRANCH  15  16
ENDBRANCH  14  15
ENDBRANCH   1  14
TORSDOF 5
ENDMDL
MODEL 10
REMARK VINA RESULT:      -5.3     28.463     31.115
REMARK  Name = 
REMARK  5 active torsions:
REMARK  status: ('A' for Active; 'I' for Inactive)
REMARK    1  A    between atoms: C_2  and  C_3
REMARK    2  A    between atoms: C_3  and  C_4
REMARK    3  A    between atoms: C_4  and  S_5
REMARK    4  A    between atoms: S_5  and  C_6
REMARK    5  A    between atoms: C_9  and  C_10
REMARK                            x       y       z     vdW  Elec       q    Type
REMARK                         _______ _______ _______ _____ _____    ______ ____
ROOT
ATOM      1  C   UNL     1      32.633  20.739   9.517  0.00  0.00    +0.000 A 
ATOM      2  N   UNL     1      32.702  19.915  10.575  0.00  0.00    +0.000 NA
ATOM      3  N   UNL     1      31.785  20.261  11.454  0.00  0.00    +0.000 NA
ATOM      4  C   UNL     1      31.129  21.316  10.944  0.00  0.00    +0.000 A 
ATOM      5  N   UNL     1      31.645  21.620   9.747  0.00  0.00    +0.000 N 
ATOM      6  C   UNL     1      31.220  22.707   8.847  0.00  0.00    +0.000 C 
ENDROOT
BRANCH   4   7
ATOM      7  C   UNL     1      30.041  22.002  11.601  0.00  0.00    +0.000 A 
ATOM      8  C   UNL     1      30.266  22.692  12.770  0.00  0.00    +0.000 A 
ATOM      9  C   UNL     1      29.230  23.358  13.416  0.00  0.00    +0.000 A 
ATOM     10  C   UNL     1      27.949  23.350  12.906  0.00  0.00    +0.000 A 
ATOM     11  N   UNL     1      26.874  24.040  13.572  0.00  0.00    +0.000 NA
ATOM     12  C   UNL     1      27.736  22.654  11.734  0.00  0.00    +0.000 A 
ATOM     13  C   UNL     1      28.762  21.990  11.087  0.00  0.00    +0.000 A 
ENDBRANCH   4   7
BRANCH   1  14
ATOM     14  S   UNL     1      33.631  20.745   8.020  0.00  0.00    +0.000 S 
BRANCH  14  15
ATOM     15  C   UNL     1      34.727  22.194   8.136  0.00  0.00    +0.000 C 
BRANCH  15  16
ATOM     16  C   UNL     1      35.408  22.118   9.488  0.00  0.00    +0.000 C 
BRANCH  16  18
ATOM     17  C   UNL     1      35.350  24.582   9.763  0.00  0.00    +0.000 C 
ATOM     18  C   UNL     1      35.000  23.254  10.397  0.00  0.00    +0.000 C 
ENDBRANCH  16  18
ENDBRANCH  15  16
ENDBRANCH  14  15
ENDBRANCH   1  14
TORSDOF 5
ENDMDL
