MODEL 1
REMARK VINA RESULT:      -7.5      0.000      0.000
REMARK  Name = 
REMARK  3 active torsions:
REMARK  status: ('A' for Active; 'I' for Inactive)
REMARK    1  A    between atoms: C_5  and  N_6
REMARK    2  A    between atoms: C_7  and  C_9
REMARK    3  A    between atoms: C_14  and  N_15
REMARK                            x       y       z     vdW  Elec       q    Type
REMARK                         _______ _______ _______ _____ _____    ______ ____
ROOT
ATOM      1  N   UNL     1      15.410  10.986  35.247  0.00  0.00    +0.000 NA
ATOM      2  C   UNL     1      16.160  11.556  36.308  0.00  0.00    +0.000 C 
ATOM      3  O   UNL     1      16.833  12.593  36.084  0.00  0.00    +0.000 OA
ENDROOT
BRANCH   1   8
ATOM      4  C   UNL     1      15.379  13.473  30.087  0.00  0.00    +0.000 C 
ATOM      5  C   UNL     1      15.384  12.832  31.427  0.00  0.00    +0.000 A 
ATOM      6  C   UNL     1      16.232  11.778  31.699  0.00  0.00    +0.000 A 
ATOM      7  C   UNL     1      16.253  11.166  32.936  0.00  0.00    +0.000 A 
ATOM      8  C   UNL     1      15.425  11.590  33.944  0.00  0.00    +0.000 A 
ATOM      9  C   UNL     1      14.573  12.642  33.685  0.00  0.00    +0.000 A 
ATOM     10  C   UNL     1      14.552  13.254  32.445  0.00  0.00    +0.000 A 
ATOM     11  C   UNL     1      13.632  14.403  32.145  0.00  0.00    +0.000 C 
ENDBRANCH   1   8
BRANCH   2  12
ATOM     12  C   UNL     1      16.137  10.929  37.637  0.00  0.00    +0.000 A 
ATOM     13  C   UNL     1      14.972  10.903  38.374  0.00  0.00    +0.000 A 
ATOM     14  C   UNL     1      14.958  10.311  39.627  0.00  0.00    +0.000 A 
ATOM     15  C   UNL     1      16.096   9.732  40.178  0.00  0.00    +0.000 A 
ATOM     16  C   UNL     1      16.074   9.096  41.526  0.00  0.00    +0.000 C 
ATOM     17  C   UNL     1      17.261   9.757  39.441  0.00  0.00    +0.000 A 
ATOM     18  C   UNL     1      17.261  10.354  38.186  0.00  0.00    +0.000 A 
BRANCH  17  19
ATOM     19  N   UNL     1      18.460   9.181  39.949  0.00  0.00    +0.000 N 
ATOM     20  O   UNL     1      19.287   9.875  40.582  0.00  0.00    +0.000 OA
ATOM     21  O   UNL     1      18.768   7.855  39.777  0.00  0.00    +0.000 OA
ENDBRANCH  17  19
ENDBRANCH   2  12
TORSDOF 3
ENDMDL
MODEL 2
REMARK VINA RESULT:      -7.5      1.711      2.346
REMARK  Name = 
REMARK  3 active torsions:
REMARK  status: ('A' for Active; 'I' for Inactive)
REMARK    1  A    between atoms: C_5  and  N_6
REMARK    2  A    between atoms: C_7  and  C_9
REMARK    3  A    between atoms: C_14  and  N_15
REMARK                            x       y       z     vdW  Elec       q    Type
REMARK                         _______ _______ _______ _____ _____    ______ ____
ROOT
ATOM      1  N   UNL     1      15.657  10.992  35.832  0.00  0.00    +0.000 NA
ATOM      2  C   UNL     1      16.819  11.365  36.555  0.00  0.00    +0.000 C 
ATOM      3  O   UNL     1      17.413  12.426  36.239  0.00  0.00    +0.000 OA
ENDROOT
BRANCH   1   8
ATOM      4  C   UNL     1      13.678  14.355  31.639  0.00  0.00    +0.000 C 
ATOM      5  C   UNL     1      14.189  13.486  32.729  0.00  0.00    +0.000 A 
ATOM      6  C   UNL     1      14.955  12.374  32.442  0.00  0.00    +0.000 A 
ATOM      7  C   UNL     1      15.440  11.552  33.439  0.00  0.00    +0.000 A 
ATOM      8  C   UNL     1      15.175  11.816  34.759  0.00  0.00    +0.000 A 
ATOM      9  C   UNL     1      14.411  12.923  35.059  0.00  0.00    +0.000 A 
ATOM     10  C   UNL     1      13.925  13.747  34.059  0.00  0.00    +0.000 A 
ATOM     11  C   UNL     1      13.093  14.958  34.367  0.00  0.00    +0.000 C 
ENDBRANCH   1   8
BRANCH   2  12
ATOM     12  C   UNL     1      17.302  10.513  37.651  0.00  0.00    +0.000 A 
ATOM     13  C   UNL     1      18.494   9.832  37.529  0.00  0.00    +0.000 A 
ATOM     14  C   UNL     1      18.943   9.029  38.566  0.00  0.00    +0.000 A 
ATOM     15  C   UNL     1      18.222   8.885  39.747  0.00  0.00    +0.000 A 
ATOM     16  C   UNL     1      18.712   8.022  40.859  0.00  0.00    +0.000 C 
ATOM     17  C   UNL     1      17.030   9.568  39.869  0.00  0.00    +0.000 A 
ATOM     18  C   UNL     1      16.592  10.368  38.821  0.00  0.00    +0.000 A 
BRANCH  17  19
ATOM     19  N   UNL     1      16.246   9.462  41.054  0.00  0.00    +0.000 N 
ATOM     20  O   UNL     1      15.162   8.836  41.050  0.00  0.00    +0.000 OA
ATOM     21  O   UNL     1      16.631  10.028  42.242  0.00  0.00    +0.000 OA
ENDBRANCH  17  19
ENDBRANCH   2  12
TORSDOF 3
ENDMDL
MODEL 3
REMARK VINA RESULT:      -7.5      2.569      7.881
REMARK  Name = 
REMARK  3 active torsions:
REMARK  status: ('A' for Active; 'I' for Inactive)
REMARK    1  A    between atoms: C_5  and  N_6
REMARK    2  A    between atoms: C_7  and  C_9
REMARK    3  A    between atoms: C_14  and  N_15
REMARK                            x       y       z     vdW  Elec       q    Type
REMARK                         _______ _______ _______ _____ _____    ______ ____
ROOT
ATOM      1  N   UNL     1      17.019  11.370  37.110  0.00  0.00    +0.000 NA
ATOM      2  C   UNL     1      16.598  10.826  35.869  0.00  0.00    +0.000 C 
ATOM      3  O   UNL     1      16.900   9.637  35.597  0.00  0.00    +0.000 OA
ENDROOT
BRANCH   1   8
ATOM      4  C   UNL     1      19.927   8.151  40.849  0.00  0.00    +0.000 C 
ATOM      5  C   UNL     1      19.169   8.984  39.882  0.00  0.00    +0.000 A 
ATOM      6  C   UNL     1      19.823   9.664  38.875  0.00  0.00    +0.000 A 
ATOM      7  C   UNL     1      19.139  10.444  37.965  0.00  0.00    +0.000 A 
ATOM      8  C   UNL     1      17.774  10.571  38.033  0.00  0.00    +0.000 A 
ATOM      9  C   UNL     1      17.110   9.897  39.034  0.00  0.00    +0.000 A 
ATOM     10  C   UNL     1      17.796   9.115  39.946  0.00  0.00    +0.000 A 
ATOM     11  C   UNL     1      17.088   8.373  41.043  0.00  0.00    +0.000 C 
ENDBRANCH   1   8
BRANCH   2  12
ATOM     12  C   UNL     1      15.824  11.654  34.933  0.00  0.00    +0.000 A 
ATOM     13  C   UNL     1      14.947  12.605  35.407  0.00  0.00    +0.000 A 
ATOM     14  C   UNL     1      14.220  13.382  34.518  0.00  0.00    +0.000 A 
ATOM     15  C   UNL     1      14.346  13.234  33.141  0.00  0.00    +0.000 A 
ATOM     16  C   UNL     1      13.563  14.073  32.191  0.00  0.00    +0.000 C 
ATOM     17  C   UNL     1      15.225  12.283  32.667  0.00  0.00    +0.000 A 
ATOM     18  C   UNL     1      15.947  11.511  33.569  0.00  0.00    +0.000 A 
BRANCH  17  19
ATOM     19  N   UNL     1      15.400  12.083  31.267  0.00  0.00    +0.000 N 
ATOM     20  O   UNL     1      16.321  12.660  30.647  0.00  0.00    +0.000 OA
ATOM     21  O   UNL     1      14.582  11.259  30.536  0.00  0.00    +0.000 OA
ENDBRANCH  17  19
ENDBRANCH   2  12
TORSDOF 3
ENDMDL
MODEL 4
REMARK VINA RESULT:      -7.2      1.621      2.291
REMARK  Name = 
REMARK  3 active torsions:
REMARK  status: ('A' for Active; 'I' for Inactive)
REMARK    1  A    between atoms: C_5  and  N_6
REMARK    2  A    between atoms: C_7  and  C_9
REMARK    3  A    between atoms: C_14  and  N_15
REMARK                            x       y       z     vdW  Elec       q    Type
REMARK                         _______ _______ _______ _____ _____    ______ ____
ROOT
ATOM      1  N   UNL     1      15.832  11.248  35.814  0.00  0.00    +0.000 NA
ATOM      2  C   UNL     1      16.929  11.804  36.521  0.00  0.00    +0.000 C 
ATOM      3  O   UNL     1      17.399  12.905  36.138  0.00  0.00    +0.000 OA
ENDROOT
BRANCH   1   8
ATOM      4  C   UNL     1      13.669  13.914  31.229  0.00  0.00    +0.000 C 
ATOM      5  C   UNL     1      14.232  13.220  32.414  0.00  0.00    +0.000 A 
ATOM      6  C   UNL     1      13.902  13.628  33.691  0.00  0.00    +0.000 A 
ATOM      7  C   UNL     1      14.414  12.998  34.808  0.00  0.00    +0.000 A 
ATOM      8  C   UNL     1      15.274  11.936  34.684  0.00  0.00    +0.000 A 
ATOM      9  C   UNL     1      15.611  11.519  33.414  0.00  0.00    +0.000 A 
ATOM     10  C   UNL     1      15.098  12.151  32.296  0.00  0.00    +0.000 A 
ATOM     11  C   UNL     1      15.453  11.709  30.905  0.00  0.00    +0.000 C 
ENDBRANCH   1   8
BRANCH   2  12
ATOM     12  C   UNL     1      17.490  11.091  37.677  0.00  0.00    +0.000 A 
ATOM     13  C   UNL     1      16.673  10.343  38.497  0.00  0.00    +0.000 A 
ATOM     14  C   UNL     1      17.209   9.674  39.586  0.00  0.00    +0.000 A 
ATOM     15  C   UNL     1      18.566   9.729  39.885  0.00  0.00    +0.000 A 
ATOM     16  C   UNL     1      19.137   9.006  41.057  0.00  0.00    +0.000 C 
ATOM     17  C   UNL     1      19.384  10.476  39.064  0.00  0.00    +0.000 A 
ATOM     18  C   UNL     1      18.833  11.143  37.976  0.00  0.00    +0.000 A 
BRANCH  17  19
ATOM     19  N   UNL     1      20.783  10.573  39.317  0.00  0.00    +0.000 N 
ATOM     20  O   UNL     1      21.246  11.511  40.004  0.00  0.00    +0.000 OA
ATOM     21  O   UNL     1      21.682   9.657  38.832  0.00  0.00    +0.000 OA
ENDBRANCH  17  19
ENDBRANCH   2  12
TORSDOF 3
ENDMDL
MODEL 5
REMARK VINA RESULT:      -6.8      2.757      8.060
REMARK  Name = 
REMARK  3 active torsions:
REMARK  status: ('A' for Active; 'I' for Inactive)
REMARK    1  A    between atoms: C_5  and  N_6
REMARK    2  A    between atoms: C_7  and  C_9
REMARK    3  A    between atoms: C_14  and  N_15
REMARK                            x       y       z     vdW  Elec       q    Type
REMARK                         _______ _______ _______ _____ _____    ______ ____
ROOT
ATOM      1  N   UNL     1      17.788  10.693  35.791  0.00  0.00    +0.000 NA
ATOM      2  C   UNL     1      16.445  11.117  35.625  0.00  0.00    +0.000 C 
ATOM      3  O   UNL     1      15.746  11.326  36.649  0.00  0.00    +0.000 OA
ENDROOT
BRANCH   1   8
ATOM      4  C   UNL     1      19.918   9.834  41.039  0.00  0.00    +0.000 C 
ATOM      5  C   UNL     1      19.365  10.052  39.678  0.00  0.00    +0.000 A 
ATOM      6  C   UNL     1      19.496  11.276  39.053  0.00  0.00    +0.000 A 
ATOM      7  C   UNL     1      18.989  11.501  37.789  0.00  0.00    +0.000 A 
ATOM      8  C   UNL     1      18.332  10.508  37.107  0.00  0.00    +0.000 A 
ATOM      9  C   UNL     1      18.195   9.281  37.721  0.00  0.00    +0.000 A 
ATOM     10  C   UNL     1      18.703   9.056  38.988  0.00  0.00    +0.000 A 
ATOM     11  C   UNL     1      18.563   7.726  39.671  0.00  0.00    +0.000 C 
ENDBRANCH   1   8
BRANCH   2  12
ATOM     12  C   UNL     1      15.900  11.304  34.273  0.00  0.00    +0.000 A 
ATOM     13  C   UNL     1      15.993  10.295  33.339  0.00  0.00    +0.000 A 
ATOM     14  C   UNL     1      15.477  10.478  32.066  0.00  0.00    +0.000 A 
ATOM     15  C   UNL     1      14.858  11.665  31.690  0.00  0.00    +0.000 A 
ATOM     16  C   UNL     1      14.304  11.856  30.319  0.00  0.00    +0.000 C 
ATOM     17  C   UNL     1      14.764  12.675  32.624  0.00  0.00    +0.000 A 
ATOM     18  C   UNL     1      15.286  12.477  33.897  0.00  0.00    +0.000 A 
BRANCH  17  19
ATOM     19  N   UNL     1      14.141  13.915  32.300  0.00  0.00    +0.000 N 
ATOM     20  O   UNL     1      13.167  14.336  32.964  0.00  0.00    +0.000 OA
ATOM     21  O   UNL     1      14.569  14.701  31.261  0.00  0.00    +0.000 OA
ENDBRANCH  17  19
ENDBRANCH   2  12
TORSDOF 3
ENDMDL
MODEL 6
REMARK VINA RESULT:      -6.8      1.830      2.741
REMARK  Name = 
REMARK  3 active torsions:
REMARK  status: ('A' for Active; 'I' for Inactive)
REMARK    1  A    between atoms: C_5  and  N_6
REMARK    2  A    between atoms: C_7  and  C_9
REMARK    3  A    between atoms: C_14  and  N_15
REMARK                            x       y       z     vdW  Elec       q    Type
REMARK                         _______ _______ _______ _____ _____    ______ ____
ROOT
ATOM      1  N   UNL     1      16.746  10.818  36.048  0.00  0.00    +0.000 NA
ATOM      2  C   UNL     1      17.567  11.589  36.910  0.00  0.00    +0.000 C 
ATOM      3  O   UNL     1      17.650  12.828  36.716  0.00  0.00    +0.000 OA
ENDROOT
BRANCH   1   8
ATOM      4  C   UNL     1      13.944  13.266  31.693  0.00  0.00    +0.000 C 
ATOM      5  C   UNL     1      14.673  12.629  32.819  0.00  0.00    +0.000 A 
ATOM      6  C   UNL     1      14.355  12.936  34.126  0.00  0.00    +0.000 A 
ATOM      7  C   UNL     1      15.019  12.356  35.189  0.00  0.00    +0.000 A 
ATOM      8  C   UNL     1      16.026  11.448  34.977  0.00  0.00    +0.000 A 
ATOM      9  C   UNL     1      16.353  11.133  33.676  0.00  0.00    +0.000 A 
ATOM     10  C   UNL     1      15.687  11.715  32.612  0.00  0.00    +0.000 A 
ATOM     11  C   UNL     1      16.029  11.383  31.188  0.00  0.00    +0.000 C 
ENDBRANCH   1   8
BRANCH   2  12
ATOM     12  C   UNL     1      18.298  10.933  38.003  0.00  0.00    +0.000 A 
ATOM     13  C   UNL     1      19.423  11.521  38.539  0.00  0.00    +0.000 A 
ATOM     14  C   UNL     1      20.108  10.896  39.570  0.00  0.00    +0.000 A 
ATOM     15  C   UNL     1      19.694   9.675  40.091  0.00  0.00    +0.000 A 
ATOM     16  C   UNL     1      20.434   9.008  41.199  0.00  0.00    +0.000 C 
ATOM     17  C   UNL     1      18.568   9.087  39.554  0.00  0.00    +0.000 A 
ATOM     18  C   UNL     1      17.891   9.724  38.521  0.00  0.00    +0.000 A 
BRANCH  17  19
ATOM     19  N   UNL     1      18.092   7.836  40.045  0.00  0.00    +0.000 N 
ATOM     20  O   UNL     1      17.129   7.785  40.842  0.00  0.00    +0.000 OA
ATOM     21  O   UNL     1      18.655   6.641  39.675  0.00  0.00    +0.000 OA
ENDBRANCH  17  19
ENDBRANCH   2  12
TORSDOF 3
ENDMDL
MODEL 7
REMARK VINA RESULT:      -6.7     20.161     21.909
REMARK  Name = 
REMARK  3 active torsions:
REMARK  status: ('A' for Active; 'I' for Inactive)
REMARK    1  A    between atoms: C_5  and  N_6
REMARK    2  A    between atoms: C_7  and  C_9
REMARK    3  A    between atoms: C_14  and  N_15
REMARK                            x       y       z     vdW  Elec       q    Type
REMARK                         _______ _______ _______ _____ _____    ______ ____
ROOT
ATOM      1  N   UNL     1      33.779  -0.279  33.909  0.00  0.00    +0.000 NA
ATOM      2  C   UNL     1      32.761  -1.070  34.501  0.00  0.00    +0.000 C 
ATOM      3  O   UNL     1      31.859  -0.496  35.162  0.00  0.00    +0.000 OA
ENDROOT
BRANCH   1   8
ATOM      4  C   UNL     1      33.771   5.399  34.659  0.00  0.00    +0.000 C 
ATOM      5  C   UNL     1      33.774   3.927  34.469  0.00  0.00    +0.000 A 
ATOM      6  C   UNL     1      33.618   3.379  33.212  0.00  0.00    +0.000 A 
ATOM      7  C   UNL     1      33.617   2.013  33.012  0.00  0.00    +0.000 A 
ATOM      8  C   UNL     1      33.772   1.148  34.066  0.00  0.00    +0.000 A 
ATOM      9  C   UNL     1      33.929   1.683  35.326  0.00  0.00    +0.000 A 
ATOM     10  C   UNL     1      33.930   3.051  35.526  0.00  0.00    +0.000 A 
ATOM     11  C   UNL     1      34.100   3.652  36.892  0.00  0.00    +0.000 C 
ENDBRANCH   1   8
BRANCH   2  12
ATOM     12  C   UNL     1      32.778  -2.529  34.333  0.00  0.00    +0.000 A 
ATOM     13  C   UNL     1      32.165  -3.345  35.260  0.00  0.00    +0.000 A 
ATOM     14  C   UNL     1      32.186  -4.721  35.095  0.00  0.00    +0.000 A 
ATOM     15  C   UNL     1      32.814  -5.319  34.008  0.00  0.00    +0.000 A 
ATOM     16  C   UNL     1      32.832  -6.799  33.835  0.00  0.00    +0.000 C 
ATOM     17  C   UNL     1      33.427  -4.504  33.080  0.00  0.00    +0.000 A 
ATOM     18  C   UNL     1      33.398  -3.126  33.258  0.00  0.00    +0.000 A 
BRANCH  17  19
ATOM     19  N   UNL     1      34.087  -5.056  31.944  0.00  0.00    +0.000 N 
ATOM     20  O   UNL     1      33.533  -5.065  30.822  0.00  0.00    +0.000 OA
ATOM     21  O   UNL     1      35.345  -5.597  32.019  0.00  0.00    +0.000 OA
ENDBRANCH  17  19
ENDBRANCH   2  12
TORSDOF 3
ENDMDL
MODEL 8
REMARK VINA RESULT:      -6.6     18.771     20.002
REMARK  Name = 
REMARK  3 active torsions:
REMARK  status: ('A' for Active; 'I' for Inactive)
REMARK    1  A    between atoms: C_5  and  N_6
REMARK    2  A    between atoms: C_7  and  C_9
REMARK    3  A    between atoms: C_14  and  N_15
REMARK                            x       y       z     vdW  Elec       q    Type
REMARK                         _______ _______ _______ _____ _____    ______ ____
ROOT
ATOM      1  N   UNL     1      34.810   5.474  35.722  0.00  0.00    +0.000 NA
ATOM      2  C   UNL     1      33.786   4.980  34.874  0.00  0.00    +0.000 C 
ATOM      3  O   UNL     1      32.889   5.770  34.486  0.00  0.00    +0.000 OA
ENDROOT
BRANCH   1   8
ATOM      4  C   UNL     1      34.907  10.997  37.237  0.00  0.00    +0.000 C 
ATOM      5  C   UNL     1      34.885   9.566  36.840  0.00  0.00    +0.000 A 
ATOM      6  C   UNL     1      34.143   8.649  37.557  0.00  0.00    +0.000 A 
ATOM      7  C   UNL     1      34.107   7.314  37.207  0.00  0.00    +0.000 A 
ATOM      8  C   UNL     1      34.815   6.852  36.126  0.00  0.00    +0.000 A 
ATOM      9  C   UNL     1      35.560   7.758  35.402  0.00  0.00    +0.000 A 
ATOM     10  C   UNL     1      35.595   9.095  35.754  0.00  0.00    +0.000 A 
ATOM     11  C   UNL     1      36.400  10.097  34.976  0.00  0.00    +0.000 C 
ENDBRANCH   1   8
BRANCH   2  12
ATOM     12  C   UNL     1      33.792   3.568  34.467  0.00  0.00    +0.000 A 
ATOM     13  C   UNL     1      33.800   3.228  33.132  0.00  0.00    +0.000 A 
ATOM     14  C   UNL     1      33.805   1.894  32.755  0.00  0.00    +0.000 A 
ATOM     15  C   UNL     1      33.802   0.867  33.693  0.00  0.00    +0.000 A 
ATOM     16  C   UNL     1      33.809  -0.565  33.282  0.00  0.00    +0.000 C 
ATOM     17  C   UNL     1      33.795   1.207  35.030  0.00  0.00    +0.000 A 
ATOM     18  C   UNL     1      33.789   2.549  35.393  0.00  0.00    +0.000 A 
BRANCH  17  19
ATOM     19  N   UNL     1      33.792   0.202  36.039  0.00  0.00    +0.000 N 
ATOM     20  O   UNL     1      34.865  -0.223  36.524  0.00  0.00    +0.000 OA
ATOM     21  O   UNL     1      32.632  -0.345  36.527  0.00  0.00    +0.000 OA
ENDBRANCH  17  19
ENDBRANCH   2  12
TORSDOF 3
ENDMDL
MODEL 9
REMARK VINA RESULT:      -6.6     19.633     21.442
REMARK  Name = 
REMARK  3 active torsions:
REMARK  status: ('A' for Active; 'I' for Inactive)
REMARK    1  A    between atoms: C_5  and  N_6
REMARK    2  A    between atoms: C_7  and  C_9
REMARK    3  A    between atoms: C_14  and  N_15
REMARK                            x       y       z     vdW  Elec       q    Type
REMARK                         _______ _______ _______ _____ _____    ______ ____
ROOT
ATOM      1  N   UNL     1      33.737  -0.136  33.943  0.00  0.00    +0.000 NA
ATOM      2  C   UNL     1      32.762  -0.971  34.545  0.00  0.00    +0.000 C 
ATOM      3  O   UNL     1      31.867  -0.442  35.252  0.00  0.00    +0.000 OA
ENDROOT
BRANCH   1   8
ATOM      4  C   UNL     1      33.606   5.517  34.859  0.00  0.00    +0.000 C 
ATOM      5  C   UNL     1      33.641   4.051  34.626  0.00  0.00    +0.000 A 
ATOM      6  C   UNL     1      33.409   3.533  33.368  0.00  0.00    +0.000 A 
ATOM      7  C   UNL     1      33.436   2.173  33.129  0.00  0.00    +0.000 A 
ATOM      8  C   UNL     1      33.697   1.286  34.142  0.00  0.00    +0.000 A 
ATOM      9  C   UNL     1      33.931   1.791  35.403  0.00  0.00    +0.000 A 
ATOM     10  C   UNL     1      33.903   3.153  35.642  0.00  0.00    +0.000 A 
ATOM     11  C   UNL     1      34.157   3.722  37.009  0.00  0.00    +0.000 C 
ENDBRANCH   1   8
BRANCH   2  12
ATOM     12  C   UNL     1      32.813  -2.424  34.333  0.00  0.00    +0.000 A 
ATOM     13  C   UNL     1      33.585  -2.953  33.322  0.00  0.00    +0.000 A 
ATOM     14  C   UNL     1      33.628  -4.325  33.127  0.00  0.00    +0.000 A 
ATOM     15  C   UNL     1      32.907  -5.203  33.930  0.00  0.00    +0.000 A 
ATOM     16  C   UNL     1      32.959  -6.676  33.716  0.00  0.00    +0.000 C 
ATOM     17  C   UNL     1      32.135  -4.673  34.942  0.00  0.00    +0.000 A 
ATOM     18  C   UNL     1      32.101  -3.296  35.125  0.00  0.00    +0.000 A 
BRANCH  17  19
ATOM     19  N   UNL     1      31.373  -5.519  35.799  0.00  0.00    +0.000 N 
ATOM     20  O   UNL     1      31.740  -5.737  36.975  0.00  0.00    +0.000 OA
ATOM     21  O   UNL     1      30.215  -6.129  35.387  0.00  0.00    +0.000 OA
ENDBRANCH  17  19
ENDBRANCH   2  12
TORSDOF 3
ENDMDL
MODEL 10
REMARK VINA RESULT:      -6.5      2.179      2.896
REMARK  Name = 
REMARK  3 active torsions:
REMARK  status: ('A' for Active; 'I' for Inactive)
REMARK    1  A    between atoms: C_5  and  N_6
REMARK    2  A    between atoms: C_7  and  C_9
REMARK    3  A    between atoms: C_14  and  N_15
REMARK                            x       y       z     vdW  Elec       q    Type
REMARK                         _______ _______ _______ _____ _____    ______ ____
ROOT
ATOM      1  N   UNL     1      17.185   9.943  36.517  0.00  0.00    +0.000 NA
ATOM      2  C   UNL     1      17.987  10.677  37.427  0.00  0.00    +0.000 C 
ATOM      3  O   UNL     1      18.192  11.897  37.204  0.00  0.00    +0.000 OA
ENDROOT
BRANCH   1   8
ATOM      4  C   UNL     1      14.865  12.585  31.995  0.00  0.00    +0.000 C 
ATOM      5  C   UNL     1      15.464  11.903  33.170  0.00  0.00    +0.000 A 
ATOM      6  C   UNL     1      16.420  10.922  33.003  0.00  0.00    +0.000 A 
ATOM      7  C   UNL     1      16.990  10.275  34.080  0.00  0.00    +0.000 A 
ATOM      8  C   UNL     1      16.621  10.588  35.364  0.00  0.00    +0.000 A 
ATOM      9  C   UNL     1      15.666  11.565  35.545  0.00  0.00    +0.000 A 
ATOM     10  C   UNL     1      15.096  12.214  34.465  0.00  0.00    +0.000 A 
ATOM     11  C   UNL     1      14.055  13.282  34.643  0.00  0.00    +0.000 C 
ENDBRANCH   1   8
BRANCH   2  12
ATOM     12  C   UNL     1      18.558  10.006  38.604  0.00  0.00    +0.000 A 
ATOM     13  C   UNL     1      19.449  10.669  39.419  0.00  0.00    +0.000 A 
ATOM     14  C   UNL     1      19.984  10.030  40.527  0.00  0.00    +0.000 A 
ATOM     15  C   UNL     1      19.648   8.720  40.851  0.00  0.00    +0.000 A 
ATOM     16  C   UNL     1      20.225   8.038  42.043  0.00  0.00    +0.000 C 
ATOM     17  C   UNL     1      18.755   8.057  40.035  0.00  0.00    +0.000 A 
ATOM     18  C   UNL     1      18.227   8.710  38.928  0.00  0.00    +0.000 A 
BRANCH  17  19
ATOM     19  N   UNL     1      18.371   6.713  40.313  0.00  0.00    +0.000 N 
ATOM     20  O   UNL     1      17.338   6.466  40.976  0.00  0.00    +0.000 OA
ATOM     21  O   UNL     1      19.099   5.636  39.875  0.00  0.00    +0.000 OA
ENDBRANCH  17  19
ENDBRANCH   2  12
TORSDOF 3
ENDMDL
