MODEL 1
REMARK VINA RESULT:      -6.8      0.000      0.000
REMARK  Name = 
REMARK  6 active torsions:
REMARK  status: ('A' for Active; 'I' for Inactive)
REMARK    1  A    between atoms: C_6  and  C_7
REMARK    2  A    between atoms: C_7  and  O_9
REMARK    3  A    between atoms: C_11  and  C_12
REMARK    4  A    between atoms: N_14  and  C_15
REMARK    5  A    between atoms: C_22  and  C_23
REMARK    6  A    between atoms: C_29  and  O_31
REMARK                            x       y       z     vdW  Elec       q    Type
REMARK                         _______ _______ _______ _____ _____    ______ ____
ROOT
ATOM      1  C   UNL     1      22.178  15.713  40.939  0.00  0.00    +0.000 C 
ATOM      2  C   UNL     1      23.425  15.280  41.073  0.00  0.00    +0.000 C 
ATOM      3  N   UNL     1      23.887  14.359  42.062  0.00  0.00    +0.000 NA
ATOM      4  C   UNL     1      25.126  14.085  42.076  0.00  0.00    +0.000 C 
ATOM      5  C   UNL     1      25.652  13.149  43.096  0.00  0.00    +0.000 C 
ATOM      6  C   UNL     1      26.186  14.522  41.063  0.00  0.00    +0.000 C 
ATOM      7  C   UNL     1      25.354  14.541  39.674  0.00  0.00    +0.000 C 
ATOM      8  C   UNL     1      24.483  15.787  40.214  0.00  0.00    +0.000 C 
ATOM      9  C   UNL     1      24.652  17.001  39.978  0.00  0.00    +0.000 C 
ATOM     10  O   UNL     1      25.643  17.467  39.191  0.00  0.00    +0.000 OA
ENDROOT
BRANCH   7  11
ATOM     11  C   UNL     1      26.125  15.185  38.560  0.00  0.00    +0.000 A 
ATOM     12  C   UNL     1      25.359  15.232  37.359  0.00  0.00    +0.000 A 
ATOM     13  N   UNL     1      26.140  15.455  36.343  0.00  0.00    +0.000 N 
ATOM     14  N   UNL     1      27.354  15.565  36.770  0.00  0.00    +0.000 NA
ATOM     15  C   UNL     1      27.349  15.404  38.139  0.00  0.00    +0.000 A 
BRANCH  13  16
ATOM     16  C   UNL     1      25.719  15.558  34.970  0.00  0.00    +0.000 A 
ATOM     17  C   UNL     1      25.768  14.476  34.127  0.00  0.00    +0.000 A 
ATOM     18  C   UNL     1      25.377  14.535  32.800  0.00  0.00    +0.000 A 
ATOM     19  C   UNL     1      24.918  15.730  32.299  0.00  0.00    +0.000 A 
ATOM     20  C   UNL     1      24.866  16.839  33.154  0.00  0.00    +0.000 A 
ATOM     21  C   UNL     1      25.259  16.764  34.473  0.00  0.00    +0.000 A 
ENDBRANCH  13  16
BRANCH  15  22
ATOM     22  C   UNL     1      28.552  15.657  38.931  0.00  0.00    +0.000 A 
ATOM     23  C   UNL     1      29.662  14.867  38.823  0.00  0.00    +0.000 A 
ATOM     24  C   UNL     1      30.692  15.134  39.606  0.00  0.00    +0.000 A 
ATOM     25  C   UNL     1      30.589  16.181  40.476  0.00  0.00    +0.000 A 
ATOM     26  S   UNL     1      29.019  16.739  40.135  0.00  0.00    +0.000 S 
ENDBRANCH  15  22
ENDBRANCH   7  11
BRANCH   6  27
ATOM     27  C   UNL     1      26.871  13.129  40.930  0.00  0.00    +0.000 C 
ATOM     28  O   UNL     1      26.258  12.138  40.508  0.00  0.00    +0.000 OA
BRANCH  27  29
ATOM     29  O   UNL     1      28.200  12.980  41.293  0.00  0.00    +0.000 OA
ATOM     30  C   UNL     1      28.938  11.810  40.905  0.00  0.00    +0.000 C 
ENDBRANCH  27  29
ENDBRANCH   6  27
BRANCH   9  31
ATOM     31  O   UNL     1      23.722  17.913  40.591  0.00  0.00    +0.000 OA
ATOM     32  C   UNL     1      23.405  19.000  39.702  0.00  0.00    +0.000 C 
ENDBRANCH   9  31
TORSDOF 6
ENDMDL
MODEL 2
REMARK VINA RESULT:      -6.7     25.405     29.149
REMARK  Name = 
REMARK  6 active torsions:
REMARK  status: ('A' for Active; 'I' for Inactive)
REMARK    1  A    between atoms: C_6  and  C_7
REMARK    2  A    between atoms: C_7  and  O_9
REMARK    3  A    between atoms: C_11  and  C_12
REMARK    4  A    between atoms: N_14  and  C_15
REMARK    5  A    between atoms: C_22  and  C_23
REMARK    6  A    between atoms: C_29  and  O_31
REMARK                            x       y       z     vdW  Elec       q    Type
REMARK                         _______ _______ _______ _____ _____    ______ ____
ROOT
ATOM      1  C   UNL     1      38.233   4.926  11.431  0.00  0.00    +0.000 C 
ATOM      2  C   UNL     1      38.131   3.821  12.157  0.00  0.00    +0.000 C 
ATOM      3  N   UNL     1      38.527   2.512  11.744  0.00  0.00    +0.000 NA
ATOM      4  C   UNL     1      38.317   1.554  12.550  0.00  0.00    +0.000 C 
ATOM      5  C   UNL     1      38.696   0.177  12.156  0.00  0.00    +0.000 C 
ATOM      6  C   UNL     1      37.808   1.644  13.990  0.00  0.00    +0.000 C 
ATOM      7  C   UNL     1      38.458   3.036  14.503  0.00  0.00    +0.000 C 
ATOM      8  C   UNL     1      37.520   3.852  13.476  0.00  0.00    +0.000 C 
ATOM      9  C   UNL     1      36.435   4.423  13.715  0.00  0.00    +0.000 C 
ATOM     10  O   UNL     1      35.865   4.438  14.937  0.00  0.00    +0.000 OA
ENDROOT
BRANCH   7  11
ATOM     11  C   UNL     1      37.895   3.472  15.823  0.00  0.00    +0.000 A 
ATOM     12  C   UNL     1      38.527   4.662  16.288  0.00  0.00    +0.000 A 
ATOM     13  N   UNL     1      38.291   4.823  17.557  0.00  0.00    +0.000 N 
ATOM     14  N   UNL     1      37.556   3.845  17.969  0.00  0.00    +0.000 NA
ATOM     15  C   UNL     1      37.304   3.011  16.901  0.00  0.00    +0.000 A 
BRANCH  13  16
ATOM     16  C   UNL     1      38.777   5.910  18.368  0.00  0.00    +0.000 A 
ATOM     17  C   UNL     1      38.169   7.140  18.348  0.00  0.00    +0.000 A 
ATOM     18  C   UNL     1      38.608   8.211  19.109  0.00  0.00    +0.000 A 
ATOM     19  C   UNL     1      39.702   8.038  19.922  0.00  0.00    +0.000 A 
ATOM     20  C   UNL     1      40.328   6.785  19.947  0.00  0.00    +0.000 A 
ATOM     21  C   UNL     1      39.879   5.729  19.183  0.00  0.00    +0.000 A 
ENDBRANCH  13  16
BRANCH  15  22
ATOM     22  C   UNL     1      36.346   1.912  17.012  0.00  0.00    +0.000 A 
ATOM     23  C   UNL     1      36.447   0.969  17.996  0.00  0.00    +0.000 A 
ATOM     24  C   UNL     1      35.567  -0.017  18.002  0.00  0.00    +0.000 A 
ATOM     25  C   UNL     1      34.612  -0.038  17.028  0.00  0.00    +0.000 A 
ATOM     26  S   UNL     1      35.013   1.358  16.144  0.00  0.00    +0.000 S 
ENDBRANCH  15  22
ENDBRANCH   7  11
BRANCH   6  27
ATOM     27  C   UNL     1      38.839   0.645  14.593  0.00  0.00    +0.000 C 
ATOM     28  O   UNL     1      40.056   0.877  14.583  0.00  0.00    +0.000 OA
BRANCH  27  29
ATOM     29  O   UNL     1      38.396  -0.542  15.157  0.00  0.00    +0.000 OA
ATOM     30  C   UNL     1      39.309  -1.625  15.394  0.00  0.00    +0.000 C 
ENDBRANCH  27  29
ENDBRANCH   6  27
BRANCH   9  31
ATOM     31  O   UNL     1      35.797   5.085  12.608  0.00  0.00    +0.000 OA
ATOM     32  C   UNL     1      34.999   6.194  13.062  0.00  0.00    +0.000 C 
ENDBRANCH   9  31
TORSDOF 6
ENDMDL
MODEL 3
REMARK VINA RESULT:      -6.7     28.199     31.586
REMARK  Name = 
REMARK  6 active torsions:
REMARK  status: ('A' for Active; 'I' for Inactive)
REMARK    1  A    between atoms: C_6  and  C_7
REMARK    2  A    between atoms: C_7  and  O_9
REMARK    3  A    between atoms: C_11  and  C_12
REMARK    4  A    between atoms: N_14  and  C_15
REMARK    5  A    between atoms: C_22  and  C_23
REMARK    6  A    between atoms: C_29  and  O_31
REMARK                            x       y       z     vdW  Elec       q    Type
REMARK                         _______ _______ _______ _____ _____    ______ ____
ROOT
ATOM      1  C   UNL     1      34.923   2.128  16.575  0.00  0.00    +0.000 C 
ATOM      2  C   UNL     1      35.652   1.043  16.357  0.00  0.00    +0.000 C 
ATOM      3  N   UNL     1      35.532  -0.198  17.054  0.00  0.00    +0.000 NA
ATOM      4  C   UNL     1      36.344  -1.125  16.748  0.00  0.00    +0.000 C 
ATOM      5  C   UNL     1      36.266  -2.422  17.457  0.00  0.00    +0.000 C 
ATOM      6  C   UNL     1      37.367  -1.126  15.610  0.00  0.00    +0.000 C 
ATOM      7  C   UNL     1      36.615  -0.266  14.463  0.00  0.00    +0.000 C 
ATOM      8  C   UNL     1      36.729   1.056  15.380  0.00  0.00    +0.000 C 
ATOM      9  C   UNL     1      37.585   1.963  15.314  0.00  0.00    +0.000 C 
ATOM     10  O   UNL     1      38.589   1.964  14.415  0.00  0.00    +0.000 OA
ENDROOT
BRANCH   7  11
ATOM     11  C   UNL     1      37.529   0.086  13.328  0.00  0.00    +0.000 A 
ATOM     12  C   UNL     1      36.904   0.989  12.420  0.00  0.00    +0.000 A 
ATOM     13  N   UNL     1      37.550   1.003  11.291  0.00  0.00    +0.000 N 
ATOM     14  N   UNL     1      38.550   0.191  11.376  0.00  0.00    +0.000 NA
ATOM     15  C   UNL     1      38.545  -0.374  12.634  0.00  0.00    +0.000 A 
BRANCH  13  16
ATOM     16  C   UNL     1      37.203   1.790  10.136  0.00  0.00    +0.000 A 
ATOM     17  C   UNL     1      37.059   3.152  10.220  0.00  0.00    +0.000 A 
ATOM     18  C   UNL     1      36.722   3.944   9.134  0.00  0.00    +0.000 A 
ATOM     19  C   UNL     1      36.520   3.341   7.915  0.00  0.00    +0.000 A 
ATOM     20  C   UNL     1      36.664   1.951   7.823  0.00  0.00    +0.000 A 
ATOM     21  C   UNL     1      37.000   1.177   8.913  0.00  0.00    +0.000 A 
ENDBRANCH  13  16
BRANCH  15  22
ATOM     22  C   UNL     1      39.661  -1.199  13.095  0.00  0.00    +0.000 A 
ATOM     23  C   UNL     1      40.512  -0.770  14.075  0.00  0.00    +0.000 A 
ATOM     24  C   UNL     1      41.523  -1.555  14.404  0.00  0.00    +0.000 A 
ATOM     25  C   UNL     1      41.659  -2.744  13.749  0.00  0.00    +0.000 A 
ATOM     26  S   UNL     1      40.332  -2.689  12.687  0.00  0.00    +0.000 S 
ENDBRANCH  15  22
ENDBRANCH   7  11
BRANCH   6  27
ATOM     27  C   UNL     1      37.048  -2.563  15.102  0.00  0.00    +0.000 C 
ATOM     28  O   UNL     1      37.872  -3.484  15.188  0.00  0.00    +0.000 OA
BRANCH  27  29
ATOM     29  O   UNL     1      35.812  -2.832  14.534  0.00  0.00    +0.000 OA
ATOM     30  C   UNL     1      35.256  -4.156  14.584  0.00  0.00    +0.000 C 
ENDBRANCH  27  29
ENDBRANCH   6  27
BRANCH   9  31
ATOM     31  O   UNL     1      37.455   3.041  16.260  0.00  0.00    +0.000 OA
ATOM     32  C   UNL     1      38.411   4.082  15.988  0.00  0.00    +0.000 C 
ENDBRANCH   9  31
TORSDOF 6
ENDMDL
MODEL 4
REMARK VINA RESULT:      -6.5     25.637     29.419
REMARK  Name = 
REMARK  6 active torsions:
REMARK  status: ('A' for Active; 'I' for Inactive)
REMARK    1  A    between atoms: C_6  and  C_7
REMARK    2  A    between atoms: C_7  and  O_9
REMARK    3  A    between atoms: C_11  and  C_12
REMARK    4  A    between atoms: N_14  and  C_15
REMARK    5  A    between atoms: C_22  and  C_23
REMARK    6  A    between atoms: C_29  and  O_31
REMARK                            x       y       z     vdW  Elec       q    Type
REMARK                         _______ _______ _______ _____ _____    ______ ____
ROOT
ATOM      1  C   UNL     1      39.000   5.856  11.284  0.00  0.00    +0.000 C 
ATOM      2  C   UNL     1      38.653   4.733  11.899  0.00  0.00    +0.000 C 
ATOM      3  N   UNL     1      38.712   3.421  11.338  0.00  0.00    +0.000 NA
ATOM      4  C   UNL     1      38.297   2.457  12.052  0.00  0.00    +0.000 C 
ATOM      5  C   UNL     1      38.323   1.082  11.503  0.00  0.00    +0.000 C 
ATOM      6  C   UNL     1      37.860   2.508  13.518  0.00  0.00    +0.000 C 
ATOM      7  C   UNL     1      38.839   3.641  14.134  0.00  0.00    +0.000 C 
ATOM      8  C   UNL     1      38.099   4.764  13.243  0.00  0.00    +0.000 C 
ATOM      9  C   UNL     1      37.190   5.545  13.593  0.00  0.00    +0.000 C 
ATOM     10  O   UNL     1      36.671   5.560  14.837  0.00  0.00    +0.000 OA
ENDROOT
BRANCH   7  11
ATOM     11  C   UNL     1      38.429   4.051  15.518  0.00  0.00    +0.000 A 
ATOM     12  C   UNL     1      39.338   5.001  16.067  0.00  0.00    +0.000 A 
ATOM     13  N   UNL     1      39.181   5.073  17.356  0.00  0.00    +0.000 N 
ATOM     14  N   UNL     1      38.244   4.256  17.705  0.00  0.00    +0.000 NA
ATOM     15  C   UNL     1      37.773   3.626  16.573  0.00  0.00    +0.000 A 
BRANCH  13  16
ATOM     16  C   UNL     1      39.932   5.921  18.246  0.00  0.00    +0.000 A 
ATOM     17  C   UNL     1      41.228   6.273  17.968  0.00  0.00    +0.000 A 
ATOM     18  C   UNL     1      41.985   7.082  18.800  0.00  0.00    +0.000 A 
ATOM     19  C   UNL     1      41.416   7.555  19.958  0.00  0.00    +0.000 A 
ATOM     20  C   UNL     1      40.092   7.198  20.249  0.00  0.00    +0.000 A 
ATOM     21  C   UNL     1      39.352   6.392  19.410  0.00  0.00    +0.000 A 
ENDBRANCH  13  16
BRANCH  15  22
ATOM     22  C   UNL     1      36.583   2.777  16.623  0.00  0.00    +0.000 A 
ATOM     23  C   UNL     1      36.541   1.646  17.389  0.00  0.00    +0.000 A 
ATOM     24  C   UNL     1      35.445   0.909  17.344  0.00  0.00    +0.000 A 
ATOM     25  C   UNL     1      34.422   1.318  16.539  0.00  0.00    +0.000 A 
ATOM     26  S   UNL     1      35.072   2.742  15.878  0.00  0.00    +0.000 S 
ENDBRANCH  15  22
ENDBRANCH   7  11
BRANCH   6  27
ATOM     27  C   UNL     1      38.634   1.232  13.965  0.00  0.00    +0.000 C 
ATOM     28  O   UNL     1      38.045   0.199  14.311  0.00  0.00    +0.000 OA
BRANCH  27  29
ATOM     29  O   UNL     1      40.020   1.241  13.982  0.00  0.00    +0.000 OA
ATOM     30  C   UNL     1      40.758   0.020  14.151  0.00  0.00    +0.000 C 
ENDBRANCH  27  29
ENDBRANCH   6  27
BRANCH   9  31
ATOM     31  O   UNL     1      36.703   6.457  12.591  0.00  0.00    +0.000 OA
ATOM     32  C   UNL     1      35.265   6.464  12.556  0.00  0.00    +0.000 C 
ENDBRANCH   9  31
TORSDOF 6
ENDMDL
MODEL 5
REMARK VINA RESULT:      -5.9     24.864     28.515
REMARK  Name = 
REMARK  6 active torsions:
REMARK  status: ('A' for Active; 'I' for Inactive)
REMARK    1  A    between atoms: C_6  and  C_7
REMARK    2  A    between atoms: C_7  and  O_9
REMARK    3  A    between atoms: C_11  and  C_12
REMARK    4  A    between atoms: N_14  and  C_15
REMARK    5  A    between atoms: C_22  and  C_23
REMARK    6  A    between atoms: C_29  and  O_31
REMARK                            x       y       z     vdW  Elec       q    Type
REMARK                         _______ _______ _______ _____ _____    ______ ____
ROOT
ATOM      1  C   UNL     1      37.480   6.286  11.158  0.00  0.00    +0.000 C 
ATOM      2  C   UNL     1      37.721   6.787  12.362  0.00  0.00    +0.000 C 
ATOM      3  N   UNL     1      37.584   8.158  12.737  0.00  0.00    +0.000 NA
ATOM      4  C   UNL     1      37.900   8.477  13.925  0.00  0.00    +0.000 C 
ATOM      5  C   UNL     1      37.790   9.890  14.352  0.00  0.00    +0.000 C 
ATOM      6  C   UNL     1      38.288   7.535  15.067  0.00  0.00    +0.000 C 
ATOM      7  C   UNL     1      37.376   6.231  14.769  0.00  0.00    +0.000 C 
ATOM      8  C   UNL     1      38.228   5.942  13.431  0.00  0.00    +0.000 C 
ATOM      9  C   UNL     1      39.180   5.147  13.284  0.00  0.00    +0.000 C 
ATOM     10  O   UNL     1      39.655   4.375  14.282  0.00  0.00    +0.000 OA
ENDROOT
BRANCH   7  11
ATOM     11  C   UNL     1      37.766   5.060  15.622  0.00  0.00    +0.000 A 
ATOM     12  C   UNL     1      37.007   3.901  15.289  0.00  0.00    +0.000 A 
ATOM     13  N   UNL     1      37.096   3.022  16.244  0.00  0.00    +0.000 N 
ATOM     14  N   UNL     1      37.852   3.499  17.176  0.00  0.00    +0.000 NA
ATOM     15  C   UNL     1      38.272   4.756  16.795  0.00  0.00    +0.000 A 
BRANCH  13  16
ATOM     16  C   UNL     1      36.454   1.734  16.259  0.00  0.00    +0.000 A 
ATOM     17  C   UNL     1      36.882   0.715  15.445  0.00  0.00    +0.000 A 
ATOM     18  C   UNL     1      36.288  -0.537  15.427  0.00  0.00    +0.000 A 
ATOM     19  C   UNL     1      35.220  -0.773  16.260  0.00  0.00    +0.000 A 
ATOM     20  C   UNL     1      34.778   0.263  17.094  0.00  0.00    +0.000 A 
ATOM     21  C   UNL     1      35.380   1.503  17.099  0.00  0.00    +0.000 A 
ENDBRANCH  13  16
BRANCH  15  22
ATOM     22  C   UNL     1      39.288   5.475  17.562  0.00  0.00    +0.000 A 
ATOM     23  C   UNL     1      39.144   5.710  18.900  0.00  0.00    +0.000 A 
ATOM     24  C   UNL     1      40.086   6.407  19.512  0.00  0.00    +0.000 A 
ATOM     25  C   UNL     1      41.145   6.850  18.775  0.00  0.00    +0.000 A 
ATOM     26  S   UNL     1      40.748   6.250  17.234  0.00  0.00    +0.000 S 
ENDBRANCH  15  22
ENDBRANCH   7  11
BRANCH   6  27
ATOM     27  C   UNL     1      37.406   8.221  16.153  0.00  0.00    +0.000 C 
ATOM     28  O   UNL     1      36.183   8.362  16.006  0.00  0.00    +0.000 OA
BRANCH  27  29
ATOM     29  O   UNL     1      37.992   8.692  17.317  0.00  0.00    +0.000 OA
ATOM     30  C   UNL     1      37.182   9.115  18.425  0.00  0.00    +0.000 C 
ENDBRANCH  27  29
ENDBRANCH   6  27
BRANCH   9  31
ATOM     31  O   UNL     1      39.768   5.082  11.971  0.00  0.00    +0.000 OA
ATOM     32  C   UNL     1      41.189   5.303  12.032  0.00  0.00    +0.000 C 
ENDBRANCH   9  31
TORSDOF 6
ENDMDL
MODEL 6
REMARK VINA RESULT:      -5.9     27.736     31.391
REMARK  Name = 
REMARK  6 active torsions:
REMARK  status: ('A' for Active; 'I' for Inactive)
REMARK    1  A    between atoms: C_6  and  C_7
REMARK    2  A    between atoms: C_7  and  O_9
REMARK    3  A    between atoms: C_11  and  C_12
REMARK    4  A    between atoms: N_14  and  C_15
REMARK    5  A    between atoms: C_22  and  C_23
REMARK    6  A    between atoms: C_29  and  O_31
REMARK                            x       y       z     vdW  Elec       q    Type
REMARK                         _______ _______ _______ _____ _____    ______ ____
ROOT
ATOM      1  C   UNL     1      40.702   6.395  13.669  0.00  0.00    +0.000 C 
ATOM      2  C   UNL     1      40.012   5.453  14.298  0.00  0.00    +0.000 C 
ATOM      3  N   UNL     1      39.506   5.537  15.630  0.00  0.00    +0.000 NA
ATOM      4  C   UNL     1      38.904   4.521  16.095  0.00  0.00    +0.000 C 
ATOM      5  C   UNL     1      38.378   4.558  17.479  0.00  0.00    +0.000 C 
ATOM      6  C   UNL     1      38.525   3.241  15.347  0.00  0.00    +0.000 C 
ATOM      7  C   UNL     1      38.204   3.791  13.858  0.00  0.00    +0.000 C 
ATOM      8  C   UNL     1      39.759   4.169  13.662  0.00  0.00    +0.000 C 
ATOM      9  C   UNL     1      40.644   3.504  13.084  0.00  0.00    +0.000 C 
ATOM     10  O   UNL     1      40.408   2.308  12.508  0.00  0.00    +0.000 OA
ENDROOT
BRANCH   7  11
ATOM     11  C   UNL     1      38.047   2.677  12.865  0.00  0.00    +0.000 A 
ATOM     12  C   UNL     1      37.788   3.182  11.558  0.00  0.00    +0.000 A 
ATOM     13  N   UNL     1      37.312   2.236  10.802  0.00  0.00    +0.000 N 
ATOM     14  N   UNL     1      37.239   1.150  11.496  0.00  0.00    +0.000 NA
ATOM     15  C   UNL     1      37.697   1.416  12.769  0.00  0.00    +0.000 A 
BRANCH  13  16
ATOM     16  C   UNL     1      36.927   2.379   9.422  0.00  0.00    +0.000 A 
ATOM     17  C   UNL     1      37.261   1.432   8.487  0.00  0.00    +0.000 A 
ATOM     18  C   UNL     1      36.913   1.536   7.150  0.00  0.00    +0.000 A 
ATOM     19  C   UNL     1      36.201   2.636   6.737  0.00  0.00    +0.000 A 
ATOM     20  C   UNL     1      35.856   3.608   7.686  0.00  0.00    +0.000 A 
ATOM     21  C   UNL     1      36.210   3.489   9.013  0.00  0.00    +0.000 A 
ENDBRANCH  13  16
BRANCH  15  22
ATOM     22  C   UNL     1      37.908   0.338  13.735  0.00  0.00    +0.000 A 
ATOM     23  C   UNL     1      36.862  -0.268  14.373  0.00  0.00    +0.000 A 
ATOM     24  C   UNL     1      37.139  -1.203  15.265  0.00  0.00    +0.000 A 
ATOM     25  C   UNL     1      38.448  -1.509  15.497  0.00  0.00    +0.000 A 
ATOM     26  S   UNL     1      39.230  -0.444  14.427  0.00  0.00    +0.000 S 
ENDBRANCH  15  22
ENDBRANCH   7  11
BRANCH   6  27
ATOM     27  C   UNL     1      37.073   3.148  15.903  0.00  0.00    +0.000 C 
ATOM     28  O   UNL     1      36.771   2.363  16.812  0.00  0.00    +0.000 OA
BRANCH  27  29
ATOM     29  O   UNL     1      36.082   3.959  15.372  0.00  0.00    +0.000 OA
ATOM     30  C   UNL     1      34.782   3.424  15.072  0.00  0.00    +0.000 C 
ENDBRANCH  27  29
ENDBRANCH   6  27
BRANCH   9  31
ATOM     31  O   UNL     1      41.964   4.078  13.051  0.00  0.00    +0.000 OA
ATOM     32  C   UNL     1      42.869   3.246  12.303  0.00  0.00    +0.000 C 
ENDBRANCH   9  31
TORSDOF 6
ENDMDL
MODEL 7
REMARK VINA RESULT:      -5.8     37.573     39.770
REMARK  Name = 
REMARK  6 active torsions:
REMARK  status: ('A' for Active; 'I' for Inactive)
REMARK    1  A    between atoms: C_6  and  C_7
REMARK    2  A    between atoms: C_7  and  O_9
REMARK    3  A    between atoms: C_11  and  C_12
REMARK    4  A    between atoms: N_14  and  C_15
REMARK    5  A    between atoms: C_22  and  C_23
REMARK    6  A    between atoms: C_29  and  O_31
REMARK                            x       y       z     vdW  Elec       q    Type
REMARK                         _______ _______ _______ _____ _____    ______ ____
ROOT
ATOM      1  C   UNL     1      15.977  -5.137   8.606  0.00  0.00    +0.000 C 
ATOM      2  C   UNL     1      15.057  -4.291   8.162  0.00  0.00    +0.000 C 
ATOM      3  N   UNL     1      14.007  -3.715   8.941  0.00  0.00    +0.000 NA
ATOM      4  C   UNL     1      13.183  -2.956   8.345  0.00  0.00    +0.000 C 
ATOM      5  C   UNL     1      12.068  -2.351   9.110  0.00  0.00    +0.000 C 
ATOM      6  C   UNL     1      13.251  -2.462   6.898  0.00  0.00    +0.000 C 
ATOM      7  C   UNL     1      14.845  -2.313   6.656  0.00  0.00    +0.000 C 
ATOM      8  C   UNL     1      15.011  -3.914   6.759  0.00  0.00    +0.000 C 
ATOM      9  C   UNL     1      15.079  -4.739   5.824  0.00  0.00    +0.000 C 
ATOM     10  O   UNL     1      15.022  -4.386   4.524  0.00  0.00    +0.000 OA
ENDROOT
BRANCH   7  11
ATOM     11  C   UNL     1      15.180  -2.076   5.213  0.00  0.00    +0.000 A 
ATOM     12  C   UNL     1      16.586  -1.944   5.022  0.00  0.00    +0.000 A 
ATOM     13  N   UNL     1      16.828  -1.399   3.866  0.00  0.00    +0.000 N 
ATOM     14  N   UNL     1      15.704  -1.164   3.276  0.00  0.00    +0.000 NA
ATOM     15  C   UNL     1      14.683  -1.584   4.102  0.00  0.00    +0.000 A 
BRANCH  13  16
ATOM     16  C   UNL     1      18.134  -1.103   3.337  0.00  0.00    +0.000 A 
ATOM     17  C   UNL     1      18.757   0.091   3.603  0.00  0.00    +0.000 A 
ATOM     18  C   UNL     1      20.009   0.415   3.109  0.00  0.00    +0.000 A 
ATOM     19  C   UNL     1      20.662  -0.498   2.315  0.00  0.00    +0.000 A 
ATOM     20  C   UNL     1      20.032  -1.718   2.039  0.00  0.00    +0.000 A 
ATOM     21  C   UNL     1      18.785  -2.025   2.538  0.00  0.00    +0.000 A 
ENDBRANCH  13  16
BRANCH  15  22
ATOM     22  C   UNL     1      13.299  -1.618   3.632  0.00  0.00    +0.000 A 
ATOM     23  C   UNL     1      12.612  -0.473   3.341  0.00  0.00    +0.000 A 
ATOM     24  C   UNL     1      11.350  -0.585   2.964  0.00  0.00    +0.000 A 
ATOM     25  C   UNL     1      10.807  -1.835   2.887  0.00  0.00    +0.000 A 
ATOM     26  S   UNL     1      12.127  -2.797   3.358  0.00  0.00    +0.000 S 
ENDBRANCH  15  22
ENDBRANCH   7  11
BRANCH   6  27
ATOM     27  C   UNL     1      12.901  -0.977   7.214  0.00  0.00    +0.000 C 
ATOM     28  O   UNL     1      13.645  -0.264   7.902  0.00  0.00    +0.000 OA
BRANCH  27  29
ATOM     29  O   UNL     1      11.728  -0.429   6.719  0.00  0.00    +0.000 OA
ATOM     30  C   UNL     1      11.593   0.994   6.567  0.00  0.00    +0.000 C 
ENDBRANCH  27  29
ENDBRANCH   6  27
BRANCH   9  31
ATOM     31  O   UNL     1      15.227  -6.122   6.195  0.00  0.00    +0.000 OA
ATOM     32  C   UNL     1      14.177  -6.924   5.625  0.00  0.00    +0.000 C 
ENDBRANCH   9  31
TORSDOF 6
ENDMDL
MODEL 8
REMARK VINA RESULT:      -5.8      1.790      2.752
REMARK  Name = 
REMARK  6 active torsions:
REMARK  status: ('A' for Active; 'I' for Inactive)
REMARK    1  A    between atoms: C_6  and  C_7
REMARK    2  A    between atoms: C_7  and  O_9
REMARK    3  A    between atoms: C_11  and  C_12
REMARK    4  A    between atoms: N_14  and  C_15
REMARK    5  A    between atoms: C_22  and  C_23
REMARK    6  A    between atoms: C_29  and  O_31
REMARK                            x       y       z     vdW  Elec       q    Type
REMARK                         _______ _______ _______ _____ _____    ______ ____
ROOT
ATOM      1  C   UNL     1      22.376  19.962  39.657  0.00  0.00    +0.000 C 
ATOM      2  C   UNL     1      23.062  18.963  40.197  0.00  0.00    +0.000 C 
ATOM      3  N   UNL     1      22.768  18.324  41.440  0.00  0.00    +0.000 NA
ATOM      4  C   UNL     1      23.557  17.411  41.832  0.00  0.00    +0.000 C 
ATOM      5  C   UNL     1      23.300  16.733  43.123  0.00  0.00    +0.000 C 
ATOM      6  C   UNL     1      24.731  16.803  41.062  0.00  0.00    +0.000 C 
ATOM      7  C   UNL     1      24.204  16.847  39.531  0.00  0.00    +0.000 C 
ATOM      8  C   UNL     1      24.267  18.459  39.558  0.00  0.00    +0.000 C 
ATOM      9  C   UNL     1      25.176  19.198  39.128  0.00  0.00    +0.000 C 
ATOM     10  O   UNL     1      26.298  18.725  38.547  0.00  0.00    +0.000 OA
ENDROOT
BRANCH   7  11
ATOM     11  C   UNL     1      25.292  16.529  38.549  0.00  0.00    +0.000 A 
ATOM     12  C   UNL     1      24.808  16.572  37.209  0.00  0.00    +0.000 A 
ATOM     13  N   UNL     1      25.640  15.963  36.416  0.00  0.00    +0.000 N 
ATOM     14  N   UNL     1      26.632  15.524  37.116  0.00  0.00    +0.000 NA
ATOM     15  C   UNL     1      26.425  15.876  38.432  0.00  0.00    +0.000 A 
BRANCH  13  16
ATOM     16  C   UNL     1      25.476  15.800  34.995  0.00  0.00    +0.000 A 
ATOM     17  C   UNL     1      25.054  16.838  34.203  0.00  0.00    +0.000 A 
ATOM     18  C   UNL     1      24.879  16.721  32.834  0.00  0.00    +0.000 A 
ATOM     19  C   UNL     1      25.140  15.510  32.236  0.00  0.00    +0.000 A 
ATOM     20  C   UNL     1      25.572  14.446  33.039  0.00  0.00    +0.000 A 
ATOM     21  C   UNL     1      25.740  14.579  34.401  0.00  0.00    +0.000 A 
ENDBRANCH  13  16
BRANCH  15  22
ATOM     22  C   UNL     1      27.468  15.678  39.439  0.00  0.00    +0.000 A 
ATOM     23  C   UNL     1      27.939  14.434  39.748  0.00  0.00    +0.000 A 
ATOM     24  C   UNL     1      28.850  14.336  40.701  0.00  0.00    +0.000 A 
ATOM     25  C   UNL     1      29.266  15.479  41.318  0.00  0.00    +0.000 A 
ATOM     26  S   UNL     1      28.335  16.648  40.509  0.00  0.00    +0.000 S 
ENDBRANCH  15  22
ENDBRANCH   7  11
BRANCH   6  27
ATOM     27  C   UNL     1      24.400  15.319  41.402  0.00  0.00    +0.000 C 
ATOM     28  O   UNL     1      23.327  14.797  41.070  0.00  0.00    +0.000 OA
BRANCH  27  29
ATOM     29  O   UNL     1      25.323  14.552  42.096  0.00  0.00    +0.000 OA
ATOM     30  C   UNL     1      24.888  13.512  42.987  0.00  0.00    +0.000 C 
ENDBRANCH  27  29
ENDBRANCH   6  27
BRANCH   9  31
ATOM     31  O   UNL     1      24.979  20.616  39.277  0.00  0.00    +0.000 OA
ATOM     32  C   UNL     1      25.591  21.338  38.193  0.00  0.00    +0.000 C 
ENDBRANCH   9  31
TORSDOF 6
ENDMDL
MODEL 9
REMARK VINA RESULT:      -5.7     29.025     32.949
REMARK  Name = 
REMARK  6 active torsions:
REMARK  status: ('A' for Active; 'I' for Inactive)
REMARK    1  A    between atoms: C_6  and  C_7
REMARK    2  A    between atoms: C_7  and  O_9
REMARK    3  A    between atoms: C_11  and  C_12
REMARK    4  A    between atoms: N_14  and  C_15
REMARK    5  A    between atoms: C_22  and  C_23
REMARK    6  A    between atoms: C_29  and  O_31
REMARK                            x       y       z     vdW  Elec       q    Type
REMARK                         _______ _______ _______ _____ _____    ______ ____
ROOT
ATOM      1  C   UNL     1      40.447  -2.870  10.795  0.00  0.00    +0.000 C 
ATOM      2  C   UNL     1      40.202  -1.572  10.679  0.00  0.00    +0.000 C 
ATOM      3  N   UNL     1      40.271  -0.814   9.471  0.00  0.00    +0.000 NA
ATOM      4  C   UNL     1      40.049   0.434   9.547  0.00  0.00    +0.000 C 
ATOM      5  C   UNL     1      40.126   1.261   8.321  0.00  0.00    +0.000 C 
ATOM      6  C   UNL     1      39.574   1.221  10.770  0.00  0.00    +0.000 C 
ATOM      7  C   UNL     1      38.609   0.156  11.517  0.00  0.00    +0.000 C 
ATOM      8  C   UNL     1      39.888  -0.769  11.850  0.00  0.00    +0.000 C 
ATOM      9  C   UNL     1      40.544  -0.818  12.911  0.00  0.00    +0.000 C 
ATOM     10  O   UNL     1      40.257  -0.061  13.990  0.00  0.00    +0.000 OA
ENDROOT
BRANCH   7  11
ATOM     11  C   UNL     1      38.215   0.615  12.890  0.00  0.00    +0.000 A 
ATOM     12  C   UNL     1      37.458  -0.382  13.571  0.00  0.00    +0.000 A 
ATOM     13  N   UNL     1      36.837   0.147  14.584  0.00  0.00    +0.000 N 
ATOM     14  N   UNL     1      37.121   1.406  14.632  0.00  0.00    +0.000 NA
ATOM     15  C   UNL     1      37.976   1.698  13.591  0.00  0.00    +0.000 A 
BRANCH  13  16
ATOM     16  C   UNL     1      35.971  -0.555  15.495  0.00  0.00    +0.000 A 
ATOM     17  C   UNL     1      35.789  -1.912  15.403  0.00  0.00    +0.000 A 
ATOM     18  C   UNL     1      34.961  -2.622  16.257  0.00  0.00    +0.000 A 
ATOM     19  C   UNL     1      34.289  -1.941  17.243  0.00  0.00    +0.000 A 
ATOM     20  C   UNL     1      34.470  -0.555  17.343  0.00  0.00    +0.000 A 
ATOM     21  C   UNL     1      35.297   0.137  16.485  0.00  0.00    +0.000 A 
ENDBRANCH  13  16
BRANCH  15  22
ATOM     22  C   UNL     1      38.621   3.007  13.491  0.00  0.00    +0.000 A 
ATOM     23  C   UNL     1      39.959   3.166  13.717  0.00  0.00    +0.000 A 
ATOM     24  C   UNL     1      40.458   4.389  13.651  0.00  0.00    +0.000 A 
ATOM     25  C   UNL     1      39.611   5.418  13.359  0.00  0.00    +0.000 A 
ATOM     26  S   UNL     1      38.134   4.592  13.194  0.00  0.00    +0.000 S 
ENDBRANCH  15  22
ENDBRANCH   7  11
BRANCH   6  27
ATOM     27  C   UNL     1      38.497   2.059  10.020  0.00  0.00    +0.000 C 
ATOM     28  O   UNL     1      38.621   3.280   9.850  0.00  0.00    +0.000 OA
BRANCH  27  29
ATOM     29  O   UNL     1      37.363   1.434   9.526  0.00  0.00    +0.000 OA
ATOM     30  C   UNL     1      36.513   2.101   8.578  0.00  0.00    +0.000 C 
ENDBRANCH  27  29
ENDBRANCH   6  27
BRANCH   9  31
ATOM     31  O   UNL     1      41.649  -1.740  12.944  0.00  0.00    +0.000 OA
ATOM     32  C   UNL     1      41.983  -2.094  14.298  0.00  0.00    +0.000 C 
ENDBRANCH   9  31
TORSDOF 6
ENDMDL
MODEL 10
REMARK VINA RESULT:      -5.7     36.639     40.012
REMARK  Name = 
REMARK  6 active torsions:
REMARK  status: ('A' for Active; 'I' for Inactive)
REMARK    1  A    between atoms: C_6  and  C_7
REMARK    2  A    between atoms: C_7  and  O_9
REMARK    3  A    between atoms: C_11  and  C_12
REMARK    4  A    between atoms: N_14  and  C_15
REMARK    5  A    between atoms: C_22  and  C_23
REMARK    6  A    between atoms: C_29  and  O_31
REMARK                            x       y       z     vdW  Elec       q    Type
REMARK                         _______ _______ _______ _____ _____    ______ ____
ROOT
ATOM      1  C   UNL     1      16.368  -3.928   4.075  0.00  0.00    +0.000 C 
ATOM      2  C   UNL     1      15.516  -4.794   4.607  0.00  0.00    +0.000 C 
ATOM      3  N   UNL     1      14.477  -5.479   3.907  0.00  0.00    +0.000 NA
ATOM      4  C   UNL     1      13.720  -6.244   4.581  0.00  0.00    +0.000 C 
ATOM      5  C   UNL     1      12.618  -6.960   3.900  0.00  0.00    +0.000 C 
ATOM      6  C   UNL     1      13.868  -6.636   6.053  0.00  0.00    +0.000 C 
ATOM      7  C   UNL     1      15.475  -6.677   6.243  0.00  0.00    +0.000 C 
ATOM      8  C   UNL     1      15.541  -5.080   6.032  0.00  0.00    +0.000 C 
ATOM      9  C   UNL     1      15.592  -4.192   6.909  0.00  0.00    +0.000 C 
ATOM     10  O   UNL     1      15.601  -4.461   8.230  0.00  0.00    +0.000 OA
ENDROOT
BRANCH   7  11
ATOM     11  C   UNL     1      15.873  -6.798   7.684  0.00  0.00    +0.000 A 
ATOM     12  C   UNL     1      17.290  -6.816   7.831  0.00  0.00    +0.000 A 
ATOM     13  N   UNL     1      17.609  -7.269   9.008  0.00  0.00    +0.000 N 
ATOM     14  N   UNL     1      16.526  -7.548   9.652  0.00  0.00    +0.000 NA
ATOM     15  C   UNL     1      15.450  -7.255   8.841  0.00  0.00    +0.000 A 
BRANCH  13  16
ATOM     16  C   UNL     1      18.950  -7.435   9.506  0.00  0.00    +0.000 A 
ATOM     17  C   UNL     1      19.416  -6.691  10.561  0.00  0.00    +0.000 A 
ATOM     18  C   UNL     1      20.699  -6.818  11.066  0.00  0.00    +0.000 A 
ATOM     19  C   UNL     1      21.549  -7.731  10.487  0.00  0.00    +0.000 A 
ATOM     20  C   UNL     1      21.080  -8.494   9.409  0.00  0.00    +0.000 A 
ATOM     21  C   UNL     1      19.800  -8.355   8.919  0.00  0.00    +0.000 A 
ENDBRANCH  13  16
BRANCH  15  22
ATOM     22  C   UNL     1      14.083  -7.293   9.358  0.00  0.00    +0.000 A 
ATOM     23  C   UNL     1      13.519  -8.452   9.811  0.00  0.00    +0.000 A 
ATOM     24  C   UNL     1      12.263  -8.412  10.221  0.00  0.00    +0.000 A 
ATOM     25  C   UNL     1      11.604  -7.218  10.170  0.00  0.00    +0.000 A 
ATOM     26  S   UNL     1      12.811  -6.202   9.536  0.00  0.00    +0.000 S 
ENDBRANCH  15  22
ENDBRANCH   7  11
BRANCH   6  27
ATOM     27  C   UNL     1      13.596  -8.156   5.847  0.00  0.00    +0.000 C 
ATOM     28  O   UNL     1      14.282  -8.842   5.076  0.00  0.00    +0.000 OA
BRANCH  27  29
ATOM     29  O   UNL     1      12.561  -8.768   6.536  0.00  0.00    +0.000 OA
ATOM     30  C   UNL     1      11.277  -8.133   6.642  0.00  0.00    +0.000 C 
ENDBRANCH  27  29
ENDBRANCH   6  27
BRANCH   9  31
ATOM     31  O   UNL     1      15.645  -2.830   6.445  0.00  0.00    +0.000 OA
ATOM     32  C   UNL     1      14.534  -2.069   6.954  0.00  0.00    +0.000 C 
ENDBRANCH   9  31
TORSDOF 6
ENDMDL
