MODEL 1
REMARK VINA RESULT:      -7.1      0.000      0.000
REMARK  Name = 
REMARK  2 active torsions:
REMARK  status: ('A' for Active; 'I' for Inactive)
REMARK    1  A    between atoms: C_2  and  N_3
REMARK    2  A    between atoms: C_4  and  C_5
REMARK                            x       y       z     vdW  Elec       q    Type
REMARK                         _______ _______ _______ _____ _____    ______ ____
ROOT
ATOM      1  N   UNL     1      16.478  11.575  36.877  0.00  0.00    +0.000 N 
ATOM      2  C   UNL     1      17.329  10.961  37.717  0.00  0.00    +0.000 A 
ATOM      3  C   UNL     1      16.560  10.404  38.717  0.00  0.00    +0.000 A 
ATOM      4  C   UNL     1      17.045   9.615  39.890  0.00  0.00    +0.000 C 
ATOM      5  C   UNL     1      15.235  10.686  38.474  0.00  0.00    +0.000 A 
ATOM      6  C   UNL     1      14.046  10.397  39.114  0.00  0.00    +0.000 A 
ATOM      7  C   UNL     1      12.841  10.844  38.591  0.00  0.00    +0.000 A 
ATOM      8  C   UNL     1      12.823  11.588  37.417  0.00  0.00    +0.000 A 
ATOM      9  O   UNL     1      11.575  11.999  36.958  0.00  0.00    +0.000 OA
ATOM     10  C   UNL     1      14.002  11.870  36.790  0.00  0.00    +0.000 A 
ATOM     11  C   UNL     1      15.212  11.426  37.307  0.00  0.00    +0.000 A 
ENDROOT
BRANCH   2  12
ATOM     12  C   UNL     1      18.781  10.880  37.622  0.00  0.00    +0.000 A 
ATOM     13  C   UNL     1      19.575  11.834  38.222  0.00  0.00    +0.000 A 
ATOM     14  C   UNL     1      20.960  11.769  38.139  0.00  0.00    +0.000 A 
ATOM     15  C   UNL     1      21.593  10.749  37.457  0.00  0.00    +0.000 A 
ATOM     16  O   UNL     1      22.979  10.664  37.362  0.00  0.00    +0.000 OA
ATOM     17  C   UNL     1      20.797   9.795  36.857  0.00  0.00    +0.000 A 
ATOM     18  C   UNL     1      19.421   9.866  36.943  0.00  0.00    +0.000 A 
ENDBRANCH   2  12
BRANCH   1  20
ATOM     19  C   UNL     1      16.919  11.382  34.478  0.00  0.00    +0.000 C 
ATOM     20  C   UNL     1      16.842  12.297  35.680  0.00  0.00    +0.000 C 
ENDBRANCH   1  20
TORSDOF 2
ENDMDL
MODEL 2
REMARK VINA RESULT:      -6.9      2.429      4.250
REMARK  Name = 
REMARK  2 active torsions:
REMARK  status: ('A' for Active; 'I' for Inactive)
REMARK    1  A    between atoms: C_2  and  N_3
REMARK    2  A    between atoms: C_4  and  C_5
REMARK                            x       y       z     vdW  Elec       q    Type
REMARK                         _______ _______ _______ _____ _____    ______ ____
ROOT
ATOM      1  N   UNL     1      16.066  11.690  35.883  0.00  0.00    +0.000 N 
ATOM      2  C   UNL     1      16.974  10.769  36.249  0.00  0.00    +0.000 A 
ATOM      3  C   UNL     1      17.328  10.089  35.102  0.00  0.00    +0.000 A 
ATOM      4  C   UNL     1      18.309   8.968  34.989  0.00  0.00    +0.000 C 
ATOM      5  C   UNL     1      16.627  10.610  34.039  0.00  0.00    +0.000 A 
ATOM      6  C   UNL     1      16.569  10.338  32.686  0.00  0.00    +0.000 A 
ATOM      7  C   UNL     1      15.730  11.071  31.858  0.00  0.00    +0.000 A 
ATOM      8  C   UNL     1      14.939  12.084  32.387  0.00  0.00    +0.000 A 
ATOM      9  O   UNL     1      14.125  12.771  31.492  0.00  0.00    +0.000 OA
ATOM     10  C   UNL     1      15.000  12.346  33.725  0.00  0.00    +0.000 A 
ATOM     11  C   UNL     1      15.838  11.617  34.559  0.00  0.00    +0.000 A 
ENDROOT
BRANCH   2  12
ATOM     12  C   UNL     1      17.501  10.509  37.582  0.00  0.00    +0.000 A 
ATOM     13  C   UNL     1      18.794  10.861  37.904  0.00  0.00    +0.000 A 
ATOM     14  C   UNL     1      19.309  10.619  39.171  0.00  0.00    +0.000 A 
ATOM     15  C   UNL     1      18.548  10.018  40.154  0.00  0.00    +0.000 A 
ATOM     16  O   UNL     1      19.043   9.766  41.430  0.00  0.00    +0.000 OA
ATOM     17  C   UNL     1      17.255   9.665  39.831  0.00  0.00    +0.000 A 
ATOM     18  C   UNL     1      16.749   9.909  38.570  0.00  0.00    +0.000 A 
ENDBRANCH   2  12
BRANCH   1  20
ATOM     19  C   UNL     1      14.081  12.112  37.250  0.00  0.00    +0.000 C 
ATOM     20  C   UNL     1      15.415  12.633  36.762  0.00  0.00    +0.000 C 
ENDBRANCH   1  20
TORSDOF 2
ENDMDL
MODEL 3
REMARK VINA RESULT:      -6.6     18.115     19.603
REMARK  Name = 
REMARK  2 active torsions:
REMARK  status: ('A' for Active; 'I' for Inactive)
REMARK    1  A    between atoms: C_2  and  N_3
REMARK    2  A    between atoms: C_4  and  C_5
REMARK                            x       y       z     vdW  Elec       q    Type
REMARK                         _______ _______ _______ _____ _____    ______ ____
ROOT
ATOM      1  N   UNL     1      34.199   2.472  36.383  0.00  0.00    +0.000 N 
ATOM      2  C   UNL     1      34.207   3.402  35.414  0.00  0.00    +0.000 A 
ATOM      3  C   UNL     1      33.732   2.788  34.275  0.00  0.00    +0.000 A 
ATOM      4  C   UNL     1      33.552   3.408  32.927  0.00  0.00    +0.000 C 
ATOM      5  C   UNL     1      33.436   1.475  34.564  0.00  0.00    +0.000 A 
ATOM      6  C   UNL     1      32.942   0.408  33.840  0.00  0.00    +0.000 A 
ATOM      7  C   UNL     1      32.753  -0.825  34.449  0.00  0.00    +0.000 A 
ATOM      8  C   UNL     1      33.061  -0.993  35.794  0.00  0.00    +0.000 A 
ATOM      9  O   UNL     1      32.843  -2.259  36.329  0.00  0.00    +0.000 OA
ATOM     10  C   UNL     1      33.548   0.066  36.503  0.00  0.00    +0.000 A 
ATOM     11  C   UNL     1      33.740   1.302  35.900  0.00  0.00    +0.000 A 
ENDROOT
BRANCH   2  12
ATOM     12  C   UNL     1      34.628   4.794  35.510  0.00  0.00    +0.000 A 
ATOM     13  C   UNL     1      35.949   5.140  35.326  0.00  0.00    +0.000 A 
ATOM     14  C   UNL     1      36.363   6.463  35.416  0.00  0.00    +0.000 A 
ATOM     15  C   UNL     1      35.470   7.479  35.690  0.00  0.00    +0.000 A 
ATOM     16  O   UNL     1      35.863   8.812  35.784  0.00  0.00    +0.000 OA
ATOM     17  C   UNL     1      34.148   7.133  35.874  0.00  0.00    +0.000 A 
ATOM     18  C   UNL     1      33.743   5.816  35.784  0.00  0.00    +0.000 A 
ENDBRANCH   2  12
BRANCH   1  20
ATOM     19  C   UNL     1      36.094   2.398  37.928  0.00  0.00    +0.000 C 
ATOM     20  C   UNL     1      34.617   2.670  37.751  0.00  0.00    +0.000 C 
ENDBRANCH   1  20
TORSDOF 2
ENDMDL
MODEL 4
REMARK VINA RESULT:      -6.5     19.116     21.172
REMARK  Name = 
REMARK  2 active torsions:
REMARK  status: ('A' for Active; 'I' for Inactive)
REMARK    1  A    between atoms: C_2  and  N_3
REMARK    2  A    between atoms: C_4  and  C_5
REMARK                            x       y       z     vdW  Elec       q    Type
REMARK                         _______ _______ _______ _____ _____    ______ ____
ROOT
ATOM      1  N   UNL     1      27.210  24.337  26.022  0.00  0.00    +0.000 N 
ATOM      2  C   UNL     1      28.293  23.964  25.318  0.00  0.00    +0.000 A 
ATOM      3  C   UNL     1      29.021  23.123  26.133  0.00  0.00    +0.000 A 
ATOM      4  C   UNL     1      30.311  22.446  25.802  0.00  0.00    +0.000 C 
ATOM      5  C   UNL     1      28.368  22.989  27.337  0.00  0.00    +0.000 A 
ATOM      6  C   UNL     1      28.615  22.296  28.506  0.00  0.00    +0.000 A 
ATOM      7  C   UNL     1      27.729  22.376  29.570  0.00  0.00    +0.000 A 
ATOM      8  C   UNL     1      26.585  23.158  29.467  0.00  0.00    +0.000 A 
ATOM      9  O   UNL     1      25.747  23.187  30.579  0.00  0.00    +0.000 OA
ATOM     10  C   UNL     1      26.347  23.842  28.310  0.00  0.00    +0.000 A 
ATOM     11  C   UNL     1      27.230  23.766  27.241  0.00  0.00    +0.000 A 
ENDROOT
BRANCH   2  12
ATOM     12  C   UNL     1      28.658  24.352  23.962  0.00  0.00    +0.000 A 
ATOM     13  C   UNL     1      28.317  23.555  22.890  0.00  0.00    +0.000 A 
ATOM     14  C   UNL     1      28.659  23.914  21.593  0.00  0.00    +0.000 A 
ATOM     15  C   UNL     1      29.351  25.078  21.327  0.00  0.00    +0.000 A 
ATOM     16  O   UNL     1      29.704  25.457  20.035  0.00  0.00    +0.000 OA
ATOM     17  C   UNL     1      29.692  25.875  22.400  0.00  0.00    +0.000 A 
ATOM     18  C   UNL     1      29.349  25.513  23.687  0.00  0.00    +0.000 A 
ENDBRANCH   2  12
BRANCH   1  20
ATOM     19  C   UNL     1      25.169  24.497  24.685  0.00  0.00    +0.000 C 
ATOM     20  C   UNL     1      26.164  25.220  25.563  0.00  0.00    +0.000 C 
ENDBRANCH   1  20
TORSDOF 2
ENDMDL
MODEL 5
REMARK VINA RESULT:      -6.2     19.096     20.877
REMARK  Name = 
REMARK  2 active torsions:
REMARK  status: ('A' for Active; 'I' for Inactive)
REMARK    1  A    between atoms: C_2  and  N_3
REMARK    2  A    between atoms: C_4  and  C_5
REMARK                            x       y       z     vdW  Elec       q    Type
REMARK                         _______ _______ _______ _____ _____    ______ ____
ROOT
ATOM      1  N   UNL     1      29.952  22.970  25.408  0.00  0.00    +0.000 N 
ATOM      2  C   UNL     1      29.901  22.844  26.745  0.00  0.00    +0.000 A 
ATOM      3  C   UNL     1      28.566  22.838  27.089  0.00  0.00    +0.000 A 
ATOM      4  C   UNL     1      27.992  22.717  28.463  0.00  0.00    +0.000 C 
ATOM      5  C   UNL     1      27.808  22.960  25.946  0.00  0.00    +0.000 A 
ATOM      6  C   UNL     1      26.454  23.013  25.678  0.00  0.00    +0.000 A 
ATOM      7  C   UNL     1      26.002  23.145  24.373  0.00  0.00    +0.000 A 
ATOM      8  C   UNL     1      26.912  23.227  23.325  0.00  0.00    +0.000 A 
ATOM      9  O   UNL     1      26.378  23.359  22.046  0.00  0.00    +0.000 OA
ATOM     10  C   UNL     1      28.248  23.176  23.597  0.00  0.00    +0.000 A 
ATOM     11  C   UNL     1      28.708  23.043  24.901  0.00  0.00    +0.000 A 
ENDROOT
BRANCH   2  12
ATOM     12  C   UNL     1      31.014  22.734  27.679  0.00  0.00    +0.000 A 
ATOM     13  C   UNL     1      31.424  21.501  28.137  0.00  0.00    +0.000 A 
ATOM     14  C   UNL     1      32.484  21.383  29.027  0.00  0.00    +0.000 A 
ATOM     15  C   UNL     1      33.166  22.492  29.485  0.00  0.00    +0.000 A 
ATOM     16  O   UNL     1      34.231  22.397  30.377  0.00  0.00    +0.000 OA
ATOM     17  C   UNL     1      32.756  23.726  29.026  0.00  0.00    +0.000 A 
ATOM     18  C   UNL     1      31.701  23.837  28.141  0.00  0.00    +0.000 A 
ENDBRANCH   2  12
BRANCH   1  20
ATOM     19  C   UNL     1      31.684  24.435  24.492  0.00  0.00    +0.000 C 
ATOM     20  C   UNL     1      31.152  23.024  24.608  0.00  0.00    +0.000 C 
ENDBRANCH   1  20
TORSDOF 2
ENDMDL
MODEL 6
REMARK VINA RESULT:      -6.1     18.625     20.029
REMARK  Name = 
REMARK  2 active torsions:
REMARK  status: ('A' for Active; 'I' for Inactive)
REMARK    1  A    between atoms: C_2  and  N_3
REMARK    2  A    between atoms: C_4  and  C_5
REMARK                            x       y       z     vdW  Elec       q    Type
REMARK                         _______ _______ _______ _____ _____    ______ ____
ROOT
ATOM      1  N   UNL     1      33.953   2.084  36.338  0.00  0.00    +0.000 N 
ATOM      2  C   UNL     1      33.728   1.542  35.129  0.00  0.00    +0.000 A 
ATOM      3  C   UNL     1      33.791   2.574  34.218  0.00  0.00    +0.000 A 
ATOM      4  C   UNL     1      33.607   2.479  32.738  0.00  0.00    +0.000 C 
ATOM      5  C   UNL     1      34.057   3.747  34.886  0.00  0.00    +0.000 A 
ATOM      6  C   UNL     1      34.226   5.065  34.509  0.00  0.00    +0.000 A 
ATOM      7  C   UNL     1      34.493   6.039  35.461  0.00  0.00    +0.000 A 
ATOM      8  C   UNL     1      34.589   5.693  36.804  0.00  0.00    +0.000 A 
ATOM      9  O   UNL     1      34.858   6.728  37.696  0.00  0.00    +0.000 OA
ATOM     10  C   UNL     1      34.421   4.390  37.170  0.00  0.00    +0.000 A 
ATOM     11  C   UNL     1      34.154   3.410  36.223  0.00  0.00    +0.000 A 
ENDROOT
BRANCH   2  12
ATOM     12  C   UNL     1      33.466   0.145  34.808  0.00  0.00    +0.000 A 
ATOM     13  C   UNL     1      32.344  -0.488  35.301  0.00  0.00    +0.000 A 
ATOM     14  C   UNL     1      32.083  -1.818  35.001  0.00  0.00    +0.000 A 
ATOM     15  C   UNL     1      32.932  -2.556  34.201  0.00  0.00    +0.000 A 
ATOM     16  O   UNL     1      32.688  -3.891  33.888  0.00  0.00    +0.000 OA
ATOM     17  C   UNL     1      34.053  -1.923  33.708  0.00  0.00    +0.000 A 
ATOM     18  C   UNL     1      34.308  -0.600  34.009  0.00  0.00    +0.000 A 
ENDBRANCH   2  12
BRANCH   1  20
ATOM     19  C   UNL     1      35.345   0.780  37.870  0.00  0.00    +0.000 C 
ATOM     20  C   UNL     1      33.981   1.372  37.594  0.00  0.00    +0.000 C 
ENDBRANCH   1  20
TORSDOF 2
ENDMDL
MODEL 7
REMARK VINA RESULT:      -6.1     19.135     21.116
REMARK  Name = 
REMARK  2 active torsions:
REMARK  status: ('A' for Active; 'I' for Inactive)
REMARK    1  A    between atoms: C_2  and  N_3
REMARK    2  A    between atoms: C_4  and  C_5
REMARK                            x       y       z     vdW  Elec       q    Type
REMARK                         _______ _______ _______ _____ _____    ______ ____
ROOT
ATOM      1  N   UNL     1      27.855  24.366  26.743  0.00  0.00    +0.000 N 
ATOM      2  C   UNL     1      27.366  24.853  25.590  0.00  0.00    +0.000 A 
ATOM      3  C   UNL     1      26.142  25.413  25.888  0.00  0.00    +0.000 A 
ATOM      4  C   UNL     1      25.206  26.085  24.936  0.00  0.00    +0.000 C 
ATOM      5  C   UNL     1      25.895  25.262  27.233  0.00  0.00    +0.000 A 
ATOM      6  C   UNL     1      24.860  25.613  28.077  0.00  0.00    +0.000 A 
ATOM      7  C   UNL     1      24.922  25.305  29.429  0.00  0.00    +0.000 A 
ATOM      8  C   UNL     1      26.027  24.636  29.942  0.00  0.00    +0.000 A 
ATOM      9  O   UNL     1      26.012  24.362  31.307  0.00  0.00    +0.000 OA
ATOM     10  C   UNL     1      27.046  24.291  29.102  0.00  0.00    +0.000 A 
ATOM     11  C   UNL     1      26.991  24.597  27.748  0.00  0.00    +0.000 A 
ENDROOT
BRANCH   2  12
ATOM     12  C   UNL     1      27.978  24.813  24.268  0.00  0.00    +0.000 A 
ATOM     13  C   UNL     1      27.755  23.746  23.425  0.00  0.00    +0.000 A 
ATOM     14  C   UNL     1      28.333  23.696  22.163  0.00  0.00    +0.000 A 
ATOM     15  C   UNL     1      29.149  24.710  21.705  0.00  0.00    +0.000 A 
ATOM     16  O   UNL     1      29.738  24.681  20.444  0.00  0.00    +0.000 OA
ATOM     17  C   UNL     1      29.372  25.778  22.549  0.00  0.00    +0.000 A 
ATOM     18  C   UNL     1      28.795  25.822  23.802  0.00  0.00    +0.000 A 
ENDBRANCH   2  12
BRANCH   1  20
ATOM     19  C   UNL     1      28.991  22.201  26.668  0.00  0.00    +0.000 C 
ATOM     20  C   UNL     1      29.120  23.688  26.908  0.00  0.00    +0.000 C 
ENDBRANCH   1  20
TORSDOF 2
ENDMDL
MODEL 8
REMARK VINA RESULT:      -6.1     18.080     19.309
REMARK  Name = 
REMARK  2 active torsions:
REMARK  status: ('A' for Active; 'I' for Inactive)
REMARK    1  A    between atoms: C_2  and  N_3
REMARK    2  A    between atoms: C_4  and  C_5
REMARK                            x       y       z     vdW  Elec       q    Type
REMARK                         _______ _______ _______ _____ _____    ______ ____
ROOT
ATOM      1  N   UNL     1      33.898   2.738  34.756  0.00  0.00    +0.000 N 
ATOM      2  C   UNL     1      34.324   3.472  35.798  0.00  0.00    +0.000 A 
ATOM      3  C   UNL     1      34.286   2.648  36.902  0.00  0.00    +0.000 A 
ATOM      4  C   UNL     1      34.666   3.004  38.303  0.00  0.00    +0.000 C 
ATOM      5  C   UNL     1      33.834   1.406  36.519  0.00  0.00    +0.000 A 
ATOM      6  C   UNL     1      33.597   0.213  37.173  0.00  0.00    +0.000 A 
ATOM      7  C   UNL     1      33.127  -0.890  36.473  0.00  0.00    +0.000 A 
ATOM      8  C   UNL     1      32.890  -0.799  35.107  0.00  0.00    +0.000 A 
ATOM      9  O   UNL     1      32.418  -1.948  34.478  0.00  0.00    +0.000 OA
ATOM     10  C   UNL     1      33.126   0.383  34.467  0.00  0.00    +0.000 A 
ATOM     11  C   UNL     1      33.597   1.490  35.160  0.00  0.00    +0.000 A 
ENDROOT
BRANCH   2  12
ATOM     12  C   UNL     1      34.748   4.867  35.798  0.00  0.00    +0.000 A 
ATOM     13  C   UNL     1      36.044   5.204  35.470  0.00  0.00    +0.000 A 
ATOM     14  C   UNL     1      36.460   6.529  35.467  0.00  0.00    +0.000 A 
ATOM     15  C   UNL     1      35.596   7.556  35.790  0.00  0.00    +0.000 A 
ATOM     16  O   UNL     1      35.991   8.891  35.793  0.00  0.00    +0.000 OA
ATOM     17  C   UNL     1      34.299   7.218  36.118  0.00  0.00    +0.000 A 
ATOM     18  C   UNL     1      33.892   5.899  36.119  0.00  0.00    +0.000 A 
ENDBRANCH   2  12
BRANCH   1  20
ATOM     19  C   UNL     1      32.711   4.263  33.257  0.00  0.00    +0.000 C 
ATOM     20  C   UNL     1      33.773   3.195  33.392  0.00  0.00    +0.000 C 
ENDBRANCH   1  20
TORSDOF 2
ENDMDL
MODEL 9
REMARK VINA RESULT:      -6.0      2.444      3.280
REMARK  Name = 
REMARK  2 active torsions:
REMARK  status: ('A' for Active; 'I' for Inactive)
REMARK    1  A    between atoms: C_2  and  N_3
REMARK    2  A    between atoms: C_4  and  C_5
REMARK                            x       y       z     vdW  Elec       q    Type
REMARK                         _______ _______ _______ _____ _____    ______ ____
ROOT
ATOM      1  N   UNL     1      17.494  10.464  37.978  0.00  0.00    +0.000 N 
ATOM      2  C   UNL     1      17.365   9.837  39.160  0.00  0.00    +0.000 A 
ATOM      3  C   UNL     1      16.048   9.984  39.542  0.00  0.00    +0.000 A 
ATOM      4  C   UNL     1      15.410   9.461  40.787  0.00  0.00    +0.000 C 
ATOM      5  C   UNL     1      15.380  10.706  38.579  0.00  0.00    +0.000 A 
ATOM      6  C   UNL     1      14.082  11.150  38.423  0.00  0.00    +0.000 A 
ATOM      7  C   UNL     1      13.720  11.879  37.298  0.00  0.00    +0.000 A 
ATOM      8  C   UNL     1      14.665  12.168  36.321  0.00  0.00    +0.000 A 
ATOM      9  O   UNL     1      14.223  12.903  35.225  0.00  0.00    +0.000 OA
ATOM     10  C   UNL     1      15.946  11.727  36.482  0.00  0.00    +0.000 A 
ATOM     11  C   UNL     1      16.316  10.997  37.605  0.00  0.00    +0.000 A 
ENDROOT
BRANCH   2  12
ATOM     12  C   UNL     1      18.391   9.132  39.918  0.00  0.00    +0.000 A 
ATOM     13  C   UNL     1      18.609   7.786  39.716  0.00  0.00    +0.000 A 
ATOM     14  C   UNL     1      19.584   7.103  40.432  0.00  0.00    +0.000 A 
ATOM     15  C   UNL     1      20.369   7.742  41.369  0.00  0.00    +0.000 A 
ATOM     16  O   UNL     1      21.352   7.077  42.097  0.00  0.00    +0.000 OA
ATOM     17  C   UNL     1      20.151   9.089  41.570  0.00  0.00    +0.000 A 
ATOM     18  C   UNL     1      19.181   9.763  40.856  0.00  0.00    +0.000 A 
ENDBRANCH   2  12
BRANCH   1  20
ATOM     19  C   UNL     1      18.798   9.474  36.161  0.00  0.00    +0.000 C 
ATOM     20  C   UNL     1      18.707  10.568  37.202  0.00  0.00    +0.000 C 
ENDBRANCH   1  20
TORSDOF 2
ENDMDL
MODEL 10
REMARK VINA RESULT:      -5.9     18.692     20.385
REMARK  Name = 
REMARK  2 active torsions:
REMARK  status: ('A' for Active; 'I' for Inactive)
REMARK    1  A    between atoms: C_2  and  N_3
REMARK    2  A    between atoms: C_4  and  C_5
REMARK                            x       y       z     vdW  Elec       q    Type
REMARK                         _______ _______ _______ _____ _____    ______ ____
ROOT
ATOM      1  N   UNL     1      33.586   1.119  34.533  0.00  0.00    +0.000 N 
ATOM      2  C   UNL     1      33.634   0.162  35.475  0.00  0.00    +0.000 A 
ATOM      3  C   UNL     1      33.908   0.798  36.667  0.00  0.00    +0.000 A 
ATOM      4  C   UNL     1      34.061   0.162  38.011  0.00  0.00    +0.000 C 
ATOM      5  C   UNL     1      34.025   2.150  36.438  0.00  0.00    +0.000 A 
ATOM      6  C   UNL     1      34.286   3.251  37.229  0.00  0.00    +0.000 A 
ATOM      7  C   UNL     1      34.338   4.520  36.670  0.00  0.00    +0.000 A 
ATOM      8  C   UNL     1      34.128   4.690  35.306  0.00  0.00    +0.000 A 
ATOM      9  O   UNL     1      34.198   5.994  34.823  0.00  0.00    +0.000 OA
ATOM     10  C   UNL     1      33.872   3.598  34.530  0.00  0.00    +0.000 A 
ATOM     11  C   UNL     1      33.818   2.325  35.083  0.00  0.00    +0.000 A 
ENDROOT
BRANCH   2  12
ATOM     12  C   UNL     1      33.441  -1.273  35.307  0.00  0.00    +0.000 A 
ATOM     13  C   UNL     1      32.173  -1.814  35.314  0.00  0.00    +0.000 A 
ATOM     14  C   UNL     1      31.976  -3.179  35.155  0.00  0.00    +0.000 A 
ATOM     15  C   UNL     1      33.037  -4.045  34.984  0.00  0.00    +0.000 A 
ATOM     16  O   UNL     1      32.862  -5.416  34.823  0.00  0.00    +0.000 OA
ATOM     17  C   UNL     1      34.305  -3.503  34.977  0.00  0.00    +0.000 A 
ATOM     18  C   UNL     1      34.495  -2.145  35.135  0.00  0.00    +0.000 A 
ENDBRANCH   2  12
BRANCH   1  20
ATOM     19  C   UNL     1      34.553   0.407  32.401  0.00  0.00    +0.000 C 
ATOM     20  C   UNL     1      33.326   0.912  33.127  0.00  0.00    +0.000 C 
ENDBRANCH   1  20
TORSDOF 2
ENDMDL
