MODEL 1
REMARK VINA RESULT:      -7.2      0.000      0.000
REMARK  Name = 
REMARK  7 active torsions:
REMARK  status: ('A' for Active; 'I' for Inactive)
REMARK    1  A    between atoms: C_2  and  C_3
REMARK    2  A    between atoms: C_2  and  C_18
REMARK    3  A    between atoms: C_3  and  C_4
REMARK    4  A    between atoms: C_4  and  C_5
REMARK    5  A    between atoms: N_8  and  C_9
REMARK    6  A    between atoms: C_9  and  C_10
REMARK    7  A    between atoms: N_26  and  C_27
REMARK                            x       y       z     vdW  Elec       q    Type
REMARK                         _______ _______ _______ _____ _____    ______ ____
ROOT
ATOM      1  O   UNL     1      41.173  -3.463  11.692  0.00  0.00    +0.000 OA
ATOM      2  C   UNL     1      40.140  -2.326  11.461  0.00  0.00    +0.000 C 
ENDROOT
BRANCH   2   3
ATOM      3  C   UNL     1      39.373  -2.524  12.873  0.00  0.00    +0.000 A 
ATOM      4  C   UNL     1      40.040  -2.103  13.988  0.00  0.00    +0.000 A 
ATOM      5  C   UNL     1      39.396  -2.256  15.212  0.00  0.00    +0.000 A 
ATOM      6  C   UNL     1      38.130  -2.821  15.248  0.00  0.00    +0.000 A 
ATOM      7  C   UNL     1      37.500  -3.229  14.096  0.00  0.00    +0.000 A 
ATOM      8  C   UNL     1      38.168  -3.061  12.906  0.00  0.00    +0.000 A 
ATOM      9  C   UNL     1      36.138  -3.809  14.411  0.00  0.00    +0.000 C 
ATOM     10  C   UNL     1      35.920  -3.361  15.812  0.00  0.00    +0.000 C 
ATOM     11  N   UNL     1      37.244  -3.094  16.350  0.00  0.00    +0.000 N 
BRANCH  11  12
ATOM     12  C   UNL     1      37.605  -3.101  17.715  0.00  0.00    +0.000 A 
ATOM     13  C   UNL     1      37.119  -2.199  18.635  0.00  0.00    +0.000 A 
ATOM     14  C   UNL     1      37.543  -2.297  19.966  0.00  0.00    +0.000 A 
ATOM     15  N   UNL     1      38.403  -3.232  20.390  0.00  0.00    +0.000 NA
ATOM     16  C   UNL     1      38.883  -4.117  19.504  0.00  0.00    +0.000 A 
ATOM     17  C   UNL     1      38.487  -4.048  18.188  0.00  0.00    +0.000 A 
ENDBRANCH  11  12
ENDBRANCH   2   3
BRANCH   2  18
ATOM     18  C   UNL     1      41.200  -1.201  12.060  0.00  0.00    +0.000 C 
BRANCH  18  19
ATOM     19  C   UNL     1      41.030  -0.002  11.148  0.00  0.00    +0.000 C 
BRANCH  19  20
ATOM     20  C   UNL     1      39.918   0.869  11.487  0.00  0.00    +0.000 C 
ATOM     21  C   UNL     1      40.051   1.785  12.623  0.00  0.00    +0.000 C 
ATOM     22  C   UNL     1      38.766   2.512  12.901  0.00  0.00    +0.000 C 
ATOM     23  N   UNL     1      37.599   1.763  12.566  0.00  0.00    +0.000 NA
ATOM     24  C   UNL     1      37.492   1.413  11.176  0.00  0.00    +0.000 C 
ATOM     25  C   UNL     1      38.815   1.040  10.559  0.00  0.00    +0.000 C 
BRANCH  23  26
ATOM     26  C   UNL     1      37.356   0.648  13.450  0.00  0.00    +0.000 C 
BRANCH  26  27
ATOM     27  C   UNL     1      36.479   0.981  14.575  0.00  0.00    +0.000 A 
ATOM     28  C   UNL     1      35.666   2.090  14.458  0.00  0.00    +0.000 A 
ATOM     29  C   UNL     1      34.829   2.449  15.470  0.00  0.00    +0.000 A 
ATOM     30  C   UNL     1      34.781   1.713  16.623  0.00  0.00    +0.000 A 
ATOM     31  C   UNL     1      35.577   0.610  16.763  0.00  0.00    +0.000 A 
ATOM     32  C   UNL     1      36.420   0.254  15.734  0.00  0.00    +0.000 A 
ENDBRANCH  26  27
ENDBRANCH  23  26
ENDBRANCH  19  20
ENDBRANCH  18  19
ENDBRANCH   2  18
TORSDOF 7
ENDMDL
MODEL 2
REMARK VINA RESULT:      -7.1      7.066      9.068
REMARK  Name = 
REMARK  7 active torsions:
REMARK  status: ('A' for Active; 'I' for Inactive)
REMARK    1  A    between atoms: C_2  and  C_3
REMARK    2  A    between atoms: C_2  and  C_18
REMARK    3  A    between atoms: C_3  and  C_4
REMARK    4  A    between atoms: C_4  and  C_5
REMARK    5  A    between atoms: N_8  and  C_9
REMARK    6  A    between atoms: C_9  and  C_10
REMARK    7  A    between atoms: N_26  and  C_27
REMARK                            x       y       z     vdW  Elec       q    Type
REMARK                         _______ _______ _______ _____ _____    ______ ____
ROOT
ATOM      1  O   UNL     1      38.245   4.046  17.781  0.00  0.00    +0.000 OA
ATOM      2  C   UNL     1      38.383   5.436  17.102  0.00  0.00    +0.000 C 
ENDROOT
BRANCH   2   3
ATOM      3  C   UNL     1      39.724   5.865  17.899  0.00  0.00    +0.000 A 
ATOM      4  C   UNL     1      39.636   5.896  19.262  0.00  0.00    +0.000 A 
ATOM      5  C   UNL     1      40.780   6.255  19.967  0.00  0.00    +0.000 A 
ATOM      6  C   UNL     1      41.939   6.563  19.271  0.00  0.00    +0.000 A 
ATOM      7  C   UNL     1      41.977   6.517  17.899  0.00  0.00    +0.000 A 
ATOM      8  C   UNL     1      40.827   6.158  17.236  0.00  0.00    +0.000 A 
ATOM      9  C   UNL     1      43.352   6.897  17.391  0.00  0.00    +0.000 C 
ATOM     10  C   UNL     1      44.178   6.817  18.624  0.00  0.00    +0.000 C 
ATOM     11  N   UNL     1      43.245   6.957  19.732  0.00  0.00    +0.000 N 
BRANCH  11  12
ATOM     12  C   UNL     1      43.560   7.404  21.034  0.00  0.00    +0.000 A 
ATOM     13  C   UNL     1      43.816   6.555  22.088  0.00  0.00    +0.000 A 
ATOM     14  C   UNL     1      44.120   7.105  23.339  0.00  0.00    +0.000 A 
ATOM     15  N   UNL     1      44.174   8.424  23.562  0.00  0.00    +0.000 NA
ATOM     16  C   UNL     1      43.928   9.262  22.544  0.00  0.00    +0.000 A 
ATOM     17  C   UNL     1      43.626   8.754  21.301  0.00  0.00    +0.000 A 
ENDBRANCH  11  12
ENDBRANCH   2   3
BRANCH   2  18
ATOM     18  C   UNL     1      39.210   4.766  15.831  0.00  0.00    +0.000 C 
BRANCH  18  19
ATOM     19  C   UNL     1      38.356   5.082  14.619  0.00  0.00    +0.000 C 
BRANCH  19  20
ATOM     20  C   UNL     1      37.365   4.072  14.292  0.00  0.00    +0.000 C 
ATOM     21  C   UNL     1      36.038   4.150  14.909  0.00  0.00    +0.000 C 
ATOM     22  C   UNL     1      35.192   2.960  14.555  0.00  0.00    +0.000 C 
ATOM     23  N   UNL     1      35.942   1.766  14.340  0.00  0.00    +0.000 NA
ATOM     24  C   UNL     1      36.886   1.840  13.258  0.00  0.00    +0.000 C 
ATOM     25  C   UNL     1      37.577   3.176  13.169  0.00  0.00    +0.000 C 
BRANCH  23  26
ATOM     26  C   UNL     1      36.509   1.215  15.548  0.00  0.00    +0.000 C 
BRANCH  26  27
ATOM     27  C   UNL     1      35.838  -0.006  15.998  0.00  0.00    +0.000 A 
ATOM     28  C   UNL     1      36.166  -1.194  15.377  0.00  0.00    +0.000 A 
ATOM     29  C   UNL     1      35.576  -2.362  15.752  0.00  0.00    +0.000 A 
ATOM     30  C   UNL     1      34.644  -2.375  16.756  0.00  0.00    +0.000 A 
ATOM     31  C   UNL     1      34.302  -1.212  17.386  0.00  0.00    +0.000 A 
ATOM     32  C   UNL     1      34.904  -0.035  17.000  0.00  0.00    +0.000 A 
ENDBRANCH  26  27
ENDBRANCH  23  26
ENDBRANCH  19  20
ENDBRANCH  18  19
ENDBRANCH   2  18
TORSDOF 7
ENDMDL
MODEL 3
REMARK VINA RESULT:      -7.1      5.203      6.813
REMARK  Name = 
REMARK  7 active torsions:
REMARK  status: ('A' for Active; 'I' for Inactive)
REMARK    1  A    between atoms: C_2  and  C_3
REMARK    2  A    between atoms: C_2  and  C_18
REMARK    3  A    between atoms: C_3  and  C_4
REMARK    4  A    between atoms: C_4  and  C_5
REMARK    5  A    between atoms: N_8  and  C_9
REMARK    6  A    between atoms: C_9  and  C_10
REMARK    7  A    between atoms: N_26  and  C_27
REMARK                            x       y       z     vdW  Elec       q    Type
REMARK                         _______ _______ _______ _____ _____    ______ ____
ROOT
ATOM      1  O   UNL     1      38.223   4.054  13.376  0.00  0.00    +0.000 OA
ATOM      2  C   UNL     1      36.689   3.828  13.288  0.00  0.00    +0.000 C 
ENDROOT
BRANCH   2   3
ATOM      3  C   UNL     1      36.667   2.533  14.259  0.00  0.00    +0.000 A 
ATOM      4  C   UNL     1      37.679   1.632  14.090  0.00  0.00    +0.000 A 
ATOM      5  C   UNL     1      37.684   0.515  14.919  0.00  0.00    +0.000 A 
ATOM      6  C   UNL     1      36.680   0.365  15.863  0.00  0.00    +0.000 A 
ATOM      7  C   UNL     1      35.682   1.301  15.995  0.00  0.00    +0.000 A 
ATOM      8  C   UNL     1      35.711   2.391  15.157  0.00  0.00    +0.000 A 
ATOM      9  C   UNL     1      34.716   0.900  17.090  0.00  0.00    +0.000 C 
ATOM     10  C   UNL     1      35.467  -0.170  17.797  0.00  0.00    +0.000 C 
ATOM     11  N   UNL     1      36.439  -0.668  16.837  0.00  0.00    +0.000 N 
BRANCH  11  12
ATOM     12  C   UNL     1      37.045  -1.944  16.851  0.00  0.00    +0.000 A 
ATOM     13  C   UNL     1      36.463  -3.068  16.308  0.00  0.00    +0.000 A 
ATOM     14  C   UNL     1      37.153  -4.285  16.377  0.00  0.00    +0.000 A 
ATOM     15  N   UNL     1      38.358  -4.409  16.948  0.00  0.00    +0.000 NA
ATOM     16  C   UNL     1      38.935  -3.322  17.480  0.00  0.00    +0.000 A 
ATOM     17  C   UNL     1      38.284  -2.110  17.430  0.00  0.00    +0.000 A 
ENDBRANCH  11  12
ENDBRANCH   2   3
BRANCH   2  18
ATOM     18  C   UNL     1      36.430   4.905  14.522  0.00  0.00    +0.000 C 
BRANCH  18  19
ATOM     19  C   UNL     1      37.794   5.514  14.782  0.00  0.00    +0.000 C 
BRANCH  19  20
ATOM     20  C   UNL     1      38.092   5.770  16.180  0.00  0.00    +0.000 C 
ATOM     21  C   UNL     1      38.100   7.153  16.666  0.00  0.00    +0.000 C 
ATOM     22  C   UNL     1      38.549   7.234  18.097  0.00  0.00    +0.000 C 
ATOM     23  N   UNL     1      39.477   6.216  18.466  0.00  0.00    +0.000 NA
ATOM     24  C   UNL     1      38.971   4.875  18.350  0.00  0.00    +0.000 C 
ATOM     25  C   UNL     1      38.098   4.679  17.137  0.00  0.00    +0.000 C 
BRANCH  23  26
ATOM     26  C   UNL     1      40.782   6.382  17.871  0.00  0.00    +0.000 C 
BRANCH  26  27
ATOM     27  C   UNL     1      41.860   6.477  18.858  0.00  0.00    +0.000 A 
ATOM     28  C   UNL     1      43.124   6.799  18.409  0.00  0.00    +0.000 A 
ATOM     29  C   UNL     1      44.166   6.903  19.279  0.00  0.00    +0.000 A 
ATOM     30  C   UNL     1      43.975   6.688  20.617  0.00  0.00    +0.000 A 
ATOM     31  C   UNL     1      42.732   6.368  21.087  0.00  0.00    +0.000 A 
ATOM     32  C   UNL     1      41.683   6.266  20.200  0.00  0.00    +0.000 A 
ENDBRANCH  26  27
ENDBRANCH  23  26
ENDBRANCH  19  20
ENDBRANCH  18  19
ENDBRANCH   2  18
TORSDOF 7
ENDMDL
MODEL 4
REMARK VINA RESULT:      -6.9      6.506      9.150
REMARK  Name = 
REMARK  7 active torsions:
REMARK  status: ('A' for Active; 'I' for Inactive)
REMARK    1  A    between atoms: C_2  and  C_3
REMARK    2  A    between atoms: C_2  and  C_18
REMARK    3  A    between atoms: C_3  and  C_4
REMARK    4  A    between atoms: C_4  and  C_5
REMARK    5  A    between atoms: N_8  and  C_9
REMARK    6  A    between atoms: C_9  and  C_10
REMARK    7  A    between atoms: N_26  and  C_27
REMARK                            x       y       z     vdW  Elec       q    Type
REMARK                         _______ _______ _______ _____ _____    ______ ____
ROOT
ATOM      1  O   UNL     1      41.633   6.132  19.744  0.00  0.00    +0.000 OA
ATOM      2  C   UNL     1      40.852   7.231  18.973  0.00  0.00    +0.000 C 
ENDROOT
BRANCH   2   3
ATOM      3  C   UNL     1      40.014   6.204  18.045  0.00  0.00    +0.000 A 
ATOM      4  C   UNL     1      38.994   5.531  18.655  0.00  0.00    +0.000 A 
ATOM      5  C   UNL     1      38.255   4.648  17.874  0.00  0.00    +0.000 A 
ATOM      6  C   UNL     1      38.579   4.490  16.535  0.00  0.00    +0.000 A 
ATOM      7  C   UNL     1      39.616   5.191  15.967  0.00  0.00    +0.000 A 
ATOM      8  C   UNL     1      40.322   6.054  16.771  0.00  0.00    +0.000 A 
ATOM      9  C   UNL     1      39.760   4.835  14.503  0.00  0.00    +0.000 C 
ATOM     10  C   UNL     1      38.480   4.133  14.220  0.00  0.00    +0.000 C 
ATOM     11  N   UNL     1      37.997   3.664  15.509  0.00  0.00    +0.000 N 
BRANCH  11  12
ATOM     12  C   UNL     1      37.111   2.586  15.723  0.00  0.00    +0.000 A 
ATOM     13  C   UNL     1      35.866   2.725  16.297  0.00  0.00    +0.000 A 
ATOM     14  C   UNL     1      35.068   1.587  16.462  0.00  0.00    +0.000 A 
ATOM     15  N   UNL     1      35.457   0.362  16.086  0.00  0.00    +0.000 NA
ATOM     16  C   UNL     1      36.666   0.212  15.526  0.00  0.00    +0.000 A 
ATOM     17  C   UNL     1      37.477   1.311  15.350  0.00  0.00    +0.000 A 
ENDBRANCH  11  12
ENDBRANCH   2   3
BRANCH   2  18
ATOM     18  C   UNL     1      39.697   7.285  20.161  0.00  0.00    +0.000 C 
BRANCH  18  19
ATOM     19  C   UNL     1      39.490   8.765  20.418  0.00  0.00    +0.000 C 
BRANCH  19  20
ATOM     20  C   UNL     1      38.324   9.339  19.770  0.00  0.00    +0.000 C 
ATOM     21  C   UNL     1      37.195   8.467  19.432  0.00  0.00    +0.000 C 
ATOM     22  C   UNL     1      36.139   9.204  18.658  0.00  0.00    +0.000 C 
ATOM     23  N   UNL     1      36.654  10.256  17.842  0.00  0.00    +0.000 NA
ATOM     24  C   UNL     1      37.328  11.299  18.566  0.00  0.00    +0.000 C 
ATOM     25  C   UNL     1      38.153  10.779  19.715  0.00  0.00    +0.000 C 
BRANCH  23  26
ATOM     26  C   UNL     1      37.401   9.786  16.700  0.00  0.00    +0.000 C 
BRANCH  26  27
ATOM     27  C   UNL     1      36.598   8.991  15.769  0.00  0.00    +0.000 A 
ATOM     28  C   UNL     1      37.086   7.763  15.374  0.00  0.00    +0.000 A 
ATOM     29  C   UNL     1      36.383   6.979  14.510  0.00  0.00    +0.000 A 
ATOM     30  C   UNL     1      35.177   7.400  14.019  0.00  0.00    +0.000 A 
ATOM     31  C   UNL     1      34.671   8.613  14.396  0.00  0.00    +0.000 A 
ATOM     32  C   UNL     1      35.389   9.399  15.270  0.00  0.00    +0.000 A 
ENDBRANCH  26  27
ENDBRANCH  23  26
ENDBRANCH  19  20
ENDBRANCH  18  19
ENDBRANCH   2  18
TORSDOF 7
ENDMDL
MODEL 5
REMARK VINA RESULT:      -6.9      1.580      3.013
REMARK  Name = 
REMARK  7 active torsions:
REMARK  status: ('A' for Active; 'I' for Inactive)
REMARK    1  A    between atoms: C_2  and  C_3
REMARK    2  A    between atoms: C_2  and  C_18
REMARK    3  A    between atoms: C_3  and  C_4
REMARK    4  A    between atoms: C_4  and  C_5
REMARK    5  A    between atoms: N_8  and  C_9
REMARK    6  A    between atoms: C_9  and  C_10
REMARK    7  A    between atoms: N_26  and  C_27
REMARK                            x       y       z     vdW  Elec       q    Type
REMARK                         _______ _______ _______ _____ _____    ______ ____
ROOT
ATOM      1  O   UNL     1      41.363  -0.275  13.455  0.00  0.00    +0.000 OA
ATOM      2  C   UNL     1      41.297  -1.629  12.696  0.00  0.00    +0.000 C 
ENDROOT
BRANCH   2   3
ATOM      3  C   UNL     1      40.084  -2.240  13.577  0.00  0.00    +0.000 A 
ATOM      4  C   UNL     1      39.075  -2.842  12.880  0.00  0.00    +0.000 A 
ATOM      5  C   UNL     1      38.026  -3.382  13.617  0.00  0.00    +0.000 A 
ATOM      6  C   UNL     1      38.047  -3.287  15.000  0.00  0.00    +0.000 A 
ATOM      7  C   UNL     1      39.086  -2.670  15.655  0.00  0.00    +0.000 A 
ATOM      8  C   UNL     1      40.105  -2.150  14.892  0.00  0.00    +0.000 A 
ATOM      9  C   UNL     1      38.866  -2.700  17.152  0.00  0.00    +0.000 C 
ATOM     10  C   UNL     1      37.778  -3.703  17.292  0.00  0.00    +0.000 C 
ATOM     11  N   UNL     1      37.116  -3.747  15.997  0.00  0.00    +0.000 N 
BRANCH  11  12
ATOM     12  C   UNL     1      35.789  -4.167  15.755  0.00  0.00    +0.000 A 
ATOM     13  C   UNL     1      34.706  -3.316  15.779  0.00  0.00    +0.000 A 
ATOM     14  C   UNL     1      33.433  -3.838  15.523  0.00  0.00    +0.000 A 
ATOM     15  N   UNL     1      33.215  -5.133  15.255  0.00  0.00    +0.000 NA
ATOM     16  C   UNL     1      34.261  -5.971  15.229  0.00  0.00    +0.000 A 
ATOM     17  C   UNL     1      35.527  -5.490  15.476  0.00  0.00    +0.000 A 
ENDBRANCH  11  12
ENDBRANCH   2   3
BRANCH   2  18
ATOM     18  C   UNL     1      40.292  -0.972  11.552  0.00  0.00    +0.000 C 
BRANCH  18  19
ATOM     19  C   UNL     1      40.354   0.521  11.810  0.00  0.00    +0.000 C 
BRANCH  19  20
ATOM     20  C   UNL     1      39.063   1.168  11.957  0.00  0.00    +0.000 C 
ATOM     21  C   UNL     1      38.983   2.629  11.865  0.00  0.00    +0.000 C 
ATOM     22  C   UNL     1      37.598   3.127  12.166  0.00  0.00    +0.000 C 
ATOM     23  N   UNL     1      36.882   2.310  13.090  0.00  0.00    +0.000 NA
ATOM     24  C   UNL     1      36.663   0.960  12.649  0.00  0.00    +0.000 C 
ATOM     25  C   UNL     1      37.842   0.384  11.909  0.00  0.00    +0.000 C 
BRANCH  23  26
ATOM     26  C   UNL     1      37.385   2.390  14.441  0.00  0.00    +0.000 C 
BRANCH  26  27
ATOM     27  C   UNL     1      36.557   1.671  15.411  0.00  0.00    +0.000 A 
ATOM     28  C   UNL     1      36.995   0.439  15.852  0.00  0.00    +0.000 A 
ATOM     29  C   UNL     1      36.268  -0.276  16.754  0.00  0.00    +0.000 A 
ATOM     30  C   UNL     1      35.086   0.218  17.239  0.00  0.00    +0.000 A 
ATOM     31  C   UNL     1      34.632   1.436  16.817  0.00  0.00    +0.000 A 
ATOM     32  C   UNL     1      35.374   2.152  15.905  0.00  0.00    +0.000 A 
ENDBRANCH  26  27
ENDBRANCH  23  26
ENDBRANCH  19  20
ENDBRANCH  18  19
ENDBRANCH   2  18
TORSDOF 7
ENDMDL
MODEL 6
REMARK VINA RESULT:      -6.8      3.314      6.354
REMARK  Name = 
REMARK  7 active torsions:
REMARK  status: ('A' for Active; 'I' for Inactive)
REMARK    1  A    between atoms: C_2  and  C_3
REMARK    2  A    between atoms: C_2  and  C_18
REMARK    3  A    between atoms: C_3  and  C_4
REMARK    4  A    between atoms: C_4  and  C_5
REMARK    5  A    between atoms: N_8  and  C_9
REMARK    6  A    between atoms: C_9  and  C_10
REMARK    7  A    between atoms: N_26  and  C_27
REMARK                            x       y       z     vdW  Elec       q    Type
REMARK                         _______ _______ _______ _____ _____    ______ ____
ROOT
ATOM      1  O   UNL     1      35.472  -2.464  15.625  0.00  0.00    +0.000 OA
ATOM      2  C   UNL     1      36.717  -2.570  16.547  0.00  0.00    +0.000 C 
ENDROOT
BRANCH   2   3
ATOM      3  C   UNL     1      37.804  -2.432  15.355  0.00  0.00    +0.000 A 
ATOM      4  C   UNL     1      37.509  -3.078  14.189  0.00  0.00    +0.000 A 
ATOM      5  C   UNL     1      38.426  -2.968  13.149  0.00  0.00    +0.000 A 
ATOM      6  C   UNL     1      39.579  -2.222  13.336  0.00  0.00    +0.000 A 
ATOM      7  C   UNL     1      39.832  -1.590  14.530  0.00  0.00    +0.000 A 
ATOM      8  C   UNL     1      38.902  -1.722  15.534  0.00  0.00    +0.000 A 
ATOM      9  C   UNL     1      41.151  -0.850  14.473  0.00  0.00    +0.000 C 
ATOM     10  C   UNL     1      41.444  -0.836  13.016  0.00  0.00    +0.000 C 
ATOM     11  N   UNL     1      40.680  -1.939  12.452  0.00  0.00    +0.000 N 
BRANCH  11  12
ATOM     12  C   UNL     1      40.965  -2.618  11.247  0.00  0.00    +0.000 A 
ATOM     13  C   UNL     1      41.735  -3.758  11.180  0.00  0.00    +0.000 A 
ATOM     14  C   UNL     1      41.955  -4.352   9.932  0.00  0.00    +0.000 A 
ATOM     15  N   UNL     1      41.450  -3.862   8.792  0.00  0.00    +0.000 NA
ATOM     16  C   UNL     1      40.698  -2.753   8.843  0.00  0.00    +0.000 A 
ATOM     17  C   UNL     1      40.463  -2.144  10.055  0.00  0.00    +0.000 A 
ENDBRANCH  11  12
ENDBRANCH   2   3
BRANCH   2  18
ATOM     18  C   UNL     1      36.668  -0.940  16.849  0.00  0.00    +0.000 C 
BRANCH  18  19
ATOM     19  C   UNL     1      35.560  -0.425  15.951  0.00  0.00    +0.000 C 
BRANCH  19  20
ATOM     20  C   UNL     1      35.693   0.967  15.556  0.00  0.00    +0.000 C 
ATOM     21  C   UNL     1      36.187   1.283  14.213  0.00  0.00    +0.000 C 
ATOM     22  C   UNL     1      36.377   2.762  14.027  0.00  0.00    +0.000 C 
ATOM     23  N   UNL     1      36.726   3.451  15.227  0.00  0.00    +0.000 NA
ATOM     24  C   UNL     1      35.742   3.369  16.271  0.00  0.00    +0.000 C 
ATOM     25  C   UNL     1      35.086   2.015  16.357  0.00  0.00    +0.000 C 
BRANCH  23  26
ATOM     26  C   UNL     1      38.064   3.165  15.687  0.00  0.00    +0.000 C 
BRANCH  26  27
ATOM     27  C   UNL     1      38.656   4.260  16.459  0.00  0.00    +0.000 A 
ATOM     28  C   UNL     1      39.437   5.179  15.790  0.00  0.00    +0.000 A 
ATOM     29  C   UNL     1      40.014   6.218  16.454  0.00  0.00    +0.000 A 
ATOM     30  C   UNL     1      39.826   6.367  17.802  0.00  0.00    +0.000 A 
ATOM     31  C   UNL     1      39.057   5.470  18.488  0.00  0.00    +0.000 A 
ATOM     32  C   UNL     1      38.478   4.422  17.808  0.00  0.00    +0.000 A 
ENDBRANCH  26  27
ENDBRANCH  23  26
ENDBRANCH  19  20
ENDBRANCH  18  19
ENDBRANCH   2  18
TORSDOF 7
ENDMDL
MODEL 7
REMARK VINA RESULT:      -6.8      5.199      6.696
REMARK  Name = 
REMARK  7 active torsions:
REMARK  status: ('A' for Active; 'I' for Inactive)
REMARK    1  A    between atoms: C_2  and  C_3
REMARK    2  A    between atoms: C_2  and  C_18
REMARK    3  A    between atoms: C_3  and  C_4
REMARK    4  A    between atoms: C_4  and  C_5
REMARK    5  A    between atoms: N_8  and  C_9
REMARK    6  A    between atoms: C_9  and  C_10
REMARK    7  A    between atoms: N_26  and  C_27
REMARK                            x       y       z     vdW  Elec       q    Type
REMARK                         _______ _______ _______ _____ _____    ______ ____
ROOT
ATOM      1  O   UNL     1      38.309   3.743  13.083  0.00  0.00    +0.000 OA
ATOM      2  C   UNL     1      36.774   3.778  13.318  0.00  0.00    +0.000 C 
ENDROOT
BRANCH   2   3
ATOM      3  C   UNL     1      36.738   2.490  14.298  0.00  0.00    +0.000 A 
ATOM      4  C   UNL     1      37.726   1.564  14.118  0.00  0.00    +0.000 A 
ATOM      5  C   UNL     1      37.719   0.453  14.954  0.00  0.00    +0.000 A 
ATOM      6  C   UNL     1      36.728   0.333  15.916  0.00  0.00    +0.000 A 
ATOM      7  C   UNL     1      35.755   1.293  16.058  0.00  0.00    +0.000 A 
ATOM      8  C   UNL     1      35.795   2.377  15.213  0.00  0.00    +0.000 A 
ATOM      9  C   UNL     1      34.799   0.922  17.173  0.00  0.00    +0.000 C 
ATOM     10  C   UNL     1      35.537  -0.161  17.874  0.00  0.00    +0.000 C 
ATOM     11  N   UNL     1      36.480  -0.688  16.901  0.00  0.00    +0.000 N 
BRANCH  11  12
ATOM     12  C   UNL     1      37.056  -1.978  16.914  0.00  0.00    +0.000 A 
ATOM     13  C   UNL     1      36.490  -3.070  16.293  0.00  0.00    +0.000 A 
ATOM     14  C   UNL     1      37.146  -4.304  16.367  0.00  0.00    +0.000 A 
ATOM     15  N   UNL     1      38.305  -4.476  17.017  0.00  0.00    +0.000 NA
ATOM     16  C   UNL     1      38.867  -3.421  17.625  0.00  0.00    +0.000 A 
ATOM     17  C   UNL     1      38.247  -2.193  17.571  0.00  0.00    +0.000 A 
ENDBRANCH  11  12
ENDBRANCH   2   3
BRANCH   2  18
ATOM     18  C   UNL     1      36.959   4.864  14.557  0.00  0.00    +0.000 C 
BRANCH  18  19
ATOM     19  C   UNL     1      38.460   5.031  14.690  0.00  0.00    +0.000 C 
BRANCH  19  20
ATOM     20  C   UNL     1      38.926   5.313  16.036  0.00  0.00    +0.000 C 
ATOM     21  C   UNL     1      38.385   4.537  17.155  0.00  0.00    +0.000 C 
ATOM     22  C   UNL     1      38.883   5.049  18.477  0.00  0.00    +0.000 C 
ATOM     23  N   UNL     1      39.149   6.450  18.486  0.00  0.00    +0.000 NA
ATOM     24  C   UNL     1      40.163   6.873  17.559  0.00  0.00    +0.000 C 
ATOM     25  C   UNL     1      40.102   6.138  16.245  0.00  0.00    +0.000 C 
BRANCH  23  26
ATOM     26  C   UNL     1      37.957   7.263  18.430  0.00  0.00    +0.000 C 
BRANCH  26  27
ATOM     27  C   UNL     1      38.092   8.538  19.138  0.00  0.00    +0.000 A 
ATOM     28  C   UNL     1      38.467   8.507  20.465  0.00  0.00    +0.000 A 
ATOM     29  C   UNL     1      38.609   9.660  21.175  0.00  0.00    +0.000 A 
ATOM     30  C   UNL     1      38.380  10.872  20.580  0.00  0.00    +0.000 A 
ATOM     31  C   UNL     1      38.007  10.929  19.267  0.00  0.00    +0.000 A 
ATOM     32  C   UNL     1      37.866   9.758  18.556  0.00  0.00    +0.000 A 
ENDBRANCH  26  27
ENDBRANCH  23  26
ENDBRANCH  19  20
ENDBRANCH  18  19
ENDBRANCH   2  18
TORSDOF 7
ENDMDL
MODEL 8
REMARK VINA RESULT:      -6.7      3.663      5.761
REMARK  Name = 
REMARK  7 active torsions:
REMARK  status: ('A' for Active; 'I' for Inactive)
REMARK    1  A    between atoms: C_2  and  C_3
REMARK    2  A    between atoms: C_2  and  C_18
REMARK    3  A    between atoms: C_3  and  C_4
REMARK    4  A    between atoms: C_4  and  C_5
REMARK    5  A    between atoms: N_8  and  C_9
REMARK    6  A    between atoms: C_9  and  C_10
REMARK    7  A    between atoms: N_26  and  C_27
REMARK                            x       y       z     vdW  Elec       q    Type
REMARK                         _______ _______ _______ _____ _____    ______ ____
ROOT
ATOM      1  O   UNL     1      35.707  -2.220  15.012  0.00  0.00    +0.000 OA
ATOM      2  C   UNL     1      36.606  -2.622  16.212  0.00  0.00    +0.000 C 
ENDROOT
BRANCH   2   3
ATOM      3  C   UNL     1      37.994  -2.607  15.379  0.00  0.00    +0.000 A 
ATOM      4  C   UNL     1      39.136  -2.803  16.102  0.00  0.00    +0.000 A 
ATOM      5  C   UNL     1      40.340  -2.802  15.405  0.00  0.00    +0.000 A 
ATOM      6  C   UNL     1      40.330  -2.604  14.032  0.00  0.00    +0.000 A 
ATOM      7  C   UNL     1      39.153  -2.411  13.350  0.00  0.00    +0.000 A 
ATOM      8  C   UNL     1      37.984  -2.420  14.073  0.00  0.00    +0.000 A 
ATOM      9  C   UNL     1      39.419  -2.219  11.872  0.00  0.00    +0.000 C 
ATOM     10  C   UNL     1      40.828  -2.674  11.743  0.00  0.00    +0.000 C 
ATOM     11  N   UNL     1      41.403  -2.557  13.073  0.00  0.00    +0.000 N 
BRANCH  11  12
ATOM     12  C   UNL     1      42.775  -2.418  13.377  0.00  0.00    +0.000 A 
ATOM     13  C   UNL     1      43.269  -1.478  14.256  0.00  0.00    +0.000 A 
ATOM     14  C   UNL     1      44.648  -1.429  14.486  0.00  0.00    +0.000 A 
ATOM     15  N   UNL     1      45.518  -2.254  13.889  0.00  0.00    +0.000 NA
ATOM     16  C   UNL     1      45.050  -3.174  13.032  0.00  0.00    +0.000 A 
ATOM     17  C   UNL     1      43.699  -3.250  12.783  0.00  0.00    +0.000 A 
ENDBRANCH  11  12
ENDBRANCH   2   3
BRANCH   2  18
ATOM     18  C   UNL     1      36.735  -1.038  16.684  0.00  0.00    +0.000 C 
BRANCH  18  19
ATOM     19  C   UNL     1      35.782  -0.295  15.769  0.00  0.00    +0.000 C 
BRANCH  19  20
ATOM     20  C   UNL     1      36.247   1.010  15.333  0.00  0.00    +0.000 C 
ATOM     21  C   UNL     1      37.670   1.197  15.036  0.00  0.00    +0.000 C 
ATOM     22  C   UNL     1      37.988   2.632  14.724  0.00  0.00    +0.000 C 
ATOM     23  N   UNL     1      37.149   3.565  15.403  0.00  0.00    +0.000 NA
ATOM     24  C   UNL     1      35.751   3.454  15.084  0.00  0.00    +0.000 C 
ATOM     25  C   UNL     1      35.295   2.027  14.924  0.00  0.00    +0.000 C 
BRANCH  23  26
ATOM     26  C   UNL     1      37.401   3.642  16.822  0.00  0.00    +0.000 C 
BRANCH  26  27
ATOM     27  C   UNL     1      38.492   4.555  17.168  0.00  0.00    +0.000 A 
ATOM     28  C   UNL     1      39.275   5.048  16.144  0.00  0.00    +0.000 A 
ATOM     29  C   UNL     1      40.304   5.902  16.404  0.00  0.00    +0.000 A 
ATOM     30  C   UNL     1      40.578   6.285  17.690  0.00  0.00    +0.000 A 
ATOM     31  C   UNL     1      39.817   5.810  18.721  0.00  0.00    +0.000 A 
ATOM     32  C   UNL     1      38.778   4.947  18.449  0.00  0.00    +0.000 A 
ENDBRANCH  26  27
ENDBRANCH  23  26
ENDBRANCH  19  20
ENDBRANCH  18  19
ENDBRANCH   2  18
TORSDOF 7
ENDMDL
MODEL 9
REMARK VINA RESULT:      -6.6      7.071     10.293
REMARK  Name = 
REMARK  7 active torsions:
REMARK  status: ('A' for Active; 'I' for Inactive)
REMARK    1  A    between atoms: C_2  and  C_3
REMARK    2  A    between atoms: C_2  and  C_18
REMARK    3  A    between atoms: C_3  and  C_4
REMARK    4  A    between atoms: C_4  and  C_5
REMARK    5  A    between atoms: N_8  and  C_9
REMARK    6  A    between atoms: C_9  and  C_10
REMARK    7  A    between atoms: N_26  and  C_27
REMARK                            x       y       z     vdW  Elec       q    Type
REMARK                         _______ _______ _______ _____ _____    ______ ____
ROOT
ATOM      1  O   UNL     1      34.153   7.568  12.263  0.00  0.00    +0.000 OA
ATOM      2  C   UNL     1      35.646   7.210  12.495  0.00  0.00    +0.000 C 
ENDROOT
BRANCH   2   3
ATOM      3  C   UNL     1      35.762   7.950  13.930  0.00  0.00    +0.000 A 
ATOM      4  C   UNL     1      37.000   7.959  14.508  0.00  0.00    +0.000 A 
ATOM      5  C   UNL     1      37.125   8.596  15.738  0.00  0.00    +0.000 A 
ATOM      6  C   UNL     1      36.009   9.183  16.315  0.00  0.00    +0.000 A 
ATOM      7  C   UNL     1      34.785   9.148  15.693  0.00  0.00    +0.000 A 
ATOM      8  C   UNL     1      34.701   8.509  14.478  0.00  0.00    +0.000 A 
ATOM      9  C   UNL     1      33.741   9.856  16.530  0.00  0.00    +0.000 C 
ATOM     10  C   UNL     1      34.574  10.598  17.513  0.00  0.00    +0.000 C 
ATOM     11  N   UNL     1      35.848   9.899  17.555  0.00  0.00    +0.000 N 
BRANCH  11  12
ATOM     12  C   UNL     1      36.771   9.914  18.623  0.00  0.00    +0.000 A 
ATOM     13  C   UNL     1      36.995   8.836  19.451  0.00  0.00    +0.000 A 
ATOM     14  C   UNL     1      37.935   8.959  20.481  0.00  0.00    +0.000 A 
ATOM     15  N   UNL     1      38.631  10.082  20.703  0.00  0.00    +0.000 NA
ATOM     16  C   UNL     1      38.423  11.139  19.904  0.00  0.00    +0.000 A 
ATOM     17  C   UNL     1      37.506  11.051  18.881  0.00  0.00    +0.000 A 
ENDBRANCH  11  12
ENDBRANCH   2   3
BRANCH   2  18
ATOM     18  C   UNL     1      35.223   5.747  13.152  0.00  0.00    +0.000 C 
BRANCH  18  19
ATOM     19  C   UNL     1      36.380   4.831  12.805  0.00  0.00    +0.000 C 
BRANCH  19  20
ATOM     20  C   UNL     1      37.098   4.296  13.948  0.00  0.00    +0.000 C 
ATOM     21  C   UNL     1      36.401   4.167  15.231  0.00  0.00    +0.000 C 
ATOM     22  C   UNL     1      37.330   3.718  16.323  0.00  0.00    +0.000 C 
ATOM     23  N   UNL     1      38.677   4.154  16.146  0.00  0.00    +0.000 NA
ATOM     24  C   UNL     1      39.309   3.671  14.949  0.00  0.00    +0.000 C 
ATOM     25  C   UNL     1      38.379   3.637  13.764  0.00  0.00    +0.000 C 
BRANCH  23  26
ATOM     26  C   UNL     1      38.855   5.572  16.347  0.00  0.00    +0.000 C 
BRANCH  26  27
ATOM     27  C   UNL     1      39.814   5.891  17.407  0.00  0.00    +0.000 A 
ATOM     28  C   UNL     1      39.367   5.877  18.712  0.00  0.00    +0.000 A 
ATOM     29  C   UNL     1      40.212   6.165  19.740  0.00  0.00    +0.000 A 
ATOM     30  C   UNL     1      41.523   6.473  19.494  0.00  0.00    +0.000 A 
ATOM     31  C   UNL     1      41.990   6.493  18.209  0.00  0.00    +0.000 A 
ATOM     32  C   UNL     1      41.128   6.201  17.176  0.00  0.00    +0.000 A 
ENDBRANCH  26  27
ENDBRANCH  23  26
ENDBRANCH  19  20
ENDBRANCH  18  19
ENDBRANCH   2  18
TORSDOF 7
ENDMDL
MODEL 10
REMARK VINA RESULT:      -6.5      6.320      7.671
REMARK  Name = 
REMARK  7 active torsions:
REMARK  status: ('A' for Active; 'I' for Inactive)
REMARK    1  A    between atoms: C_2  and  C_3
REMARK    2  A    between atoms: C_2  and  C_18
REMARK    3  A    between atoms: C_3  and  C_4
REMARK    4  A    between atoms: C_4  and  C_5
REMARK    5  A    between atoms: N_8  and  C_9
REMARK    6  A    between atoms: C_9  and  C_10
REMARK    7  A    between atoms: N_26  and  C_27
REMARK                            x       y       z     vdW  Elec       q    Type
REMARK                         _______ _______ _______ _____ _____    ______ ____
ROOT
ATOM      1  O   UNL     1      39.069   4.450  14.457  0.00  0.00    +0.000 OA
ATOM      2  C   UNL     1      37.651   3.998  14.898  0.00  0.00    +0.000 C 
ENDROOT
BRANCH   2   3
ATOM      3  C   UNL     1      37.996   2.416  14.930  0.00  0.00    +0.000 A 
ATOM      4  C   UNL     1      37.001   1.589  15.368  0.00  0.00    +0.000 A 
ATOM      5  C   UNL     1      37.273   0.225  15.397  0.00  0.00    +0.000 A 
ATOM      6  C   UNL     1      38.518  -0.229  14.989  0.00  0.00    +0.000 A 
ATOM      7  C   UNL     1      39.486   0.645  14.556  0.00  0.00    +0.000 A 
ATOM      8  C   UNL     1      39.180   1.986  14.542  0.00  0.00    +0.000 A 
ATOM      9  C   UNL     1      40.746  -0.103  14.173  0.00  0.00    +0.000 C 
ATOM     10  C   UNL     1      40.269  -1.508  14.098  0.00  0.00    +0.000 C 
ATOM     11  N   UNL     1      39.065  -1.559  14.912  0.00  0.00    +0.000 N 
BRANCH  11  12
ATOM     12  C   UNL     1      38.523  -2.709  15.526  0.00  0.00    +0.000 A 
ATOM     13  C   UNL     1      39.035  -3.272  16.674  0.00  0.00    +0.000 A 
ATOM     14  C   UNL     1      38.418  -4.414  17.199  0.00  0.00    +0.000 A 
ATOM     15  N   UNL     1      37.348  -4.990  16.635  0.00  0.00    +0.000 NA
ATOM     16  C   UNL     1      36.839  -4.451  15.517  0.00  0.00    +0.000 A 
ATOM     17  C   UNL     1      37.422  -3.328  14.975  0.00  0.00    +0.000 A 
ENDBRANCH  11  12
ENDBRANCH   2   3
BRANCH   2  18
ATOM     18  C   UNL     1      38.040   4.235  16.493  0.00  0.00    +0.000 C 
BRANCH  18  19
ATOM     19  C   UNL     1      39.397   4.909  16.452  0.00  0.00    +0.000 C 
BRANCH  19  20
ATOM     20  C   UNL     1      39.583   5.964  17.433  0.00  0.00    +0.000 C 
ATOM     21  C   UNL     1      40.013   7.290  16.981  0.00  0.00    +0.000 C 
ATOM     22  C   UNL     1      40.274   8.212  18.138  0.00  0.00    +0.000 C 
ATOM     23  N   UNL     1      40.731   7.544  19.313  0.00  0.00    +0.000 NA
ATOM     24  C   UNL     1      39.807   6.583  19.852  0.00  0.00    +0.000 C 
ATOM     25  C   UNL     1      39.083   5.800  18.786  0.00  0.00    +0.000 C 
BRANCH  23  26
ATOM     26  C   UNL     1      42.076   7.032  19.199  0.00  0.00    +0.000 C 
BRANCH  26  27
ATOM     27  C   UNL     1      42.834   7.114  20.449  0.00  0.00    +0.000 A 
ATOM     28  C   UNL     1      43.219   8.361  20.895  0.00  0.00    +0.000 A 
ATOM     29  C   UNL     1      43.926   8.500  22.050  0.00  0.00    +0.000 A 
ATOM     30  C   UNL     1      44.266   7.399  22.790  0.00  0.00    +0.000 A 
ATOM     31  C   UNL     1      43.896   6.153  22.370  0.00  0.00    +0.000 A 
ATOM     32  C   UNL     1      43.182   6.022  21.200  0.00  0.00    +0.000 A 
ENDBRANCH  26  27
ENDBRANCH  23  26
ENDBRANCH  19  20
ENDBRANCH  18  19
ENDBRANCH   2  18
TORSDOF 7
ENDMDL
