MODEL 1
REMARK VINA RESULT:      -7.3      0.000      0.000
REMARK  Name = 
REMARK  4 active torsions:
REMARK  status: ('A' for Active; 'I' for Inactive)
REMARK    1  A    between atoms: C_4  and  C_5
REMARK    2  A    between atoms: N_9  and  C_10
REMARK    3  A    between atoms: C_10  and  C_11
REMARK    4  A    between atoms: C_11  and  C_12
REMARK                            x       y       z     vdW  Elec       q    Type
REMARK                         _______ _______ _______ _____ _____    ______ ____
ROOT
ATOM      1  C   UNL     1      16.836  11.539  35.276  0.00  0.00    +0.000 C 
ENDROOT
BRANCH   1   8
ATOM      2  C   UNL     1      14.443  12.071  37.127  0.00  0.00    +0.000 C 
ATOM      3  C   UNL     1      15.657  11.281  37.475  0.00  0.00    +0.000 A 
ATOM      4  C   UNL     1      15.885  10.673  38.683  0.00  0.00    +0.000 A 
ATOM      5  C   UNL     1      17.124  10.056  38.569  0.00  0.00    +0.000 A 
ATOM      6  C   UNL     1      17.593  10.315  37.308  0.00  0.00    +0.000 A 
ATOM      7  C   UNL     1      18.877   9.848  36.761  0.00  0.00    +0.000 C 
ATOM      8  N   UNL     1      16.695  11.055  36.661  0.00  0.00    +0.000 N 
BRANCH   5   9
ATOM      9  C   UNL     1      17.777   9.279  39.634  0.00  0.00    +0.000 C 
ATOM     10  O   UNL     1      17.756   9.769  40.791  0.00  0.00    +0.000 OA
ENDBRANCH   5   9
ENDBRANCH   1   8
BRANCH   1  11
ATOM     11  C   UNL     1      16.121  10.552  34.380  0.00  0.00    +0.000 C 
BRANCH  11  12
ATOM     12  C   UNL     1      15.842  11.086  33.049  0.00  0.00    +0.000 A 
ATOM     13  C   UNL     1      16.301  10.583  31.860  0.00  0.00    +0.000 A 
ATOM     14  N   UNL     1      15.833  11.341  30.857  0.00  0.00    +0.000 NA
ATOM     15  C   UNL     1      15.072  12.335  31.384  0.00  0.00    +0.000 A 
ATOM     16  C   UNL     1      14.373  13.368  30.777  0.00  0.00    +0.000 A 
ATOM     17  C   UNL     1      13.658  14.274  31.534  0.00  0.00    +0.000 A 
ATOM     18  C   UNL     1      13.667  14.109  32.902  0.00  0.00    +0.000 A 
ATOM     19  C   UNL     1      14.354  13.091  33.506  0.00  0.00    +0.000 A 
ATOM     20  C   UNL     1      15.068  12.189  32.750  0.00  0.00    +0.000 A 
ENDBRANCH  11  12
ENDBRANCH   1  11
TORSDOF 4
ENDMDL
MODEL 2
REMARK VINA RESULT:      -7.3      1.544      2.550
REMARK  Name = 
REMARK  4 active torsions:
REMARK  status: ('A' for Active; 'I' for Inactive)
REMARK    1  A    between atoms: C_4  and  C_5
REMARK    2  A    between atoms: N_9  and  C_10
REMARK    3  A    between atoms: C_10  and  C_11
REMARK    4  A    between atoms: C_11  and  C_12
REMARK                            x       y       z     vdW  Elec       q    Type
REMARK                         _______ _______ _______ _____ _____    ______ ____
ROOT
ATOM      1  C   UNL     1      16.213  11.901  35.519  0.00  0.00    +0.000 C 
ENDROOT
BRANCH   1   8
ATOM      2  C   UNL     1      17.851  10.462  37.683  0.00  0.00    +0.000 C 
ATOM      3  C   UNL     1      16.398  10.784  37.757  0.00  0.00    +0.000 A 
ATOM      4  C   UNL     1      15.575  10.482  38.811  0.00  0.00    +0.000 A 
ATOM      5  C   UNL     1      14.319  10.960  38.461  0.00  0.00    +0.000 A 
ATOM      6  C   UNL     1      14.432  11.527  37.219  0.00  0.00    +0.000 A 
ATOM      7  C   UNL     1      13.336  12.158  36.465  0.00  0.00    +0.000 C 
ATOM      8  N   UNL     1      15.693  11.413  36.809  0.00  0.00    +0.000 N 
BRANCH   5   9
ATOM      9  C   UNL     1      13.115  10.854  39.300  0.00  0.00    +0.000 C 
ATOM     10  O   UNL     1      12.372   9.859  39.107  0.00  0.00    +0.000 OA
ENDBRANCH   5   9
ENDBRANCH   1   8
BRANCH   1  11
ATOM     11  C   UNL     1      16.036  10.786  34.513  0.00  0.00    +0.000 C 
BRANCH  11  12
ATOM     12  C   UNL     1      15.822  11.273  33.152  0.00  0.00    +0.000 A 
ATOM     13  C   UNL     1      16.359  10.746  32.007  0.00  0.00    +0.000 A 
ATOM     14  N   UNL     1      15.932  11.462  30.956  0.00  0.00    +0.000 NA
ATOM     15  C   UNL     1      15.120  12.452  31.408  0.00  0.00    +0.000 A 
ATOM     16  C   UNL     1      14.433  13.450  30.730  0.00  0.00    +0.000 A 
ATOM     17  C   UNL     1      13.656  14.360  31.417  0.00  0.00    +0.000 A 
ATOM     18  C   UNL     1      13.590  14.237  32.788  0.00  0.00    +0.000 A 
ATOM     19  C   UNL     1      14.265  13.254  33.461  0.00  0.00    +0.000 A 
ATOM     20  C   UNL     1      15.041  12.348  32.776  0.00  0.00    +0.000 A 
ENDBRANCH  11  12
ENDBRANCH   1  11
TORSDOF 4
ENDMDL
MODEL 3
REMARK VINA RESULT:      -7.2      1.622      2.628
REMARK  Name = 
REMARK  4 active torsions:
REMARK  status: ('A' for Active; 'I' for Inactive)
REMARK    1  A    between atoms: C_4  and  C_5
REMARK    2  A    between atoms: N_9  and  C_10
REMARK    3  A    between atoms: C_10  and  C_11
REMARK    4  A    between atoms: C_11  and  C_12
REMARK                            x       y       z     vdW  Elec       q    Type
REMARK                         _______ _______ _______ _____ _____    ______ ____
ROOT
ATOM      1  C   UNL     1      14.579  11.477  35.655  0.00  0.00    +0.000 C 
ENDROOT
BRANCH   1   8
ATOM      2  C   UNL     1      14.320  11.063  38.688  0.00  0.00    +0.000 C 
ATOM      3  C   UNL     1      15.538  10.798  37.872  0.00  0.00    +0.000 A 
ATOM      4  C   UNL     1      16.730  10.328  38.360  0.00  0.00    +0.000 A 
ATOM      5  C   UNL     1      17.577  10.230  37.264  0.00  0.00    +0.000 A 
ATOM      6  C   UNL     1      16.870  10.642  36.166  0.00  0.00    +0.000 A 
ATOM      7  C   UNL     1      17.386  10.699  34.788  0.00  0.00    +0.000 C 
ATOM      8  N   UNL     1      15.641  10.981  36.550  0.00  0.00    +0.000 N 
BRANCH   5   9
ATOM      9  C   UNL     1      18.972   9.764  37.318  0.00  0.00    +0.000 C 
ATOM     10  O   UNL     1      19.364   9.268  38.404  0.00  0.00    +0.000 OA
ENDBRANCH   5   9
ENDBRANCH   1   8
BRANCH   1  11
ATOM     11  C   UNL     1      14.668  12.987  35.649  0.00  0.00    +0.000 C 
BRANCH  11  12
ATOM     12  C   UNL     1      14.177  13.583  34.408  0.00  0.00    +0.000 A 
ATOM     13  C   UNL     1      13.411  14.713  34.297  0.00  0.00    +0.000 A 
ATOM     14  N   UNL     1      13.161  14.945  32.999  0.00  0.00    +0.000 NA
ATOM     15  C   UNL     1      13.759  13.973  32.263  0.00  0.00    +0.000 A 
ATOM     16  C   UNL     1      13.800  13.762  30.892  0.00  0.00    +0.000 A 
ATOM     17  C   UNL     1      14.483  12.684  30.367  0.00  0.00    +0.000 A 
ATOM     18  C   UNL     1      15.116  11.837  31.251  0.00  0.00    +0.000 A 
ATOM     19  C   UNL     1      15.079  12.041  32.603  0.00  0.00    +0.000 A 
ATOM     20  C   UNL     1      14.396  13.115  33.127  0.00  0.00    +0.000 A 
ENDBRANCH  11  12
ENDBRANCH   1  11
TORSDOF 4
ENDMDL
MODEL 4
REMARK VINA RESULT:      -7.0      3.289      7.113
REMARK  Name = 
REMARK  4 active torsions:
REMARK  status: ('A' for Active; 'I' for Inactive)
REMARK    1  A    between atoms: C_4  and  C_5
REMARK    2  A    between atoms: N_9  and  C_10
REMARK    3  A    between atoms: C_10  and  C_11
REMARK    4  A    between atoms: C_11  and  C_12
REMARK                            x       y       z     vdW  Elec       q    Type
REMARK                         _______ _______ _______ _____ _____    ______ ____
ROOT
ATOM      1  C   UNL     1      15.040  11.986  35.953  0.00  0.00    +0.000 C 
ENDROOT
BRANCH   1   8
ATOM      2  C   UNL     1      16.485  10.359  33.784  0.00  0.00    +0.000 C 
ATOM      3  C   UNL     1      15.592  11.528  33.549  0.00  0.00    +0.000 A 
ATOM      4  C   UNL     1      15.283  12.052  32.320  0.00  0.00    +0.000 A 
ATOM      5  C   UNL     1      14.429  13.120  32.566  0.00  0.00    +0.000 A 
ATOM      6  C   UNL     1      14.258  13.199  33.923  0.00  0.00    +0.000 A 
ATOM      7  C   UNL     1      13.426  14.191  34.623  0.00  0.00    +0.000 C 
ATOM      8  N   UNL     1      14.966  12.231  34.501  0.00  0.00    +0.000 N 
BRANCH   5   9
ATOM      9  C   UNL     1      13.841  13.982  31.529  0.00  0.00    +0.000 C 
ATOM     10  O   UNL     1      14.362  15.114  31.368  0.00  0.00    +0.000 OA
ENDBRANCH   5   9
ENDBRANCH   1   8
BRANCH   1  11
ATOM     11  C   UNL     1      16.259  12.717  36.469  0.00  0.00    +0.000 C 
BRANCH  11  12
ATOM     12  C   UNL     1      17.182  11.847  37.195  0.00  0.00    +0.000 A 
ATOM     13  C   UNL     1      16.986  10.525  37.494  0.00  0.00    +0.000 A 
ATOM     14  N   UNL     1      18.053  10.068  38.167  0.00  0.00    +0.000 NA
ATOM     15  C   UNL     1      18.943  11.084  38.308  0.00  0.00    +0.000 A 
ATOM     16  C   UNL     1      20.188  11.127  38.920  0.00  0.00    +0.000 A 
ATOM     17  C   UNL     1      20.923  12.295  38.938  0.00  0.00    +0.000 A 
ATOM     18  C   UNL     1      20.375  13.403  38.328  0.00  0.00    +0.000 A 
ATOM     19  C   UNL     1      19.148  13.365  37.724  0.00  0.00    +0.000 A 
ATOM     20  C   UNL     1      18.415  12.200  37.707  0.00  0.00    +0.000 A 
ENDBRANCH  11  12
ENDBRANCH   1  11
TORSDOF 4
ENDMDL
MODEL 5
REMARK VINA RESULT:      -6.5     19.036     21.213
REMARK  Name = 
REMARK  4 active torsions:
REMARK  status: ('A' for Active; 'I' for Inactive)
REMARK    1  A    between atoms: C_4  and  C_5
REMARK    2  A    between atoms: N_9  and  C_10
REMARK    3  A    between atoms: C_10  and  C_11
REMARK    4  A    between atoms: C_11  and  C_12
REMARK                            x       y       z     vdW  Elec       q    Type
REMARK                         _______ _______ _______ _____ _____    ______ ____
ROOT
ATOM      1  C   UNL     1      25.626  24.498  24.517  0.00  0.00    +0.000 C 
ENDROOT
BRANCH   1   8
ATOM      2  C   UNL     1      27.545  26.602  25.670  0.00  0.00    +0.000 C 
ATOM      3  C   UNL     1      27.647  25.971  24.324  0.00  0.00    +0.000 A 
ATOM      4  C   UNL     1      28.621  26.242  23.397  0.00  0.00    +0.000 A 
ATOM      5  C   UNL     1      28.334  25.439  22.301  0.00  0.00    +0.000 A 
ATOM      6  C   UNL     1      27.207  24.722  22.606  0.00  0.00    +0.000 A 
ATOM      7  C   UNL     1      26.552  23.743  21.723  0.00  0.00    +0.000 C 
ATOM      8  N   UNL     1      26.807  25.055  23.830  0.00  0.00    +0.000 N 
BRANCH   5   9
ATOM      9  C   UNL     1      29.122  25.399  21.059  0.00  0.00    +0.000 C 
ATOM     10  O   UNL     1      29.756  24.341  20.820  0.00  0.00    +0.000 OA
ENDBRANCH   5   9
ENDBRANCH   1   8
BRANCH   1  11
ATOM     11  C   UNL     1      25.990  23.103  24.975  0.00  0.00    +0.000 C 
BRANCH  11  12
ATOM     12  C   UNL     1      26.855  23.095  26.153  0.00  0.00    +0.000 A 
ATOM     13  C   UNL     1      26.462  23.301  27.449  0.00  0.00    +0.000 A 
ATOM     14  N   UNL     1      27.537  23.218  28.248  0.00  0.00    +0.000 NA
ATOM     15  C   UNL     1      28.627  22.959  27.481  0.00  0.00    +0.000 A 
ATOM     16  C   UNL     1      29.961  22.784  27.822  0.00  0.00    +0.000 A 
ATOM     17  C   UNL     1      30.907  22.527  26.850  0.00  0.00    +0.000 A 
ATOM     18  C   UNL     1      30.476  22.451  25.544  0.00  0.00    +0.000 A 
ATOM     19  C   UNL     1      29.161  22.622  25.203  0.00  0.00    +0.000 A 
ATOM     20  C   UNL     1      28.219  22.880  26.172  0.00  0.00    +0.000 A 
ENDBRANCH  11  12
ENDBRANCH   1  11
TORSDOF 4
ENDMDL
MODEL 6
REMARK VINA RESULT:      -6.5      3.525      6.884
REMARK  Name = 
REMARK  4 active torsions:
REMARK  status: ('A' for Active; 'I' for Inactive)
REMARK    1  A    between atoms: C_4  and  C_5
REMARK    2  A    between atoms: N_9  and  C_10
REMARK    3  A    between atoms: C_10  and  C_11
REMARK    4  A    between atoms: C_11  and  C_12
REMARK                            x       y       z     vdW  Elec       q    Type
REMARK                         _______ _______ _______ _____ _____    ______ ____
ROOT
ATOM      1  C   UNL     1      16.296  11.074  36.664  0.00  0.00    +0.000 C 
ENDROOT
BRANCH   1   8
ATOM      2  C   UNL     1      13.884  12.836  35.945  0.00  0.00    +0.000 C 
ATOM      3  C   UNL     1      14.822  12.202  34.976  0.00  0.00    +0.000 A 
ATOM      4  C   UNL     1      14.743  12.314  33.612  0.00  0.00    +0.000 A 
ATOM      5  C   UNL     1      15.804  11.573  33.109  0.00  0.00    +0.000 A 
ATOM      6  C   UNL     1      16.476  11.046  34.180  0.00  0.00    +0.000 A 
ATOM      7  C   UNL     1      17.672  10.191  34.102  0.00  0.00    +0.000 C 
ATOM      8  N   UNL     1      15.870  11.436  35.299  0.00  0.00    +0.000 N 
BRANCH   5   9
ATOM      9  C   UNL     1      16.112  11.409  31.679  0.00  0.00    +0.000 C 
ATOM     10  O   UNL     1      16.289  12.458  31.011  0.00  0.00    +0.000 OA
ENDBRANCH   5   9
ENDBRANCH   1   8
BRANCH   1  11
ATOM     11  C   UNL     1      17.221  12.167  37.150  0.00  0.00    +0.000 C 
BRANCH  11  12
ATOM     12  C   UNL     1      18.517  11.661  37.598  0.00  0.00    +0.000 A 
ATOM     13  C   UNL     1      18.921  10.352  37.598  0.00  0.00    +0.000 A 
ATOM     14  N   UNL     1      20.171  10.282  38.080  0.00  0.00    +0.000 NA
ATOM     15  C   UNL     1      20.585  11.537  38.394  0.00  0.00    +0.000 A 
ATOM     16  C   UNL     1      21.783  11.998  38.921  0.00  0.00    +0.000 A 
ATOM     17  C   UNL     1      21.975  13.343  39.159  0.00  0.00    +0.000 A 
ATOM     18  C   UNL     1      20.939  14.200  38.856  0.00  0.00    +0.000 A 
ATOM     19  C   UNL     1      19.756  13.750  38.336  0.00  0.00    +0.000 A 
ATOM     20  C   UNL     1      19.564  12.408  38.100  0.00  0.00    +0.000 A 
ENDBRANCH  11  12
ENDBRANCH   1  11
TORSDOF 4
ENDMDL
MODEL 7
REMARK VINA RESULT:      -6.4     18.287     19.172
REMARK  Name = 
REMARK  4 active torsions:
REMARK  status: ('A' for Active; 'I' for Inactive)
REMARK    1  A    between atoms: C_4  and  C_5
REMARK    2  A    between atoms: N_9  and  C_10
REMARK    3  A    between atoms: C_10  and  C_11
REMARK    4  A    between atoms: C_11  and  C_12
REMARK                            x       y       z     vdW  Elec       q    Type
REMARK                         _______ _______ _______ _____ _____    ______ ____
ROOT
ATOM      1  C   UNL     1      30.887  23.249  27.891  0.00  0.00    +0.000 C 
ENDROOT
BRANCH   1   8
ATOM      2  C   UNL     1      28.268  23.862  29.374  0.00  0.00    +0.000 C 
ATOM      3  C   UNL     1      29.435  23.124  29.932  0.00  0.00    +0.000 A 
ATOM      4  C   UNL     1      29.509  22.607  31.201  0.00  0.00    +0.000 A 
ATOM      5  C   UNL     1      30.759  22.009  31.293  0.00  0.00    +0.000 A 
ATOM      6  C   UNL     1      31.386  22.187  30.088  0.00  0.00    +0.000 A 
ATOM      7  C   UNL     1      32.736  21.708  29.748  0.00  0.00    +0.000 C 
ATOM      8  N   UNL     1      30.572  22.861  29.279  0.00  0.00    +0.000 N 
BRANCH   5   9
ATOM      9  C   UNL     1      31.276  21.322  32.488  0.00  0.00    +0.000 C 
ATOM     10  O   UNL     1      30.480  21.176  33.449  0.00  0.00    +0.000 OA
ENDBRANCH   5   9
ENDBRANCH   1   8
BRANCH   1  11
ATOM     11  C   UNL     1      30.449  22.111  26.997  0.00  0.00    +0.000 C 
BRANCH  11  12
ATOM     12  C   UNL     1      29.989  22.560  25.685  0.00  0.00    +0.000 A 
ATOM     13  C   UNL     1      30.778  22.866  24.608  0.00  0.00    +0.000 A 
ATOM     14  N   UNL     1      29.995  23.239  23.585  0.00  0.00    +0.000 NA
ATOM     15  C   UNL     1      28.699  23.177  23.987  0.00  0.00    +0.000 A 
ATOM     16  C   UNL     1      27.520  23.459  23.312  0.00  0.00    +0.000 A 
ATOM     17  C   UNL     1      26.300  23.320  23.941  0.00  0.00    +0.000 A 
ATOM     18  C   UNL     1      26.301  22.895  25.251  0.00  0.00    +0.000 A 
ATOM     19  C   UNL     1      27.461  22.617  25.921  0.00  0.00    +0.000 A 
ATOM     20  C   UNL     1      28.678  22.756  25.294  0.00  0.00    +0.000 A 
ENDBRANCH  11  12
ENDBRANCH   1  11
TORSDOF 4
ENDMDL
MODEL 8
REMARK VINA RESULT:      -6.3     18.631     20.572
REMARK  Name = 
REMARK  4 active torsions:
REMARK  status: ('A' for Active; 'I' for Inactive)
REMARK    1  A    between atoms: C_4  and  C_5
REMARK    2  A    between atoms: N_9  and  C_10
REMARK    3  A    between atoms: C_10  and  C_11
REMARK    4  A    between atoms: C_11  and  C_12
REMARK                            x       y       z     vdW  Elec       q    Type
REMARK                         _______ _______ _______ _____ _____    ______ ____
ROOT
ATOM      1  C   UNL     1      28.356  22.390  26.927  0.00  0.00    +0.000 C 
ENDROOT
BRANCH   1   8
ATOM      2  C   UNL     1      30.686  22.461  24.927  0.00  0.00    +0.000 C 
ATOM      3  C   UNL     1      29.269  22.812  24.629  0.00  0.00    +0.000 A 
ATOM      4  C   UNL     1      28.796  23.221  23.409  0.00  0.00    +0.000 A 
ATOM      5  C   UNL     1      27.435  23.438  23.583  0.00  0.00    +0.000 A 
ATOM      6  C   UNL     1      27.142  23.154  24.891  0.00  0.00    +0.000 A 
ATOM      7  C   UNL     1      25.809  23.250  25.508  0.00  0.00    +0.000 C 
ATOM      8  N   UNL     1      28.260  22.777  25.508  0.00  0.00    +0.000 N 
BRANCH   5   9
ATOM      9  C   UNL     1      26.515  23.891  22.528  0.00  0.00    +0.000 C 
ATOM     10  O   UNL     1      25.720  23.037  22.061  0.00  0.00    +0.000 OA
ENDBRANCH   5   9
ENDBRANCH   1   8
BRANCH   1  11
ATOM     11  C   UNL     1      29.106  23.491  27.643  0.00  0.00    +0.000 C 
BRANCH  11  12
ATOM     12  C   UNL     1      29.566  23.098  28.973  0.00  0.00    +0.000 A 
ATOM     13  C   UNL     1      28.877  23.249  30.147  0.00  0.00    +0.000 A 
ATOM     14  N   UNL     1      29.623  22.771  31.154  0.00  0.00    +0.000 NA
ATOM     15  C   UNL     1      30.794  22.309  30.644  0.00  0.00    +0.000 A 
ATOM     16  C   UNL     1      31.891  21.725  31.262  0.00  0.00    +0.000 A 
ATOM     17  C   UNL     1      32.986  21.330  30.522  0.00  0.00    +0.000 A 
ATOM     18  C   UNL     1      32.945  21.536  29.160  0.00  0.00    +0.000 A 
ATOM     19  C   UNL     1      31.866  22.111  28.547  0.00  0.00    +0.000 A 
ATOM     20  C   UNL     1      30.774  22.506  29.285  0.00  0.00    +0.000 A 
ENDBRANCH  11  12
ENDBRANCH   1  11
TORSDOF 4
ENDMDL
MODEL 9
REMARK VINA RESULT:      -6.2     19.020     21.034
REMARK  Name = 
REMARK  4 active torsions:
REMARK  status: ('A' for Active; 'I' for Inactive)
REMARK    1  A    between atoms: C_4  and  C_5
REMARK    2  A    between atoms: N_9  and  C_10
REMARK    3  A    between atoms: C_10  and  C_11
REMARK    4  A    between atoms: C_11  and  C_12
REMARK                            x       y       z     vdW  Elec       q    Type
REMARK                         _______ _______ _______ _____ _____    ______ ____
ROOT
ATOM      1  C   UNL     1      27.387  23.963  25.614  0.00  0.00    +0.000 C 
ENDROOT
BRANCH   1   8
ATOM      2  C   UNL     1      25.290  23.054  23.561  0.00  0.00    +0.000 C 
ATOM      3  C   UNL     1      26.555  23.778  23.254  0.00  0.00    +0.000 A 
ATOM      4  C   UNL     1      26.971  24.147  22.001  0.00  0.00    +0.000 A 
ATOM      5  C   UNL     1      28.189  24.791  22.178  0.00  0.00    +0.000 A 
ATOM      6  C   UNL     1      28.459  24.785  23.521  0.00  0.00    +0.000 A 
ATOM      7  C   UNL     1      29.655  25.366  24.154  0.00  0.00    +0.000 C 
ATOM      8  N   UNL     1      27.463  24.171  24.156  0.00  0.00    +0.000 N 
BRANCH   5   9
ATOM      9  C   UNL     1      29.005  25.358  21.094  0.00  0.00    +0.000 C 
ATOM     10  O   UNL     1      29.836  24.591  20.546  0.00  0.00    +0.000 OA
ENDBRANCH   5   9
ENDBRANCH   1   8
BRANCH   1  11
ATOM     11  C   UNL     1      27.892  22.566  25.894  0.00  0.00    +0.000 C 
BRANCH  11  12
ATOM     12  C   UNL     1      29.093  22.548  26.728  0.00  0.00    +0.000 A 
ATOM     13  C   UNL     1      30.387  22.484  26.285  0.00  0.00    +0.000 A 
ATOM     14  N   UNL     1      31.211  22.489  27.344  0.00  0.00    +0.000 NA
ATOM     15  C   UNL     1      30.462  22.556  28.474  0.00  0.00    +0.000 A 
ATOM     16  C   UNL     1      30.830  22.587  29.812  0.00  0.00    +0.000 A 
ATOM     17  C   UNL     1      29.872  22.657  30.803  0.00  0.00    +0.000 A 
ATOM     18  C   UNL     1      28.551  22.694  30.413  0.00  0.00    +0.000 A 
ATOM     19  C   UNL     1      28.183  22.664  29.095  0.00  0.00    +0.000 A 
ATOM     20  C   UNL     1      29.138  22.593  28.107  0.00  0.00    +0.000 A 
ENDBRANCH  11  12
ENDBRANCH   1  11
TORSDOF 4
ENDMDL
MODEL 10
REMARK VINA RESULT:      -6.2     19.811     21.405
REMARK  Name = 
REMARK  4 active torsions:
REMARK  status: ('A' for Active; 'I' for Inactive)
REMARK    1  A    between atoms: C_4  and  C_5
REMARK    2  A    between atoms: N_9  and  C_10
REMARK    3  A    between atoms: C_10  and  C_11
REMARK    4  A    between atoms: C_11  and  C_12
REMARK                            x       y       z     vdW  Elec       q    Type
REMARK                         _______ _______ _______ _____ _____    ______ ____
ROOT
ATOM      1  C   UNL     1      27.578  23.469  24.213  0.00  0.00    +0.000 C 
ENDROOT
BRANCH   1   8
ATOM      2  C   UNL     1      30.395  22.343  24.695  0.00  0.00    +0.000 C 
ATOM      3  C   UNL     1      29.365  22.595  25.741  0.00  0.00    +0.000 A 
ATOM      4  C   UNL     1      29.527  22.359  27.082  0.00  0.00    +0.000 A 
ATOM      5  C   UNL     1      28.331  22.734  27.680  0.00  0.00    +0.000 A 
ATOM      6  C   UNL     1      27.500  23.177  26.685  0.00  0.00    +0.000 A 
ATOM      7  C   UNL     1      26.126  23.672  26.876  0.00  0.00    +0.000 C 
ATOM      8  N   UNL     1      28.140  23.087  25.522  0.00  0.00    +0.000 N 
BRANCH   5   9
ATOM      9  C   UNL     1      28.050  22.651  29.122  0.00  0.00    +0.000 C 
ATOM     10  O   UNL     1      27.249  21.759  29.496  0.00  0.00    +0.000 OA
ENDBRANCH   5   9
ENDBRANCH   1   8
BRANCH   1  11
ATOM     11  C   UNL     1      27.996  24.898  23.945  0.00  0.00    +0.000 C 
BRANCH  11  12
ATOM     12  C   UNL     1      28.611  25.076  22.631  0.00  0.00    +0.000 A 
ATOM     13  C   UNL     1      29.075  24.082  21.811  0.00  0.00    +0.000 A 
ATOM     14  N   UNL     1      29.569  24.636  20.693  0.00  0.00    +0.000 NA
ATOM     15  C   UNL     1      29.431  25.984  20.780  0.00  0.00    +0.000 A 
ATOM     16  C   UNL     1      29.780  26.995  19.896  0.00  0.00    +0.000 A 
ATOM     17  C   UNL     1      29.536  28.317  20.209  0.00  0.00    +0.000 A 
ATOM     18  C   UNL     1      28.937  28.586  21.420  0.00  0.00    +0.000 A 
ATOM     19  C   UNL     1      28.590  27.592  22.294  0.00  0.00    +0.000 A 
ATOM     20  C   UNL     1      28.835  26.274  21.983  0.00  0.00    +0.000 A 
ENDBRANCH  11  12
ENDBRANCH   1  11
TORSDOF 4
ENDMDL
