MODEL 1
REMARK VINA RESULT:      -8.4      0.000      0.000
REMARK  Name = 
REMARK  8 active torsions:
REMARK  status: ('A' for Active; 'I' for Inactive)
REMARK    1  A    between atoms: C_2  and  O_3
REMARK    2  A    between atoms: O_3  and  C_4
REMARK    3  A    between atoms: C_11  and  O_12
REMARK    4  A    between atoms: C_18  and  C_19
REMARK    5  A    between atoms: C_19  and  C_20
REMARK    6  A    between atoms: C_23  and  O_24
REMARK    7  A    between atoms: O_24  and  C_25
REMARK    8  A    between atoms: C_25  and  C_26
REMARK                            x       y       z     vdW  Elec       q    Type
REMARK                         _______ _______ _______ _____ _____    ______ ____
ROOT
ATOM      1  C   UNL     1      11.919  -2.409  26.799  0.00  0.00    +0.000 C 
ATOM      2  O   UNL     1      11.349  -3.393  27.334  0.00  0.00    +0.000 OA
ATOM      3  N   UNL     1      12.490  -1.443  27.630  0.00  0.00    +0.000 N 
ATOM      4  C   UNL     1      12.463  -1.512  29.028  0.00  0.00    +0.000 C 
ATOM      5  C   UNL     1      11.390  -0.546  29.439  0.00  0.00    +0.000 C 
ATOM      6  C   UNL     1      11.561   0.687  28.668  0.00  0.00    +0.000 A 
ATOM      7  C   UNL     1      10.822   1.786  29.155  0.00  0.00    +0.000 A 
ATOM      8  C   UNL     1      10.872   3.014  28.528  0.00  0.00    +0.000 A 
ATOM      9  C   UNL     1      11.651   3.193  27.401  0.00  0.00    +0.000 A 
ATOM     10  O   UNL     1      11.695   4.449  26.767  0.00  0.00    +0.000 OA
ATOM     11  C   UNL     1      12.377   2.131  26.915  0.00  0.00    +0.000 A 
ATOM     12  C   UNL     1      12.287   0.918  27.591  0.00  0.00    +0.000 A 
ATOM     13  C   UNL     1      13.191  -0.236  26.896  0.00  0.00    +0.000 C 
ENDROOT
BRANCH   8  14
ATOM     14  O   UNL     1      10.163   4.128  28.969  0.00  0.00    +0.000 OA
ATOM     15  C   UNL     1       8.813   4.223  28.549  0.00  0.00    +0.000 C 
ENDBRANCH   8  14
BRANCH   1  16
ATOM     16  O   UNL     1      11.968  -2.307  25.425  0.00  0.00    +0.000 OA
BRANCH  16  18
ATOM     17  C   UNL     1       9.988  -0.933  25.157  0.00  0.00    +0.000 C 
ATOM     18  C   UNL     1      10.744  -2.175  24.729  0.00  0.00    +0.000 C 
ENDBRANCH  16  18
ENDBRANCH   1  16
BRANCH  13  19
ATOM     19  C   UNL     1      14.405  -0.106  28.008  0.00  0.00    +0.000 C 
BRANCH  19  20
ATOM     20  C   UNL     1      15.628   0.199  27.251  0.00  0.00    +0.000 A 
ATOM     21  C   UNL     1      15.728  -0.221  25.960  0.00  0.00    +0.000 A 
ATOM     22  C   UNL     1      16.832   0.037  25.174  0.00  0.00    +0.000 A 
ATOM     23  C   UNL     1      17.884   0.745  25.693  0.00  0.00    +0.000 A 
ATOM     24  C   UNL     1      17.776   1.171  27.012  0.00  0.00    +0.000 A 
ATOM     25  C   UNL     1      16.679   0.916  27.799  0.00  0.00    +0.000 A 
BRANCH  23  26
ATOM     26  O   UNL     1      18.982   1.005  24.918  0.00  0.00    +0.000 OA
BRANCH  26  27
ATOM     27  C   UNL     1      20.127   0.219  24.867  0.00  0.00    +0.000 C 
BRANCH  27  28
ATOM     28  C   UNL     1      20.177  -0.626  23.663  0.00  0.00    +0.000 A 
ATOM     29  C   UNL     1      19.779  -1.943  23.686  0.00  0.00    +0.000 A 
ATOM     30  C   UNL     1      19.838  -2.718  22.558  0.00  0.00    +0.000 A 
ATOM     31  C   UNL     1      20.299  -2.171  21.387  0.00  0.00    +0.000 A 
ATOM     32  C   UNL     1      20.713  -0.849  21.311  0.00  0.00    +0.000 A 
ATOM     33  C   UNL     1      20.636  -0.113  22.465  0.00  0.00    +0.000 A 
ENDBRANCH  27  28
ENDBRANCH  26  27
ENDBRANCH  23  26
ENDBRANCH  19  20
ENDBRANCH  13  19
TORSDOF 8
ENDMDL
MODEL 2
REMARK VINA RESULT:      -7.9     23.862     27.608
REMARK  Name = 
REMARK  8 active torsions:
REMARK  status: ('A' for Active; 'I' for Inactive)
REMARK    1  A    between atoms: C_2  and  O_3
REMARK    2  A    between atoms: O_3  and  C_4
REMARK    3  A    between atoms: C_11  and  O_12
REMARK    4  A    between atoms: C_18  and  C_19
REMARK    5  A    between atoms: C_19  and  C_20
REMARK    6  A    between atoms: C_23  and  O_24
REMARK    7  A    between atoms: O_24  and  C_25
REMARK    8  A    between atoms: C_25  and  C_26
REMARK                            x       y       z     vdW  Elec       q    Type
REMARK                         _______ _______ _______ _____ _____    ______ ____
ROOT
ATOM      1  C   UNL     1      37.220  -2.812  16.924  0.00  0.00    +0.000 C 
ATOM      2  O   UNL     1      36.440  -3.795  16.986  0.00  0.00    +0.000 OA
ATOM      3  N   UNL     1      37.298  -2.105  15.722  0.00  0.00    +0.000 N 
ATOM      4  C   UNL     1      36.553  -2.431  14.583  0.00  0.00    +0.000 C 
ATOM      5  C   UNL     1      37.522  -3.137  13.679  0.00  0.00    +0.000 C 
ATOM      6  C   UNL     1      38.776  -2.380  13.667  0.00  0.00    +0.000 A 
ATOM      7  C   UNL     1      39.669  -2.748  12.639  0.00  0.00    +0.000 A 
ATOM      8  C   UNL     1      40.896  -2.132  12.505  0.00  0.00    +0.000 A 
ATOM      9  C   UNL     1      41.278  -1.135  13.383  0.00  0.00    +0.000 A 
ATOM     10  O   UNL     1      42.532  -0.512  13.239  0.00  0.00    +0.000 OA
ATOM     11  C   UNL     1      40.417  -0.765  14.389  0.00  0.00    +0.000 A 
ATOM     12  C   UNL     1      39.193  -1.422  14.473  0.00  0.00    +0.000 A 
ATOM     13  C   UNL     1      38.295  -0.883  15.711  0.00  0.00    +0.000 C 
ENDROOT
BRANCH   8  14
ATOM     14  O   UNL     1      41.811  -2.459  11.509  0.00  0.00    +0.000 OA
ATOM     15  C   UNL     1      42.676  -3.549  11.779  0.00  0.00    +0.000 C 
ENDBRANCH   8  14
BRANCH   1  16
ATOM     16  O   UNL     1      37.970  -2.460  18.026  0.00  0.00    +0.000 OA
BRANCH  16  18
ATOM     17  C   UNL     1      36.487  -0.737  18.868  0.00  0.00    +0.000 C 
ATOM     18  C   UNL     1      37.283  -1.992  19.169  0.00  0.00    +0.000 C 
ENDBRANCH  16  18
ENDBRANCH   1  16
BRANCH  13  19
ATOM     19  C   UNL     1      37.332   0.050  14.747  0.00  0.00    +0.000 C 
BRANCH  19  20
ATOM     20  C   UNL     1      37.522   1.438  15.192  0.00  0.00    +0.000 A 
ATOM     21  C   UNL     1      36.658   1.964  16.104  0.00  0.00    +0.000 A 
ATOM     22  C   UNL     1      36.774   3.251  16.587  0.00  0.00    +0.000 A 
ATOM     23  C   UNL     1      37.793   4.053  16.145  0.00  0.00    +0.000 A 
ATOM     24  C   UNL     1      38.671   3.510  15.213  0.00  0.00    +0.000 A 
ATOM     25  C   UNL     1      38.560   2.229  14.729  0.00  0.00    +0.000 A 
BRANCH  23  26
ATOM     26  O   UNL     1      37.914   5.330  16.621  0.00  0.00    +0.000 OA
BRANCH  26  27
ATOM     27  C   UNL     1      38.990   6.174  16.377  0.00  0.00    +0.000 C 
BRANCH  27  28
ATOM     28  C   UNL     1      39.906   6.266  17.526  0.00  0.00    +0.000 A 
ATOM     29  C   UNL     1      39.449   6.217  18.822  0.00  0.00    +0.000 A 
ATOM     30  C   UNL     1      40.314   6.310  19.880  0.00  0.00    +0.000 A 
ATOM     31  C   UNL     1      41.657   6.454  19.642  0.00  0.00    +0.000 A 
ATOM     32  C   UNL     1      42.169   6.509  18.354  0.00  0.00    +0.000 A 
ATOM     33  C   UNL     1      41.266   6.412  17.329  0.00  0.00    +0.000 A 
ENDBRANCH  27  28
ENDBRANCH  26  27
ENDBRANCH  23  26
ENDBRANCH  19  20
ENDBRANCH  13  19
TORSDOF 8
ENDMDL
MODEL 3
REMARK VINA RESULT:      -7.5     23.051     27.026
REMARK  Name = 
REMARK  8 active torsions:
REMARK  status: ('A' for Active; 'I' for Inactive)
REMARK    1  A    between atoms: C_2  and  O_3
REMARK    2  A    between atoms: O_3  and  C_4
REMARK    3  A    between atoms: C_11  and  O_12
REMARK    4  A    between atoms: C_18  and  C_19
REMARK    5  A    between atoms: C_19  and  C_20
REMARK    6  A    between atoms: C_23  and  O_24
REMARK    7  A    between atoms: O_24  and  C_25
REMARK    8  A    between atoms: C_25  and  C_26
REMARK                            x       y       z     vdW  Elec       q    Type
REMARK                         _______ _______ _______ _____ _____    ______ ____
ROOT
ATOM      1  C   UNL     1      34.902  -2.244  16.214  0.00  0.00    +0.000 C 
ATOM      2  O   UNL     1      34.045  -2.381  17.123  0.00  0.00    +0.000 OA
ATOM      3  N   UNL     1      35.859  -1.237  16.354  0.00  0.00    +0.000 N 
ATOM      4  C   UNL     1      35.917  -0.371  17.452  0.00  0.00    +0.000 C 
ATOM      5  C   UNL     1      35.325   0.917  16.958  0.00  0.00    +0.000 C 
ATOM      6  C   UNL     1      35.890   1.206  15.638  0.00  0.00    +0.000 A 
ATOM      7  C   UNL     1      35.663   2.522  15.183  0.00  0.00    +0.000 A 
ATOM      8  C   UNL     1      36.125   2.941  13.953  0.00  0.00    +0.000 A 
ATOM      9  C   UNL     1      36.824   2.074  13.134  0.00  0.00    +0.000 A 
ATOM     10  O   UNL     1      37.291   2.509  11.881  0.00  0.00    +0.000 OA
ATOM     11  C   UNL     1      37.053   0.788  13.566  0.00  0.00    +0.000 A 
ATOM     12  C   UNL     1      36.563   0.424  14.816  0.00  0.00    +0.000 A 
ATOM     13  C   UNL     1      36.905  -1.120  15.180  0.00  0.00    +0.000 C 
ENDROOT
BRANCH   8  14
ATOM     14  O   UNL     1      35.927   4.228  13.459  0.00  0.00    +0.000 OA
ATOM     15  C   UNL     1      35.073   5.069  14.214  0.00  0.00    +0.000 C 
ENDBRANCH   8  14
BRANCH   1  16
ATOM     16  O   UNL     1      34.879  -3.078  15.117  0.00  0.00    +0.000 OA
BRANCH  16  18
ATOM     17  C   UNL     1      36.522  -4.754  15.723  0.00  0.00    +0.000 C 
ATOM     18  C   UNL     1      35.087  -4.460  15.333  0.00  0.00    +0.000 C 
ENDBRANCH  16  18
ENDBRANCH   1  16
BRANCH  13  19
ATOM     19  C   UNL     1      38.162  -0.720  16.175  0.00  0.00    +0.000 C 
BRANCH  19  20
ATOM     20  C   UNL     1      39.383  -1.194  15.511  0.00  0.00    +0.000 A 
ATOM     21  C   UNL     1      40.138  -0.308  14.803  0.00  0.00    +0.000 A 
ATOM     22  C   UNL     1      41.306  -0.666  14.163  0.00  0.00    +0.000 A 
ATOM     23  C   UNL     1      41.746  -1.962  14.228  0.00  0.00    +0.000 A 
ATOM     24  C   UNL     1      40.972  -2.862  14.952  0.00  0.00    +0.000 A 
ATOM     25  C   UNL     1      39.807  -2.510  15.591  0.00  0.00    +0.000 A 
BRANCH  23  26
ATOM     26  O   UNL     1      42.905  -2.322  13.596  0.00  0.00    +0.000 OA
BRANCH  26  27
ATOM     27  C   UNL     1      44.060  -1.551  13.546  0.00  0.00    +0.000 C 
BRANCH  27  28
ATOM     28  C   UNL     1      44.722  -1.443  14.857  0.00  0.00    +0.000 A 
ATOM     29  C   UNL     1      44.847  -0.238  15.508  0.00  0.00    +0.000 A 
ATOM     30  C   UNL     1      45.471  -0.154  16.725  0.00  0.00    +0.000 A 
ATOM     31  C   UNL     1      45.978  -1.290  17.303  0.00  0.00    +0.000 A 
ATOM     32  C   UNL     1      45.879  -2.530  16.687  0.00  0.00    +0.000 A 
ATOM     33  C   UNL     1      45.247  -2.564  15.472  0.00  0.00    +0.000 A 
ENDBRANCH  27  28
ENDBRANCH  26  27
ENDBRANCH  23  26
ENDBRANCH  19  20
ENDBRANCH  13  19
TORSDOF 8
ENDMDL
MODEL 4
REMARK VINA RESULT:      -7.5     23.639     26.886
REMARK  Name = 
REMARK  8 active torsions:
REMARK  status: ('A' for Active; 'I' for Inactive)
REMARK    1  A    between atoms: C_2  and  O_3
REMARK    2  A    between atoms: O_3  and  C_4
REMARK    3  A    between atoms: C_11  and  O_12
REMARK    4  A    between atoms: C_18  and  C_19
REMARK    5  A    between atoms: C_19  and  C_20
REMARK    6  A    between atoms: C_23  and  O_24
REMARK    7  A    between atoms: O_24  and  C_25
REMARK    8  A    between atoms: C_25  and  C_26
REMARK                            x       y       z     vdW  Elec       q    Type
REMARK                         _______ _______ _______ _____ _____    ______ ____
ROOT
ATOM      1  C   UNL     1      35.922   5.336  13.377  0.00  0.00    +0.000 C 
ATOM      2  O   UNL     1      35.796   5.468  12.133  0.00  0.00    +0.000 OA
ATOM      3  N   UNL     1      36.838   4.396  13.852  0.00  0.00    +0.000 N 
ATOM      4  C   UNL     1      37.626   3.593  13.020  0.00  0.00    +0.000 C 
ATOM      5  C   UNL     1      36.958   2.248  13.040  0.00  0.00    +0.000 C 
ATOM      6  C   UNL     1      36.614   1.926  14.427  0.00  0.00    +0.000 A 
ATOM      7  C   UNL     1      36.259   0.578  14.641  0.00  0.00    +0.000 A 
ATOM      8  C   UNL     1      35.899   0.124  15.893  0.00  0.00    +0.000 A 
ATOM      9  C   UNL     1      35.877   0.989  16.971  0.00  0.00    +0.000 A 
ATOM     10  O   UNL     1      35.508   0.519  18.245  0.00  0.00    +0.000 OA
ATOM     11  C   UNL     1      36.222   2.307  16.777  0.00  0.00    +0.000 A 
ATOM     12  C   UNL     1      36.577   2.704  15.491  0.00  0.00    +0.000 A 
ATOM     13  C   UNL     1      36.948   4.282  15.421  0.00  0.00    +0.000 C 
ENDROOT
BRANCH   8  14
ATOM     14  O   UNL     1      35.540  -1.195  16.155  0.00  0.00    +0.000 OA
ATOM     15  C   UNL     1      36.595  -2.141  16.188  0.00  0.00    +0.000 C 
ENDBRANCH   8  14
BRANCH   1  16
ATOM     16  O   UNL     1      35.165   6.111  14.229  0.00  0.00    +0.000 OA
BRANCH  16  18
ATOM     17  C   UNL     1      33.661   7.979  14.579  0.00  0.00    +0.000 C 
ATOM     18  C   UNL     1      34.085   6.837  13.677  0.00  0.00    +0.000 C 
ENDBRANCH  16  18
ENDBRANCH   1  16
BRANCH  13  19
ATOM     19  C   UNL     1      38.577   4.008  15.410  0.00  0.00    +0.000 C 
BRANCH  19  20
ATOM     20  C   UNL     1      39.143   4.833  16.486  0.00  0.00    +0.000 A 
ATOM     21  C   UNL     1      38.613   4.741  17.737  0.00  0.00    +0.000 A 
ATOM     22  C   UNL     1      39.093   5.467  18.808  0.00  0.00    +0.000 A 
ATOM     23  C   UNL     1      40.149   6.322  18.628  0.00  0.00    +0.000 A 
ATOM     24  C   UNL     1      40.686   6.412  17.348  0.00  0.00    +0.000 A 
ATOM     25  C   UNL     1      40.210   5.691  16.279  0.00  0.00    +0.000 A 
BRANCH  23  26
ATOM     26  O   UNL     1      40.631   7.044  19.686  0.00  0.00    +0.000 OA
BRANCH  26  27
ATOM     27  C   UNL     1      41.789   7.813  19.667  0.00  0.00    +0.000 C 
BRANCH  27  28
ATOM     28  C   UNL     1      42.967   7.068  20.141  0.00  0.00    +0.000 A 
ATOM     29  C   UNL     1      42.932   6.313  21.290  0.00  0.00    +0.000 A 
ATOM     30  C   UNL     1      44.039   5.631  21.721  0.00  0.00    +0.000 A 
ATOM     31  C   UNL     1      45.201   5.703  20.994  0.00  0.00    +0.000 A 
ATOM     32  C   UNL     1      45.289   6.451  19.829  0.00  0.00    +0.000 A 
ATOM     33  C   UNL     1      44.156   7.115  19.438  0.00  0.00    +0.000 A 
ENDBRANCH  27  28
ENDBRANCH  26  27
ENDBRANCH  23  26
ENDBRANCH  19  20
ENDBRANCH  13  19
TORSDOF 8
ENDMDL
MODEL 5
REMARK VINA RESULT:      -7.4     20.520     23.565
REMARK  Name = 
REMARK  8 active torsions:
REMARK  status: ('A' for Active; 'I' for Inactive)
REMARK    1  A    between atoms: C_2  and  O_3
REMARK    2  A    between atoms: O_3  and  C_4
REMARK    3  A    between atoms: C_11  and  O_12
REMARK    4  A    between atoms: C_18  and  C_19
REMARK    5  A    between atoms: C_19  and  C_20
REMARK    6  A    between atoms: C_23  and  O_24
REMARK    7  A    between atoms: O_24  and  C_25
REMARK    8  A    between atoms: C_25  and  C_26
REMARK                            x       y       z     vdW  Elec       q    Type
REMARK                         _______ _______ _______ _____ _____    ______ ____
ROOT
ATOM      1  C   UNL     1      31.570  11.751  40.373  0.00  0.00    +0.000 C 
ATOM      2  O   UNL     1      32.697  11.894  40.908  0.00  0.00    +0.000 OA
ATOM      3  N   UNL     1      30.434  11.963  41.157  0.00  0.00    +0.000 N 
ATOM      4  C   UNL     1      30.483  12.327  42.508  0.00  0.00    +0.000 C 
ATOM      5  C   UNL     1      30.182  11.062  43.258  0.00  0.00    +0.000 C 
ATOM      6  C   UNL     1      29.044  10.404  42.612  0.00  0.00    +0.000 A 
ATOM      7  C   UNL     1      28.458   9.371  43.375  0.00  0.00    +0.000 A 
ATOM      8  C   UNL     1      27.384   8.651  42.896  0.00  0.00    +0.000 A 
ATOM      9  C   UNL     1      26.856   8.928  41.649  0.00  0.00    +0.000 A 
ATOM     10  O   UNL     1      25.760   8.189  41.168  0.00  0.00    +0.000 OA
ATOM     11  C   UNL     1      27.416   9.933  40.895  0.00  0.00    +0.000 A 
ATOM     12  C   UNL     1      28.497  10.624  41.432  0.00  0.00    +0.000 A 
ATOM     13  C   UNL     1      29.051  11.769  40.425  0.00  0.00    +0.000 C 
ENDROOT
BRANCH   8  14
ATOM     14  O   UNL     1      26.772   7.624  43.609  0.00  0.00    +0.000 OA
ATOM     15  C   UNL     1      27.628   6.775  44.354  0.00  0.00    +0.000 C 
ENDBRANCH   8  14
BRANCH   1  16
ATOM     16  O   UNL     1      31.480  11.395  39.044  0.00  0.00    +0.000 OA
BRANCH  16  18
ATOM     17  C   UNL     1      31.431  13.641  38.134  0.00  0.00    +0.000 C 
ATOM     18  C   UNL     1      32.058  12.261  38.088  0.00  0.00    +0.000 C 
ENDBRANCH  16  18
ENDBRANCH   1  16
BRANCH  13  19
ATOM     19  C   UNL     1      28.308  12.998  41.240  0.00  0.00    +0.000 C 
BRANCH  19  20
ATOM     20  C   UNL     1      27.548  13.759  40.239  0.00  0.00    +0.000 A 
ATOM     21  C   UNL     1      26.223  13.490  40.069  0.00  0.00    +0.000 A 
ATOM     22  C   UNL     1      25.433  14.167  39.163  0.00  0.00    +0.000 A 
ATOM     23  C   UNL     1      25.982  15.157  38.391  0.00  0.00    +0.000 A 
ATOM     24  C   UNL     1      27.335  15.427  38.569  0.00  0.00    +0.000 A 
ATOM     25  C   UNL     1      28.126  14.755  39.470  0.00  0.00    +0.000 A 
BRANCH  23  26
ATOM     26  O   UNL     1      25.203  15.833  37.492  0.00  0.00    +0.000 OA
BRANCH  26  27
ATOM     27  C   UNL     1      25.676  16.737  36.548  0.00  0.00    +0.000 C 
BRANCH  27  28
ATOM     28  C   UNL     1      25.503  16.252  35.169  0.00  0.00    +0.000 A 
ATOM     29  C   UNL     1      25.013  17.062  34.172  0.00  0.00    +0.000 A 
ATOM     30  C   UNL     1      24.853  16.593  32.894  0.00  0.00    +0.000 A 
ATOM     31  C   UNL     1      25.189  15.295  32.606  0.00  0.00    +0.000 A 
ATOM     32  C   UNL     1      25.688  14.436  33.575  0.00  0.00    +0.000 A 
ATOM     33  C   UNL     1      25.830  14.950  34.837  0.00  0.00    +0.000 A 
ENDBRANCH  27  28
ENDBRANCH  26  27
ENDBRANCH  23  26
ENDBRANCH  19  20
ENDBRANCH  13  19
TORSDOF 8
ENDMDL
MODEL 6
REMARK VINA RESULT:      -7.2     23.929     27.535
REMARK  Name = 
REMARK  8 active torsions:
REMARK  status: ('A' for Active; 'I' for Inactive)
REMARK    1  A    between atoms: C_2  and  O_3
REMARK    2  A    between atoms: O_3  and  C_4
REMARK    3  A    between atoms: C_11  and  O_12
REMARK    4  A    between atoms: C_18  and  C_19
REMARK    5  A    between atoms: C_19  and  C_20
REMARK    6  A    between atoms: C_23  and  O_24
REMARK    7  A    between atoms: O_24  and  C_25
REMARK    8  A    between atoms: C_25  and  C_26
REMARK                            x       y       z     vdW  Elec       q    Type
REMARK                         _______ _______ _______ _____ _____    ______ ____
ROOT
ATOM      1  C   UNL     1      36.948   2.396  16.211  0.00  0.00    +0.000 C 
ATOM      2  O   UNL     1      36.035   2.865  16.936  0.00  0.00    +0.000 OA
ATOM      3  N   UNL     1      36.736   1.159  15.599  0.00  0.00    +0.000 N 
ATOM      4  C   UNL     1      35.561   0.413  15.748  0.00  0.00    +0.000 C 
ATOM      5  C   UNL     1      35.913  -0.668  16.729  0.00  0.00    +0.000 C 
ATOM      6  C   UNL     1      37.213  -1.226  16.351  0.00  0.00    +0.000 A 
ATOM      7  C   UNL     1      37.534  -2.442  16.991  0.00  0.00    +0.000 A 
ATOM      8  C   UNL     1      38.729  -3.085  16.745  0.00  0.00    +0.000 A 
ATOM      9  C   UNL     1      39.645  -2.546  15.862  0.00  0.00    +0.000 A 
ATOM     10  O   UNL     1      40.863  -3.207  15.617  0.00  0.00    +0.000 OA
ATOM     11  C   UNL     1      39.345  -1.361  15.229  0.00  0.00    +0.000 A 
ATOM     12  C   UNL     1      38.124  -0.761  15.517  0.00  0.00    +0.000 A 
ATOM     13  C   UNL     1      37.920   0.628  14.703  0.00  0.00    +0.000 C 
ENDROOT
BRANCH   8  14
ATOM     14  O   UNL     1      39.092  -4.284  17.351  0.00  0.00    +0.000 OA
ATOM     15  C   UNL     1      38.093  -5.288  17.411  0.00  0.00    +0.000 C 
ENDBRANCH   8  14
BRANCH   1  16
ATOM     16  O   UNL     1      38.119   3.102  16.039  0.00  0.00    +0.000 OA
BRANCH  16  18
ATOM     17  C   UNL     1      38.736   4.785  17.671  0.00  0.00    +0.000 C 
ATOM     18  C   UNL     1      38.104   4.486  16.326  0.00  0.00    +0.000 C 
ENDBRANCH  16  18
ENDBRANCH   1  16
BRANCH  13  19
ATOM     19  C   UNL     1      36.923  -0.054  13.576  0.00  0.00    +0.000 C 
BRANCH  19  20
ATOM     20  C   UNL     1      37.460   0.328  12.263  0.00  0.00    +0.000 A 
ATOM     21  C   UNL     1      36.626   0.893  11.346  0.00  0.00    +0.000 A 
ATOM     22  C   UNL     1      37.052   1.296  10.097  0.00  0.00    +0.000 A 
ATOM     23  C   UNL     1      38.365   1.131   9.742  0.00  0.00    +0.000 A 
ATOM     24  C   UNL     1      39.212   0.554  10.683  0.00  0.00    +0.000 A 
ATOM     25  C   UNL     1      38.792   0.151  11.928  0.00  0.00    +0.000 A 
BRANCH  23  26
ATOM     26  O   UNL     1      38.794   1.530   8.506  0.00  0.00    +0.000 OA
BRANCH  26  27
ATOM     27  C   UNL     1      38.611   0.815   7.328  0.00  0.00    +0.000 C 
BRANCH  27  28
ATOM     28  C   UNL     1      37.513   1.352   6.508  0.00  0.00    +0.000 A 
ATOM     29  C   UNL     1      36.777   0.550   5.667  0.00  0.00    +0.000 A 
ATOM     30  C   UNL     1      35.763   1.067   4.906  0.00  0.00    +0.000 A 
ATOM     31  C   UNL     1      35.477   2.406   4.984  0.00  0.00    +0.000 A 
ATOM     32  C   UNL     1      36.189   3.259   5.814  0.00  0.00    +0.000 A 
ATOM     33  C   UNL     1      37.194   2.696   6.557  0.00  0.00    +0.000 A 
ENDBRANCH  27  28
ENDBRANCH  26  27
ENDBRANCH  23  26
ENDBRANCH  19  20
ENDBRANCH  13  19
TORSDOF 8
ENDMDL
MODEL 7
REMARK VINA RESULT:      -7.1     23.047     26.967
REMARK  Name = 
REMARK  8 active torsions:
REMARK  status: ('A' for Active; 'I' for Inactive)
REMARK    1  A    between atoms: C_2  and  O_3
REMARK    2  A    between atoms: O_3  and  C_4
REMARK    3  A    between atoms: C_11  and  O_12
REMARK    4  A    between atoms: C_18  and  C_19
REMARK    5  A    between atoms: C_19  and  C_20
REMARK    6  A    between atoms: C_23  and  O_24
REMARK    7  A    between atoms: O_24  and  C_25
REMARK    8  A    between atoms: C_25  and  C_26
REMARK                            x       y       z     vdW  Elec       q    Type
REMARK                         _______ _______ _______ _____ _____    ______ ____
ROOT
ATOM      1  C   UNL     1      35.708   1.431  17.137  0.00  0.00    +0.000 C 
ATOM      2  O   UNL     1      34.463   1.276  17.202  0.00  0.00    +0.000 OA
ATOM      3  N   UNL     1      36.224   2.196  16.089  0.00  0.00    +0.000 N 
ATOM      4  C   UNL     1      35.430   2.800  15.107  0.00  0.00    +0.000 C 
ATOM      5  C   UNL     1      35.571   1.918  13.901  0.00  0.00    +0.000 C 
ATOM      6  C   UNL     1      36.988   1.585  13.738  0.00  0.00    +0.000 A 
ATOM      7  C   UNL     1      37.314   1.017  12.488  0.00  0.00    +0.000 A 
ATOM      8  C   UNL     1      38.606   0.641  12.190  0.00  0.00    +0.000 A 
ATOM      9  C   UNL     1      39.617   0.812  13.117  0.00  0.00    +0.000 A 
ATOM     10  O   UNL     1      40.933   0.425  12.805  0.00  0.00    +0.000 OA
ATOM     11  C   UNL     1      39.314   1.365  14.340  0.00  0.00    +0.000 A 
ATOM     12  C   UNL     1      37.992   1.725  14.582  0.00  0.00    +0.000 A 
ATOM     13  C   UNL     1      37.793   2.353  16.065  0.00  0.00    +0.000 C 
ENDROOT
BRANCH   8  14
ATOM     14  O   UNL     1      38.978   0.078  10.972  0.00  0.00    +0.000 OA
ATOM     15  C   UNL     1      38.963   0.940   9.847  0.00  0.00    +0.000 C 
ENDBRANCH   8  14
BRANCH   1  16
ATOM     16  O   UNL     1      36.524   0.853  18.086  0.00  0.00    +0.000 OA
BRANCH  16  18
ATOM     17  C   UNL     1      36.554  -1.504  18.652  0.00  0.00    +0.000 C 
ATOM     18  C   UNL     1      35.961  -0.136  18.925  0.00  0.00    +0.000 C 
ENDBRANCH  16  18
ENDBRANCH   1  16
BRANCH  13  19
ATOM     19  C   UNL     1      37.751   3.911  15.516  0.00  0.00    +0.000 C 
BRANCH  19  20
ATOM     20  C   UNL     1      38.681   4.672  16.362  0.00  0.00    +0.000 A 
ATOM     21  C   UNL     1      38.516   4.648  17.714  0.00  0.00    +0.000 A 
ATOM     22  C   UNL     1      39.353   5.320  18.581  0.00  0.00    +0.000 A 
ATOM     23  C   UNL     1      40.401   6.049  18.083  0.00  0.00    +0.000 A 
ATOM     24  C   UNL     1      40.564   6.070  16.703  0.00  0.00    +0.000 A 
ATOM     25  C   UNL     1      39.733   5.402  15.835  0.00  0.00    +0.000 A 
BRANCH  23  26
ATOM     26  O   UNL     1      41.236   6.716  18.938  0.00  0.00    +0.000 OA
BRANCH  26  27
ATOM     27  C   UNL     1      40.873   7.207  20.187  0.00  0.00    +0.000 C 
BRANCH  27  28
ATOM     28  C   UNL     1      39.930   8.334  20.097  0.00  0.00    +0.000 A 
ATOM     29  C   UNL     1      38.666   8.266  20.635  0.00  0.00    +0.000 A 
ATOM     30  C   UNL     1      37.799   9.322  20.537  0.00  0.00    +0.000 A 
ATOM     31  C   UNL     1      38.199  10.466  19.893  0.00  0.00    +0.000 A 
ATOM     32  C   UNL     1      39.462  10.585  19.333  0.00  0.00    +0.000 A 
ATOM     33  C   UNL     1      40.294   9.503  19.456  0.00  0.00    +0.000 A 
ENDBRANCH  27  28
ENDBRANCH  26  27
ENDBRANCH  23  26
ENDBRANCH  19  20
ENDBRANCH  13  19
TORSDOF 8
ENDMDL
MODEL 8
REMARK VINA RESULT:      -7.0     25.305     28.577
REMARK  Name = 
REMARK  8 active torsions:
REMARK  status: ('A' for Active; 'I' for Inactive)
REMARK    1  A    between atoms: C_2  and  O_3
REMARK    2  A    between atoms: O_3  and  C_4
REMARK    3  A    between atoms: C_11  and  O_12
REMARK    4  A    between atoms: C_18  and  C_19
REMARK    5  A    between atoms: C_19  and  C_20
REMARK    6  A    between atoms: C_23  and  O_24
REMARK    7  A    between atoms: O_24  and  C_25
REMARK    8  A    between atoms: C_25  and  C_26
REMARK                            x       y       z     vdW  Elec       q    Type
REMARK                         _______ _______ _______ _____ _____    ______ ____
ROOT
ATOM      1  C   UNL     1      37.121  -0.622  15.600  0.00  0.00    +0.000 C 
ATOM      2  O   UNL     1      36.003  -1.164  15.414  0.00  0.00    +0.000 OA
ATOM      3  N   UNL     1      37.696   0.088  14.545  0.00  0.00    +0.000 N 
ATOM      4  C   UNL     1      37.094   0.230  13.289  0.00  0.00    +0.000 C 
ATOM      5  C   UNL     1      37.819  -0.741  12.403  0.00  0.00    +0.000 C 
ATOM      6  C   UNL     1      39.255  -0.613  12.659  0.00  0.00    +0.000 A 
ATOM      7  C   UNL     1      40.077  -1.238  11.696  0.00  0.00    +0.000 A 
ATOM      8  C   UNL     1      41.451  -1.212  11.806  0.00  0.00    +0.000 A 
ATOM      9  C   UNL     1      42.057  -0.571  12.870  0.00  0.00    +0.000 A 
ATOM     10  O   UNL     1      43.460  -0.550  12.975  0.00  0.00    +0.000 OA
ATOM     11  C   UNL     1      41.269   0.044  13.815  0.00  0.00    +0.000 A 
ATOM     12  C   UNL     1      39.888  -0.015  13.650  0.00  0.00    +0.000 A 
ATOM     13  C   UNL     1      39.098   0.745  14.845  0.00  0.00    +0.000 C 
ENDROOT
BRANCH   8  14
ATOM     14  O   UNL     1      42.304  -1.813  10.884  0.00  0.00    +0.000 OA
ATOM     15  C   UNL     1      42.386  -3.227  10.928  0.00  0.00    +0.000 C 
ENDBRANCH   8  14
BRANCH   1  16
ATOM     16  O   UNL     1      37.745  -0.738  16.824  0.00  0.00    +0.000 OA
BRANCH  16  18
ATOM     17  C   UNL     1      39.201  -2.653  16.525  0.00  0.00    +0.000 C 
ATOM     18  C   UNL     1      38.046  -2.038  17.290  0.00  0.00    +0.000 C 
ENDBRANCH  16  18
ENDBRANCH   1  16
BRANCH  13  19
ATOM     19  C   UNL     1      38.798   2.092  13.936  0.00  0.00    +0.000 C 
BRANCH  19  20
ATOM     20  C   UNL     1      38.858   3.235  14.858  0.00  0.00    +0.000 A 
ATOM     21  C   UNL     1      39.748   4.236  14.612  0.00  0.00    +0.000 A 
ATOM     22  C   UNL     1      39.858   5.352  15.417  0.00  0.00    +0.000 A 
ATOM     23  C   UNL     1      39.048   5.479  16.515  0.00  0.00    +0.000 A 
ATOM     24  C   UNL     1      38.142   4.453  16.760  0.00  0.00    +0.000 A 
ATOM     25  C   UNL     1      38.029   3.340  15.962  0.00  0.00    +0.000 A 
BRANCH  23  26
ATOM     26  O   UNL     1      39.152   6.583  17.316  0.00  0.00    +0.000 OA
BRANCH  26  27
ATOM     27  C   UNL     1      39.322   6.556  18.695  0.00  0.00    +0.000 C 
BRANCH  27  28
ATOM     28  C   UNL     1      40.741   6.556  19.088  0.00  0.00    +0.000 A 
ATOM     29  C   UNL     1      41.137   6.269  20.373  0.00  0.00    +0.000 A 
ATOM     30  C   UNL     1      42.461   6.280  20.724  0.00  0.00    +0.000 A 
ATOM     31  C   UNL     1      43.407   6.581  19.776  0.00  0.00    +0.000 A 
ATOM     32  C   UNL     1      43.060   6.878  18.466  0.00  0.00    +0.000 A 
ATOM     33  C   UNL     1      41.724   6.855  18.164  0.00  0.00    +0.000 A 
ENDBRANCH  27  28
ENDBRANCH  26  27
ENDBRANCH  23  26
ENDBRANCH  19  20
ENDBRANCH  13  19
TORSDOF 8
ENDMDL
MODEL 9
REMARK VINA RESULT:      -7.0     21.039     23.304
REMARK  Name = 
REMARK  8 active torsions:
REMARK  status: ('A' for Active; 'I' for Inactive)
REMARK    1  A    between atoms: C_2  and  O_3
REMARK    2  A    between atoms: O_3  and  C_4
REMARK    3  A    between atoms: C_11  and  O_12
REMARK    4  A    between atoms: C_18  and  C_19
REMARK    5  A    between atoms: C_19  and  C_20
REMARK    6  A    between atoms: C_23  and  O_24
REMARK    7  A    between atoms: O_24  and  C_25
REMARK    8  A    between atoms: C_25  and  C_26
REMARK                            x       y       z     vdW  Elec       q    Type
REMARK                         _______ _______ _______ _____ _____    ______ ____
ROOT
ATOM      1  C   UNL     1      28.871  15.593  35.269  0.00  0.00    +0.000 C 
ATOM      2  O   UNL     1      29.535  14.791  34.565  0.00  0.00    +0.000 OA
ATOM      3  N   UNL     1      27.483  15.444  35.308  0.00  0.00    +0.000 N 
ATOM      4  C   UNL     1      26.791  14.451  34.606  0.00  0.00    +0.000 C 
ATOM      5  C   UNL     1      26.205  15.157  33.418  0.00  0.00    +0.000 C 
ATOM      6  C   UNL     1      25.617  16.418  33.876  0.00  0.00    +0.000 A 
ATOM      7  C   UNL     1      24.772  17.043  32.935  0.00  0.00    +0.000 A 
ATOM      8  C   UNL     1      24.153  18.243  33.217  0.00  0.00    +0.000 A 
ATOM      9  C   UNL     1      24.351  18.863  34.436  0.00  0.00    +0.000 A 
ATOM     10  O   UNL     1      23.717  20.087  34.715  0.00  0.00    +0.000 OA
ATOM     11  C   UNL     1      25.172  18.265  35.363  0.00  0.00    +0.000 A 
ATOM     12  C   UNL     1      25.768  17.055  35.021  0.00  0.00    +0.000 A 
ATOM     13  C   UNL     1      26.710  16.481  36.211  0.00  0.00    +0.000 C 
ENDROOT
BRANCH   8  14
ATOM     14  O   UNL     1      23.311  18.898  32.323  0.00  0.00    +0.000 OA
ATOM     15  C   UNL     1      23.923  19.456  31.173  0.00  0.00    +0.000 C 
ENDBRANCH   8  14
BRANCH   1  16
ATOM     16  O   UNL     1      29.517  16.584  35.976  0.00  0.00    +0.000 OA
BRANCH  16  18
ATOM     17  C   UNL     1      30.785  17.355  37.893  0.00  0.00    +0.000 C 
ATOM     18  C   UNL     1      30.410  16.190  36.999  0.00  0.00    +0.000 C 
ENDBRANCH  16  18
ENDBRANCH   1  16
BRANCH  13  19
ATOM     19  C   UNL     1      25.584  15.383  36.719  0.00  0.00    +0.000 C 
BRANCH  19  20
ATOM     20  C   UNL     1      25.904  15.083  38.121  0.00  0.00    +0.000 A 
ATOM     21  C   UNL     1      27.189  15.219  38.550  0.00  0.00    +0.000 A 
ATOM     22  C   UNL     1      27.572  14.973  39.853  0.00  0.00    +0.000 A 
ATOM     23  C   UNL     1      26.636  14.576  40.772  0.00  0.00    +0.000 A 
ATOM     24  C   UNL     1      25.326  14.439  40.327  0.00  0.00    +0.000 A 
ATOM     25  C   UNL     1      24.940  14.682  39.031  0.00  0.00    +0.000 A 
BRANCH  23  26
ATOM     26  O   UNL     1      27.010  14.332  42.065  0.00  0.00    +0.000 OA
BRANCH  26  27
ATOM     27  C   UNL     1      26.907  13.104  42.708  0.00  0.00    +0.000 C 
BRANCH  27  28
ATOM     28  C   UNL     1      27.552  12.017  41.952  0.00  0.00    +0.000 A 
ATOM     29  C   UNL     1      26.839  10.938  41.485  0.00  0.00    +0.000 A 
ATOM     30  C   UNL     1      27.456   9.933  40.788  0.00  0.00    +0.000 A 
ATOM     31  C   UNL     1      28.806  10.004  40.554  0.00  0.00    +0.000 A 
ATOM     32  C   UNL     1      29.570  11.070  41.004  0.00  0.00    +0.000 A 
ATOM     33  C   UNL     1      28.910  12.052  41.695  0.00  0.00    +0.000 A 
ENDBRANCH  27  28
ENDBRANCH  26  27
ENDBRANCH  23  26
ENDBRANCH  19  20
ENDBRANCH  13  19
TORSDOF 8
ENDMDL
MODEL 10
REMARK VINA RESULT:      -6.9     23.147     27.694
REMARK  Name = 
REMARK  8 active torsions:
REMARK  status: ('A' for Active; 'I' for Inactive)
REMARK    1  A    between atoms: C_2  and  O_3
REMARK    2  A    between atoms: O_3  and  C_4
REMARK    3  A    between atoms: C_11  and  O_12
REMARK    4  A    between atoms: C_18  and  C_19
REMARK    5  A    between atoms: C_19  and  C_20
REMARK    6  A    between atoms: C_23  and  O_24
REMARK    7  A    between atoms: O_24  and  C_25
REMARK    8  A    between atoms: C_25  and  C_26
REMARK                            x       y       z     vdW  Elec       q    Type
REMARK                         _______ _______ _______ _____ _____    ______ ____
ROOT
ATOM      1  C   UNL     1      35.707   1.740  16.631  0.00  0.00    +0.000 C 
ATOM      2  O   UNL     1      34.461   1.734  16.471  0.00  0.00    +0.000 OA
ATOM      3  N   UNL     1      36.500   2.303  15.629  0.00  0.00    +0.000 N 
ATOM      4  C   UNL     1      35.982   2.862  14.455  0.00  0.00    +0.000 C 
ATOM      5  C   UNL     1      36.217   1.823  13.397  0.00  0.00    +0.000 C 
ATOM      6  C   UNL     1      37.583   1.316  13.547  0.00  0.00    +0.000 A 
ATOM      7  C   UNL     1      38.048   0.562  12.449  0.00  0.00    +0.000 A 
ATOM      8  C   UNL     1      39.311   0.008  12.446  0.00  0.00    +0.000 A 
ATOM      9  C   UNL     1      40.153   0.182  13.529  0.00  0.00    +0.000 A 
ATOM     10  O   UNL     1      41.440  -0.387  13.519  0.00  0.00    +0.000 OA
ATOM     11  C   UNL     1      39.714   0.916  14.606  0.00  0.00    +0.000 A 
ATOM     12  C   UNL     1      38.430   1.450  14.549  0.00  0.00    +0.000 A 
ATOM     13  C   UNL     1      38.055   2.279  15.892  0.00  0.00    +0.000 C 
ENDROOT
BRANCH   8  14
ATOM     14  O   UNL     1      39.816  -0.743  11.389  0.00  0.00    +0.000 OA
ATOM     15  C   UNL     1      39.658  -2.149  11.481  0.00  0.00    +0.000 C 
ENDBRANCH   8  14
BRANCH   1  16
ATOM     16  O   UNL     1      36.256   1.199  17.775  0.00  0.00    +0.000 OA
BRANCH  16  18
ATOM     17  C   UNL     1      36.140  -0.634  19.356  0.00  0.00    +0.000 C 
ATOM     18  C   UNL     1      36.253  -0.208  17.906  0.00  0.00    +0.000 C 
ENDBRANCH  16  18
ENDBRANCH   1  16
BRANCH  13  19
ATOM     19  C   UNL     1      38.320   3.750  15.187  0.00  0.00    +0.000 C 
BRANCH  19  20
ATOM     20  C   UNL     1      38.915   4.604  16.224  0.00  0.00    +0.000 A 
ATOM     21  C   UNL     1      39.900   5.477  15.876  0.00  0.00    +0.000 A 
ATOM     22  C   UNL     1      40.501   6.326  16.783  0.00  0.00    +0.000 A 
ATOM     23  C   UNL     1      40.106   6.307  18.095  0.00  0.00    +0.000 A 
ATOM     24  C   UNL     1      39.100   5.413  18.444  0.00  0.00    +0.000 A 
ATOM     25  C   UNL     1      38.498   4.566  17.544  0.00  0.00    +0.000 A 
BRANCH  23  26
ATOM     26  O   UNL     1      40.697   7.148  18.998  0.00  0.00    +0.000 OA
BRANCH  26  27
ATOM     27  C   UNL     1      41.122   6.781  20.270  0.00  0.00    +0.000 C 
BRANCH  27  28
ATOM     28  C   UNL     1      42.575   6.550  20.333  0.00  0.00    +0.000 A 
ATOM     29  C   UNL     1      43.160   5.900  21.394  0.00  0.00    +0.000 A 
ATOM     30  C   UNL     1      44.514   5.699  21.440  0.00  0.00    +0.000 A 
ATOM     31  C   UNL     1      45.299   6.154  20.410  0.00  0.00    +0.000 A 
ATOM     32  C   UNL     1      44.759   6.816  19.317  0.00  0.00    +0.000 A 
ATOM     33  C   UNL     1      43.400   6.993  19.316  0.00  0.00    +0.000 A 
ENDBRANCH  27  28
ENDBRANCH  26  27
ENDBRANCH  23  26
ENDBRANCH  19  20
ENDBRANCH  13  19
TORSDOF 8
ENDMDL
