MODEL 1
REMARK VINA RESULT:      -8.1      0.000      0.000
REMARK  Name = 
REMARK  7 active torsions:
REMARK  status: ('A' for Active; 'I' for Inactive)
REMARK    1  A    between atoms: C_2  and  O_3
REMARK    2  A    between atoms: O_3  and  C_4
REMARK    3  A    between atoms: C_7  and  N_8
REMARK    4  A    between atoms: C_9  and  C_11
REMARK    5  A    between atoms: C_13  and  C_14
REMARK    6  A    between atoms: C_17  and  O_18
REMARK    7  A    between atoms: O_18  and  C_19
REMARK                            x       y       z     vdW  Elec       q    Type
REMARK                         _______ _______ _______ _____ _____    ______ ____
ROOT
ATOM      1  C   UNL     1      37.307   3.858  16.205  0.00  0.00    +0.000 A 
ATOM      2  C   UNL     1      38.262   4.252  17.101  0.00  0.00    +0.000 A 
ATOM      3  C   UNL     1      38.810   5.508  16.943  0.00  0.00    +0.000 A 
ATOM      4  N   UNL     1      38.414   6.311  15.943  0.00  0.00    +0.000 NA
ATOM      5  C   UNL     1      37.482   5.961  15.045  0.00  0.00    +0.000 A 
ATOM      6  C   UNL     1      37.092   6.812  14.022  0.00  0.00    +0.000 A 
ATOM      7  C   UNL     1      36.133   6.400  13.132  0.00  0.00    +0.000 A 
ATOM      8  C   UNL     1      35.561   5.149  13.256  0.00  0.00    +0.000 A 
ATOM      9  C   UNL     1      35.941   4.298  14.269  0.00  0.00    +0.000 A 
ATOM     10  C   UNL     1      36.917   4.711  15.178  0.00  0.00    +0.000 A 
ENDROOT
BRANCH   3  11
ATOM     11  C   UNL     1      39.838   5.973  17.883  0.00  0.00    +0.000 A 
ATOM     12  C   UNL     1      41.122   6.251  17.485  0.00  0.00    +0.000 A 
ATOM     13  C   UNL     1      42.061   6.689  18.407  0.00  0.00    +0.000 A 
ATOM     14  C   UNL     1      41.755   6.862  19.740  0.00  0.00    +0.000 A 
ATOM     15  C   UNL     1      40.462   6.580  20.128  0.00  0.00    +0.000 A 
ATOM     16  C   UNL     1      39.525   6.144  19.213  0.00  0.00    +0.000 A 
BRANCH  14  17
ATOM     17  O   UNL     1      42.704   7.305  20.674  0.00  0.00    +0.000 OA
BRANCH  17  18
ATOM     18  C   UNL     1      43.983   6.718  20.672  0.00  0.00    +0.000 C 
ATOM     19  C   UNL     1      43.962   5.629  21.750  0.00  0.00    +0.000 C 
ENDBRANCH  17  18
ENDBRANCH  14  17
ENDBRANCH   3  11
BRANCH   1  21
ATOM     20  N   UNL     1      37.231   1.373  15.793  0.00  0.00    +0.000 NA
ATOM     21  C   UNL     1      36.647   2.554  16.255  0.00  0.00    +0.000 C 
ATOM     22  O   UNL     1      35.491   2.520  16.742  0.00  0.00    +0.000 OA
BRANCH  20  26
ATOM     23  C   UNL     1      35.471  -2.481  15.781  0.00  0.00    +0.000 A 
ATOM     24  C   UNL     1      36.378  -2.095  14.823  0.00  0.00    +0.000 A 
ATOM     25  C   UNL     1      36.949  -0.818  14.843  0.00  0.00    +0.000 A 
ATOM     26  C   UNL     1      36.618   0.090  15.826  0.00  0.00    +0.000 A 
ATOM     27  C   UNL     1      35.710  -0.316  16.774  0.00  0.00    +0.000 A 
ATOM     28  C   UNL     1      35.138  -1.579  16.765  0.00  0.00    +0.000 A 
BRANCH  23  29
ATOM     29  O   UNL     1      34.876  -3.745  15.803  0.00  0.00    +0.000 OA
BRANCH  29  31
ATOM     30  C   UNL     1      33.624  -4.884  14.108  0.00  0.00    +0.000 C 
ATOM     31  C   UNL     1      33.571  -3.964  15.299  0.00  0.00    +0.000 C 
ENDBRANCH  29  31
ENDBRANCH  23  29
ENDBRANCH  20  26
ENDBRANCH   1  21
TORSDOF 7
ENDMDL
MODEL 2
REMARK VINA RESULT:      -7.8      3.223      6.977
REMARK  Name = 
REMARK  7 active torsions:
REMARK  status: ('A' for Active; 'I' for Inactive)
REMARK    1  A    between atoms: C_2  and  O_3
REMARK    2  A    between atoms: O_3  and  C_4
REMARK    3  A    between atoms: C_7  and  N_8
REMARK    4  A    between atoms: C_9  and  C_11
REMARK    5  A    between atoms: C_13  and  C_14
REMARK    6  A    between atoms: C_17  and  O_18
REMARK    7  A    between atoms: O_18  and  C_19
REMARK                            x       y       z     vdW  Elec       q    Type
REMARK                         _______ _______ _______ _____ _____    ______ ____
ROOT
ATOM      1  C   UNL     1      37.292   5.189  14.864  0.00  0.00    +0.000 A 
ATOM      2  C   UNL     1      38.260   5.750  15.652  0.00  0.00    +0.000 A 
ATOM      3  C   UNL     1      38.548   5.131  16.851  0.00  0.00    +0.000 A 
ATOM      4  N   UNL     1      37.899   4.018  17.225  0.00  0.00    +0.000 NA
ATOM      5  C   UNL     1      36.945   3.439  16.482  0.00  0.00    +0.000 A 
ATOM      6  C   UNL     1      36.291   2.289  16.895  0.00  0.00    +0.000 A 
ATOM      7  C   UNL     1      35.322   1.740  16.092  0.00  0.00    +0.000 A 
ATOM      8  C   UNL     1      35.005   2.330  14.885  0.00  0.00    +0.000 A 
ATOM      9  C   UNL     1      35.649   3.472  14.467  0.00  0.00    +0.000 A 
ATOM     10  C   UNL     1      36.635   4.035  15.278  0.00  0.00    +0.000 A 
ENDROOT
BRANCH   3  11
ATOM     11  C   UNL     1      39.581   5.698  17.728  0.00  0.00    +0.000 A 
ATOM     12  C   UNL     1      40.831   6.028  17.266  0.00  0.00    +0.000 A 
ATOM     13  C   UNL     1      41.777   6.562  18.129  0.00  0.00    +0.000 A 
ATOM     14  C   UNL     1      41.511   6.782  19.464  0.00  0.00    +0.000 A 
ATOM     15  C   UNL     1      40.251   6.446  19.916  0.00  0.00    +0.000 A 
ATOM     16  C   UNL     1      39.308   5.915  19.060  0.00  0.00    +0.000 A 
BRANCH  14  17
ATOM     17  O   UNL     1      42.466   7.322  20.339  0.00  0.00    +0.000 OA
BRANCH  17  18
ATOM     18  C   UNL     1      43.734   6.717  20.416  0.00  0.00    +0.000 C 
ATOM     19  C   UNL     1      43.667   5.715  21.573  0.00  0.00    +0.000 C 
ENDBRANCH  17  18
ENDBRANCH  14  17
ENDBRANCH   3  11
BRANCH   1  21
ATOM     20  N   UNL     1      35.954   6.771  13.429  0.00  0.00    +0.000 NA
ATOM     21  C   UNL     1      36.887   5.742  13.573  0.00  0.00    +0.000 C 
ATOM     22  O   UNL     1      37.419   5.246  12.550  0.00  0.00    +0.000 OA
BRANCH  20  26
ATOM     23  C   UNL     1      34.608   8.356   9.738  0.00  0.00    +0.000 A 
ATOM     24  C   UNL     1      33.915   7.372  10.401  0.00  0.00    +0.000 A 
ATOM     25  C   UNL     1      34.374   6.860  11.619  0.00  0.00    +0.000 A 
ATOM     26  C   UNL     1      35.538   7.330  12.190  0.00  0.00    +0.000 A 
ATOM     27  C   UNL     1      36.216   8.315  11.512  0.00  0.00    +0.000 A 
ATOM     28  C   UNL     1      35.770   8.829  10.304  0.00  0.00    +0.000 A 
BRANCH  23  29
ATOM     29  O   UNL     1      34.188   8.898   8.521  0.00  0.00    +0.000 OA
BRANCH  29  31
ATOM     30  C   UNL     1      35.228   8.469   6.406  0.00  0.00    +0.000 C 
ATOM     31  C   UNL     1      34.104   8.116   7.344  0.00  0.00    +0.000 C 
ENDBRANCH  29  31
ENDBRANCH  23  29
ENDBRANCH  20  26
ENDBRANCH   1  21
TORSDOF 7
ENDMDL
MODEL 3
REMARK VINA RESULT:      -7.5      3.391      9.297
REMARK  Name = 
REMARK  7 active torsions:
REMARK  status: ('A' for Active; 'I' for Inactive)
REMARK    1  A    between atoms: C_2  and  O_3
REMARK    2  A    between atoms: O_3  and  C_4
REMARK    3  A    between atoms: C_7  and  N_8
REMARK    4  A    between atoms: C_9  and  C_11
REMARK    5  A    between atoms: C_13  and  C_14
REMARK    6  A    between atoms: C_17  and  O_18
REMARK    7  A    between atoms: O_18  and  C_19
REMARK                            x       y       z     vdW  Elec       q    Type
REMARK                         _______ _______ _______ _____ _____    ______ ____
ROOT
ATOM      1  C   UNL     1      36.055   4.295  14.524  0.00  0.00    +0.000 A 
ATOM      2  C   UNL     1      35.672   2.992  14.694  0.00  0.00    +0.000 A 
ATOM      3  C   UNL     1      36.280   2.271  15.700  0.00  0.00    +0.000 A 
ATOM      4  N   UNL     1      37.213   2.834  16.482  0.00  0.00    +0.000 NA
ATOM      5  C   UNL     1      37.616   4.105  16.348  0.00  0.00    +0.000 A 
ATOM      6  C   UNL     1      38.584   4.660  17.172  0.00  0.00    +0.000 A 
ATOM      7  C   UNL     1      38.957   5.968  16.987  0.00  0.00    +0.000 A 
ATOM      8  C   UNL     1      38.371   6.722  15.989  0.00  0.00    +0.000 A 
ATOM      9  C   UNL     1      37.410   6.181  15.167  0.00  0.00    +0.000 A 
ATOM     10  C   UNL     1      37.026   4.851  15.350  0.00  0.00    +0.000 A 
ENDROOT
BRANCH   3  11
ATOM     11  C   UNL     1      35.898   0.870  15.919  0.00  0.00    +0.000 A 
ATOM     12  C   UNL     1      35.030   0.495  16.914  0.00  0.00    +0.000 A 
ATOM     13  C   UNL     1      34.696  -0.840  17.084  0.00  0.00    +0.000 A 
ATOM     14  C   UNL     1      35.209  -1.834  16.278  0.00  0.00    +0.000 A 
ATOM     15  C   UNL     1      36.081  -1.445  15.282  0.00  0.00    +0.000 A 
ATOM     16  C   UNL     1      36.416  -0.117  15.110  0.00  0.00    +0.000 A 
BRANCH  14  17
ATOM     17  O   UNL     1      34.873  -3.185  16.449  0.00  0.00    +0.000 OA
BRANCH  17  18
ATOM     18  C   UNL     1      34.973  -4.055  15.348  0.00  0.00    +0.000 C 
ATOM     19  C   UNL     1      33.540  -4.351  14.896  0.00  0.00    +0.000 C 
ENDBRANCH  17  18
ENDBRANCH  14  17
ENDBRANCH   3  11
BRANCH   1  21
ATOM     20  N   UNL     1      36.067   5.350  12.235  0.00  0.00    +0.000 NA
ATOM     21  C   UNL     1      35.494   5.170  13.497  0.00  0.00    +0.000 C 
ATOM     22  O   UNL     1      34.440   5.787  13.787  0.00  0.00    +0.000 OA
BRANCH  20  26
ATOM     23  C   UNL     1      34.565   7.774   9.102  0.00  0.00    +0.000 A 
ATOM     24  C   UNL     1      35.189   6.574   8.856  0.00  0.00    +0.000 A 
ATOM     25  C   UNL     1      35.679   5.786   9.903  0.00  0.00    +0.000 A 
ATOM     26  C   UNL     1      35.548   6.193  11.214  0.00  0.00    +0.000 A 
ATOM     27  C   UNL     1      34.921   7.395  11.439  0.00  0.00    +0.000 A 
ATOM     28  C   UNL     1      34.432   8.183  10.409  0.00  0.00    +0.000 A 
BRANCH  23  29
ATOM     29  O   UNL     1      34.059   8.593   8.090  0.00  0.00    +0.000 OA
BRANCH  29  31
ATOM     30  C   UNL     1      33.003   8.174   5.982  0.00  0.00    +0.000 C 
ATOM     31  C   UNL     1      34.306   8.328   6.721  0.00  0.00    +0.000 C 
ENDBRANCH  29  31
ENDBRANCH  23  29
ENDBRANCH  20  26
ENDBRANCH   1  21
TORSDOF 7
ENDMDL
MODEL 4
REMARK VINA RESULT:      -7.5     24.630     27.973
REMARK  Name = 
REMARK  7 active torsions:
REMARK  status: ('A' for Active; 'I' for Inactive)
REMARK    1  A    between atoms: C_2  and  O_3
REMARK    2  A    between atoms: O_3  and  C_4
REMARK    3  A    between atoms: C_7  and  N_8
REMARK    4  A    between atoms: C_9  and  C_11
REMARK    5  A    between atoms: C_13  and  C_14
REMARK    6  A    between atoms: C_17  and  O_18
REMARK    7  A    between atoms: O_18  and  C_19
REMARK                            x       y       z     vdW  Elec       q    Type
REMARK                         _______ _______ _______ _____ _____    ______ ____
ROOT
ATOM      1  C   UNL     1      13.130   0.017  27.277  0.00  0.00    +0.000 A 
ATOM      2  C   UNL     1      12.411   1.151  27.535  0.00  0.00    +0.000 A 
ATOM      3  C   UNL     1      11.048   1.022  27.704  0.00  0.00    +0.000 A 
ATOM      4  N   UNL     1      10.455  -0.178  27.619  0.00  0.00    +0.000 NA
ATOM      5  C   UNL     1      11.124  -1.312  27.367  0.00  0.00    +0.000 A 
ATOM      6  C   UNL     1      10.483  -2.539  27.284  0.00  0.00    +0.000 A 
ATOM      7  C   UNL     1      11.220  -3.667  27.024  0.00  0.00    +0.000 A 
ATOM      8  C   UNL     1      12.586  -3.579  26.848  0.00  0.00    +0.000 A 
ATOM      9  C   UNL     1      13.231  -2.365  26.929  0.00  0.00    +0.000 A 
ATOM     10  C   UNL     1      12.488  -1.214  27.193  0.00  0.00    +0.000 A 
ENDROOT
BRANCH   3  11
ATOM     11  C   UNL     1      10.238   2.215  27.984  0.00  0.00    +0.000 A 
ATOM     12  C   UNL     1      10.433   2.986  29.103  0.00  0.00    +0.000 A 
ATOM     13  C   UNL     1       9.645   4.105  29.327  0.00  0.00    +0.000 A 
ATOM     14  C   UNL     1       8.648   4.487  28.455  0.00  0.00    +0.000 A 
ATOM     15  C   UNL     1       8.460   3.704  27.335  0.00  0.00    +0.000 A 
ATOM     16  C   UNL     1       9.243   2.590  27.109  0.00  0.00    +0.000 A 
BRANCH  14  17
ATOM     17  O   UNL     1       7.849   5.618  28.681  0.00  0.00    +0.000 OA
BRANCH  17  18
ATOM     18  C   UNL     1       7.274   5.801  29.952  0.00  0.00    +0.000 C 
ATOM     19  C   UNL     1       5.978   4.984  29.963  0.00  0.00    +0.000 C 
ENDBRANCH  17  18
ENDBRANCH  14  17
ENDBRANCH   3  11
BRANCH   1  21
ATOM     20  N   UNL     1      15.186  -0.197  25.835  0.00  0.00    +0.000 NA
ATOM     21  C   UNL     1      14.578   0.011  27.076  0.00  0.00    +0.000 C 
ATOM     22  O   UNL     1      15.295   0.202  28.088  0.00  0.00    +0.000 OA
BRANCH  20  26
ATOM     23  C   UNL     1      19.362  -0.102  25.130  0.00  0.00    +0.000 A 
ATOM     24  C   UNL     1      18.599   1.040  25.117  0.00  0.00    +0.000 A 
ATOM     25  C   UNL     1      17.221   0.990  25.352  0.00  0.00    +0.000 A 
ATOM     26  C   UNL     1      16.589  -0.210  25.604  0.00  0.00    +0.000 A 
ATOM     27  C   UNL     1      17.371  -1.340  25.613  0.00  0.00    +0.000 A 
ATOM     28  C   UNL     1      18.737  -1.302  25.381  0.00  0.00    +0.000 A 
BRANCH  23  29
ATOM     29  O   UNL     1      20.741  -0.102  24.901  0.00  0.00    +0.000 OA
BRANCH  29  31
ATOM     30  C   UNL     1      21.000  -0.297  22.528  0.00  0.00    +0.000 C 
ATOM     31  C   UNL     1      21.308   0.513  23.760  0.00  0.00    +0.000 C 
ENDBRANCH  29  31
ENDBRANCH  23  29
ENDBRANCH  20  26
ENDBRANCH   1  21
TORSDOF 7
ENDMDL
MODEL 5
REMARK VINA RESULT:      -7.5     24.779     27.761
REMARK  Name = 
REMARK  7 active torsions:
REMARK  status: ('A' for Active; 'I' for Inactive)
REMARK    1  A    between atoms: C_2  and  O_3
REMARK    2  A    between atoms: O_3  and  C_4
REMARK    3  A    between atoms: C_7  and  N_8
REMARK    4  A    between atoms: C_9  and  C_11
REMARK    5  A    between atoms: C_13  and  C_14
REMARK    6  A    between atoms: C_17  and  O_18
REMARK    7  A    between atoms: O_18  and  C_19
REMARK                            x       y       z     vdW  Elec       q    Type
REMARK                         _______ _______ _______ _____ _____    ______ ____
ROOT
ATOM      1  C   UNL     1      12.871   0.354  27.516  0.00  0.00    +0.000 A 
ATOM      2  C   UNL     1      13.945   0.197  26.685  0.00  0.00    +0.000 A 
ATOM      3  C   UNL     1      15.191   0.070  27.264  0.00  0.00    +0.000 A 
ATOM      4  N   UNL     1      15.336   0.100  28.597  0.00  0.00    +0.000 NA
ATOM      5  C   UNL     1      14.310   0.253  29.445  0.00  0.00    +0.000 A 
ATOM      6  C   UNL     1      14.491   0.281  30.819  0.00  0.00    +0.000 A 
ATOM      7  C   UNL     1      13.402   0.440  31.639  0.00  0.00    +0.000 A 
ATOM      8  C   UNL     1      12.138   0.571  31.097  0.00  0.00    +0.000 A 
ATOM      9  C   UNL     1      11.949   0.545  29.735  0.00  0.00    +0.000 A 
ATOM     10  C   UNL     1      13.052   0.383  28.895  0.00  0.00    +0.000 A 
ENDROOT
BRANCH   3  11
ATOM     11  C   UNL     1      16.372  -0.102  26.408  0.00  0.00    +0.000 A 
ATOM     12  C   UNL     1      16.781  -1.336  25.965  0.00  0.00    +0.000 A 
ATOM     13  C   UNL     1      17.903  -1.453  25.157  0.00  0.00    +0.000 A 
ATOM     14  C   UNL     1      18.645  -0.357  24.769  0.00  0.00    +0.000 A 
ATOM     15  C   UNL     1      18.225   0.877  25.221  0.00  0.00    +0.000 A 
ATOM     16  C   UNL     1      17.109   0.996  26.025  0.00  0.00    +0.000 A 
BRANCH  14  17
ATOM     17  O   UNL     1      19.780  -0.474  23.953  0.00  0.00    +0.000 OA
BRANCH  17  18
ATOM     18  C   UNL     1      20.907   0.318  24.240  0.00  0.00    +0.000 C 
ATOM     19  C   UNL     1      21.339   0.955  22.915  0.00  0.00    +0.000 C 
ENDBRANCH  17  18
ENDBRANCH  14  17
ENDBRANCH   3  11
BRANCH   1  21
ATOM     20  N   UNL     1      10.935   1.725  26.665  0.00  0.00    +0.000 NA
ATOM     21  C   UNL     1      11.498   0.502  27.037  0.00  0.00    +0.000 C 
ATOM     22  O   UNL     1      10.804  -0.542  26.967  0.00  0.00    +0.000 OA
BRANCH  20  26
ATOM     23  C   UNL     1       6.940   2.314  25.383  0.00  0.00    +0.000 A 
ATOM     24  C   UNL     1       7.373   2.726  26.621  0.00  0.00    +0.000 A 
ATOM     25  C   UNL     1       8.696   2.523  27.028  0.00  0.00    +0.000 A 
ATOM     26  C   UNL     1       9.605   1.903  26.196  0.00  0.00    +0.000 A 
ATOM     27  C   UNL     1       9.152   1.500  24.962  0.00  0.00    +0.000 A 
ATOM     28  C   UNL     1       7.843   1.696  24.549  0.00  0.00    +0.000 A 
BRANCH  23  29
ATOM     29  O   UNL     1       5.630   2.496  24.933  0.00  0.00    +0.000 OA
BRANCH  29  31
ATOM     30  C   UNL     1       4.387   2.452  22.886  0.00  0.00    +0.000 C 
ATOM     31  C   UNL     1       5.046   1.640  23.969  0.00  0.00    +0.000 C 
ENDBRANCH  29  31
ENDBRANCH  23  29
ENDBRANCH  20  26
ENDBRANCH   1  21
TORSDOF 7
ENDMDL
MODEL 6
REMARK VINA RESULT:      -7.5      1.587      9.548
REMARK  Name = 
REMARK  7 active torsions:
REMARK  status: ('A' for Active; 'I' for Inactive)
REMARK    1  A    between atoms: C_2  and  O_3
REMARK    2  A    between atoms: O_3  and  C_4
REMARK    3  A    between atoms: C_7  and  N_8
REMARK    4  A    between atoms: C_9  and  C_11
REMARK    5  A    between atoms: C_13  and  C_14
REMARK    6  A    between atoms: C_17  and  O_18
REMARK    7  A    between atoms: O_18  and  C_19
REMARK                            x       y       z     vdW  Elec       q    Type
REMARK                         _______ _______ _______ _____ _____    ______ ____
ROOT
ATOM      1  C   UNL     1      37.636   4.582  16.099  0.00  0.00    +0.000 A 
ATOM      2  C   UNL     1      37.315   3.278  16.362  0.00  0.00    +0.000 A 
ATOM      3  C   UNL     1      36.307   2.704  15.616  0.00  0.00    +0.000 A 
ATOM      4  N   UNL     1      35.668   3.404  14.668  0.00  0.00    +0.000 NA
ATOM      5  C   UNL     1      35.952   4.682  14.381  0.00  0.00    +0.000 A 
ATOM      6  C   UNL     1      35.273   5.382  13.394  0.00  0.00    +0.000 A 
ATOM      7  C   UNL     1      35.608   6.689  13.144  0.00  0.00    +0.000 A 
ATOM      8  C   UNL     1      36.612   7.300  13.870  0.00  0.00    +0.000 A 
ATOM      9  C   UNL     1      37.291   6.614  14.851  0.00  0.00    +0.000 A 
ATOM     10  C   UNL     1      36.955   5.284  15.110  0.00  0.00    +0.000 A 
ENDROOT
BRANCH   3  11
ATOM     11  C   UNL     1      35.930   1.306  15.864  0.00  0.00    +0.000 A 
ATOM     12  C   UNL     1      35.017   0.953  16.827  0.00  0.00    +0.000 A 
ATOM     13  C   UNL     1      34.690  -0.380  17.026  0.00  0.00    +0.000 A 
ATOM     14  C   UNL     1      35.256  -1.393  16.282  0.00  0.00    +0.000 A 
ATOM     15  C   UNL     1      36.172  -1.027  15.318  0.00  0.00    +0.000 A 
ATOM     16  C   UNL     1      36.499   0.299  15.117  0.00  0.00    +0.000 A 
BRANCH  14  17
ATOM     17  O   UNL     1      34.927  -2.742  16.482  0.00  0.00    +0.000 OA
BRANCH  17  18
ATOM     18  C   UNL     1      34.931  -3.614  15.378  0.00  0.00    +0.000 C 
ATOM     19  C   UNL     1      33.506  -4.164  15.254  0.00  0.00    +0.000 C 
ENDBRANCH  17  18
ENDBRANCH  14  17
ENDBRANCH   3  11
BRANCH   1  21
ATOM     20  N   UNL     1      38.473   5.975  18.025  0.00  0.00    +0.000 NA
ATOM     21  C   UNL     1      38.682   5.312  16.814  0.00  0.00    +0.000 C 
ATOM     22  O   UNL     1      39.822   5.333  16.290  0.00  0.00    +0.000 OA
BRANCH  20  26
ATOM     23  C   UNL     1      41.389   8.230  20.112  0.00  0.00    +0.000 A 
ATOM     24  C   UNL     1      40.509   8.817  19.236  0.00  0.00    +0.000 A 
ATOM     25  C   UNL     1      39.552   8.057  18.555  0.00  0.00    +0.000 A 
ATOM     26  C   UNL     1      39.465   6.694  18.746  0.00  0.00    +0.000 A 
ATOM     27  C   UNL     1      40.355   6.127  19.626  0.00  0.00    +0.000 A 
ATOM     28  C   UNL     1      41.307   6.870  20.306  0.00  0.00    +0.000 A 
BRANCH  23  29
ATOM     29  O   UNL     1      42.361   8.948  20.815  0.00  0.00    +0.000 OA
BRANCH  29  31
ATOM     30  C   UNL     1      44.091   8.327  22.350  0.00  0.00    +0.000 C 
ATOM     31  C   UNL     1      43.700   8.499  20.906  0.00  0.00    +0.000 C 
ENDBRANCH  29  31
ENDBRANCH  23  29
ENDBRANCH  20  26
ENDBRANCH   1  21
TORSDOF 7
ENDMDL
MODEL 7
REMARK VINA RESULT:      -7.4     24.260     27.053
REMARK  Name = 
REMARK  7 active torsions:
REMARK  status: ('A' for Active; 'I' for Inactive)
REMARK    1  A    between atoms: C_2  and  O_3
REMARK    2  A    between atoms: O_3  and  C_4
REMARK    3  A    between atoms: C_7  and  N_8
REMARK    4  A    between atoms: C_9  and  C_11
REMARK    5  A    between atoms: C_13  and  C_14
REMARK    6  A    between atoms: C_17  and  O_18
REMARK    7  A    between atoms: O_18  and  C_19
REMARK                            x       y       z     vdW  Elec       q    Type
REMARK                         _______ _______ _______ _____ _____    ______ ____
ROOT
ATOM      1  C   UNL     1      14.146   0.283  28.680  0.00  0.00    +0.000 A 
ATOM      2  C   UNL     1      14.429   0.061  29.999  0.00  0.00    +0.000 A 
ATOM      3  C   UNL     1      13.457   0.377  30.926  0.00  0.00    +0.000 A 
ATOM      4  N   UNL     1      12.277   0.885  30.539  0.00  0.00    +0.000 NA
ATOM      5  C   UNL     1      11.962   1.118  29.257  0.00  0.00    +0.000 A 
ATOM      6  C   UNL     1      10.734   1.644  28.887  0.00  0.00    +0.000 A 
ATOM      7  C   UNL     1      10.467   1.862  27.559  0.00  0.00    +0.000 A 
ATOM      8  C   UNL     1      11.414   1.559  26.601  0.00  0.00    +0.000 A 
ATOM      9  C   UNL     1      12.636   1.036  26.959  0.00  0.00    +0.000 A 
ATOM     10  C   UNL     1      12.914   0.812  28.308  0.00  0.00    +0.000 A 
ENDROOT
BRANCH   3  11
ATOM     11  C   UNL     1      13.718   0.153  32.354  0.00  0.00    +0.000 A 
ATOM     12  C   UNL     1      12.784   0.431  33.320  0.00  0.00    +0.000 A 
ATOM     13  C   UNL     1      13.072   0.203  34.658  0.00  0.00    +0.000 A 
ATOM     14  C   UNL     1      14.286  -0.305  35.071  0.00  0.00    +0.000 A 
ATOM     15  C   UNL     1      15.216  -0.581  34.090  0.00  0.00    +0.000 A 
ATOM     16  C   UNL     1      14.932  -0.355  32.758  0.00  0.00    +0.000 A 
BRANCH  14  17
ATOM     17  O   UNL     1      14.579  -0.536  36.423  0.00  0.00    +0.000 OA
BRANCH  17  18
ATOM     18  C   UNL     1      13.522  -0.577  37.350  0.00  0.00    +0.000 C 
ATOM     19  C   UNL     1      13.724  -1.846  38.184  0.00  0.00    +0.000 C 
ENDBRANCH  17  18
ENDBRANCH  14  17
ENDBRANCH   3  11
BRANCH   1  21
ATOM     20  N   UNL     1      16.424   0.389  27.608  0.00  0.00    +0.000 NA
ATOM     21  C   UNL     1      15.084  -0.005  27.597  0.00  0.00    +0.000 C 
ATOM     22  O   UNL     1      14.638  -0.640  26.611  0.00  0.00    +0.000 OA
BRANCH  20  26
ATOM     23  C   UNL     1      19.209  -0.266  24.484  0.00  0.00    +0.000 A 
ATOM     24  C   UNL     1      18.634   0.963  24.696  0.00  0.00    +0.000 A 
ATOM     25  C   UNL     1      17.716   1.162  25.732  0.00  0.00    +0.000 A 
ATOM     26  C   UNL     1      17.363   0.127  26.573  0.00  0.00    +0.000 A 
ATOM     27  C   UNL     1      17.950  -1.094  26.344  0.00  0.00    +0.000 A 
ATOM     28  C   UNL     1      18.861  -1.302  25.320  0.00  0.00    +0.000 A 
BRANCH  23  29
ATOM     29  O   UNL     1      20.131  -0.512  23.463  0.00  0.00    +0.000 OA
BRANCH  29  31
ATOM     30  C   UNL     1      20.594  -1.542  21.350  0.00  0.00    +0.000 C 
ATOM     31  C   UNL     1      20.179  -1.752  22.782  0.00  0.00    +0.000 C 
ENDBRANCH  29  31
ENDBRANCH  23  29
ENDBRANCH  20  26
ENDBRANCH   1  21
TORSDOF 7
ENDMDL
MODEL 8
REMARK VINA RESULT:      -7.3      5.136      9.041
REMARK  Name = 
REMARK  7 active torsions:
REMARK  status: ('A' for Active; 'I' for Inactive)
REMARK    1  A    between atoms: C_2  and  O_3
REMARK    2  A    between atoms: O_3  and  C_4
REMARK    3  A    between atoms: C_7  and  N_8
REMARK    4  A    between atoms: C_9  and  C_11
REMARK    5  A    between atoms: C_13  and  C_14
REMARK    6  A    between atoms: C_17  and  O_18
REMARK    7  A    between atoms: O_18  and  C_19
REMARK                            x       y       z     vdW  Elec       q    Type
REMARK                         _______ _______ _______ _____ _____    ______ ____
ROOT
ATOM      1  C   UNL     1      38.812  -0.906  14.995  0.00  0.00    +0.000 A 
ATOM      2  C   UNL     1      39.994  -1.081  14.330  0.00  0.00    +0.000 A 
ATOM      3  C   UNL     1      40.808  -2.120  14.731  0.00  0.00    +0.000 A 
ATOM      4  N   UNL     1      40.446  -2.927  15.739  0.00  0.00    +0.000 NA
ATOM      5  C   UNL     1      39.298  -2.788  16.417  0.00  0.00    +0.000 A 
ATOM      6  C   UNL     1      38.950  -3.638  17.456  0.00  0.00    +0.000 A 
ATOM      7  C   UNL     1      37.761  -3.448  18.113  0.00  0.00    +0.000 A 
ATOM      8  C   UNL     1      36.920  -2.418  17.741  0.00  0.00    +0.000 A 
ATOM      9  C   UNL     1      37.256  -1.569  16.711  0.00  0.00    +0.000 A 
ATOM     10  C   UNL     1      38.464  -1.758  16.038  0.00  0.00    +0.000 A 
ENDROOT
BRANCH   3  11
ATOM     11  C   UNL     1      42.085  -2.346  14.043  0.00  0.00    +0.000 A 
ATOM     12  C   UNL     1      42.189  -3.158  12.941  0.00  0.00    +0.000 A 
ATOM     13  C   UNL     1      43.416  -3.343  12.321  0.00  0.00    +0.000 A 
ATOM     14  C   UNL     1      44.566  -2.731  12.773  0.00  0.00    +0.000 A 
ATOM     15  C   UNL     1      44.450  -1.918  13.882  0.00  0.00    +0.000 A 
ATOM     16  C   UNL     1      43.230  -1.733  14.501  0.00  0.00    +0.000 A 
BRANCH  14  17
ATOM     17  O   UNL     1      45.808  -2.917  12.148  0.00  0.00    +0.000 OA
BRANCH  17  18
ATOM     18  C   UNL     1      46.944  -3.145  12.947  0.00  0.00    +0.000 C 
ATOM     19  C   UNL     1      46.991  -4.653  13.215  0.00  0.00    +0.000 C 
ENDBRANCH  17  18
ENDBRANCH  14  17
ENDBRANCH   3  11
BRANCH   1  21
ATOM     20  N   UNL     1      37.762   1.351  15.390  0.00  0.00    +0.000 NA
ATOM     21  C   UNL     1      37.859   0.155  14.675  0.00  0.00    +0.000 C 
ATOM     22  O   UNL     1      37.093  -0.043  13.700  0.00  0.00    +0.000 OA
BRANCH  20  26
ATOM     23  C   UNL     1      35.136   4.551  14.490  0.00  0.00    +0.000 A 
ATOM     24  C   UNL     1      36.470   4.594  14.164  0.00  0.00    +0.000 A 
ATOM     25  C   UNL     1      37.323   3.528  14.469  0.00  0.00    +0.000 A 
ATOM     26  C   UNL     1      36.847   2.401  15.106  0.00  0.00    +0.000 A 
ATOM     27  C   UNL     1      35.510   2.379  15.424  0.00  0.00    +0.000 A 
ATOM     28  C   UNL     1      34.656   3.429  15.126  0.00  0.00    +0.000 A 
BRANCH  23  29
ATOM     29  O   UNL     1      34.246   5.591  14.206  0.00  0.00    +0.000 OA
BRANCH  29  31
ATOM     30  C   UNL     1      33.754   7.900  14.604  0.00  0.00    +0.000 C 
ATOM     31  C   UNL     1      34.694   6.912  13.966  0.00  0.00    +0.000 C 
ENDBRANCH  29  31
ENDBRANCH  23  29
ENDBRANCH  20  26
ENDBRANCH   1  21
TORSDOF 7
ENDMDL
MODEL 9
REMARK VINA RESULT:      -7.3     24.171     27.286
REMARK  Name = 
REMARK  7 active torsions:
REMARK  status: ('A' for Active; 'I' for Inactive)
REMARK    1  A    between atoms: C_2  and  O_3
REMARK    2  A    between atoms: O_3  and  C_4
REMARK    3  A    between atoms: C_7  and  N_8
REMARK    4  A    between atoms: C_9  and  C_11
REMARK    5  A    between atoms: C_13  and  C_14
REMARK    6  A    between atoms: C_17  and  O_18
REMARK    7  A    between atoms: O_18  and  C_19
REMARK                            x       y       z     vdW  Elec       q    Type
REMARK                         _______ _______ _______ _____ _____    ______ ____
ROOT
ATOM      1  C   UNL     1      13.063   0.117  26.901  0.00  0.00    +0.000 A 
ATOM      2  C   UNL     1      14.208   0.014  26.159  0.00  0.00    +0.000 A 
ATOM      3  C   UNL     1      15.410  -0.008  26.836  0.00  0.00    +0.000 A 
ATOM      4  N   UNL     1      15.448   0.068  28.174  0.00  0.00    +0.000 NA
ATOM      5  C   UNL     1      14.350   0.171  28.936  0.00  0.00    +0.000 A 
ATOM      6  C   UNL     1      14.420   0.249  30.319  0.00  0.00    +0.000 A 
ATOM      7  C   UNL     1      13.262   0.352  31.047  0.00  0.00    +0.000 A 
ATOM      8  C   UNL     1      12.039   0.378  30.406  0.00  0.00    +0.000 A 
ATOM      9  C   UNL     1      11.959   0.302  29.035  0.00  0.00    +0.000 A 
ATOM     10  C   UNL     1      13.133   0.196  28.288  0.00  0.00    +0.000 A 
ENDROOT
BRANCH   3  11
ATOM     11  C   UNL     1      16.664  -0.120  26.079  0.00  0.00    +0.000 A 
ATOM     12  C   UNL     1      17.201  -1.333  25.728  0.00  0.00    +0.000 A 
ATOM     13  C   UNL     1      18.388  -1.392  25.012  0.00  0.00    +0.000 A 
ATOM     14  C   UNL     1      19.070  -0.257  24.627  0.00  0.00    +0.000 A 
ATOM     15  C   UNL     1      18.520   0.956  24.986  0.00  0.00    +0.000 A 
ATOM     16  C   UNL     1      17.339   1.018  25.698  0.00  0.00    +0.000 A 
BRANCH  14  17
ATOM     17  O   UNL     1      20.270  -0.315  23.903  0.00  0.00    +0.000 OA
BRANCH  17  18
ATOM     18  C   UNL     1      20.412   0.490  22.758  0.00  0.00    +0.000 C 
ATOM     19  C   UNL     1      20.706  -0.461  21.592  0.00  0.00    +0.000 C 
ENDBRANCH  17  18
ENDBRANCH  14  17
ENDBRANCH   3  11
BRANCH   1  21
ATOM     20  N   UNL     1      10.980  -0.989  26.015  0.00  0.00    +0.000 NA
ATOM     21  C   UNL     1      11.725   0.153  26.313  0.00  0.00    +0.000 C 
ATOM     22  O   UNL     1      11.241   1.285  26.069  0.00  0.00    +0.000 OA
BRANCH  20  26
ATOM     23  C   UNL     1       7.156  -1.008  24.191  0.00  0.00    +0.000 A 
ATOM     24  C   UNL     1       8.309  -1.168  23.461  0.00  0.00    +0.000 A 
ATOM     25  C   UNL     1       9.563  -1.159  24.079  0.00  0.00    +0.000 A 
ATOM     26  C   UNL     1       9.678  -0.990  25.443  0.00  0.00    +0.000 A 
ATOM     27  C   UNL     1       8.513  -0.833  26.156  0.00  0.00    +0.000 A 
ATOM     28  C   UNL     1       7.265  -0.840  25.553  0.00  0.00    +0.000 A 
BRANCH  23  29
ATOM     29  O   UNL     1       5.881  -1.011  23.618  0.00  0.00    +0.000 OA
BRANCH  29  31
ATOM     30  C   UNL     1       5.483   1.259  22.966  0.00  0.00    +0.000 C 
ATOM     31  C   UNL     1       5.555  -0.178  22.521  0.00  0.00    +0.000 C 
ENDBRANCH  29  31
ENDBRANCH  23  29
ENDBRANCH  20  26
ENDBRANCH   1  21
TORSDOF 7
ENDMDL
MODEL 10
REMARK VINA RESULT:      -7.2     24.246     27.297
REMARK  Name = 
REMARK  7 active torsions:
REMARK  status: ('A' for Active; 'I' for Inactive)
REMARK    1  A    between atoms: C_2  and  O_3
REMARK    2  A    between atoms: O_3  and  C_4
REMARK    3  A    between atoms: C_7  and  N_8
REMARK    4  A    between atoms: C_9  and  C_11
REMARK    5  A    between atoms: C_13  and  C_14
REMARK    6  A    between atoms: C_17  and  O_18
REMARK    7  A    between atoms: O_18  and  C_19
REMARK                            x       y       z     vdW  Elec       q    Type
REMARK                         _______ _______ _______ _____ _____    ______ ____
ROOT
ATOM      1  C   UNL     1      13.733  -0.463  27.965  0.00  0.00    +0.000 A 
ATOM      2  C   UNL     1      13.578   0.390  29.023  0.00  0.00    +0.000 A 
ATOM      3  C   UNL     1      12.552   0.134  29.908  0.00  0.00    +0.000 A 
ATOM      4  N   UNL     1      11.737  -0.917  29.732  0.00  0.00    +0.000 NA
ATOM      5  C   UNL     1      11.855  -1.775  28.709  0.00  0.00    +0.000 A 
ATOM      6  C   UNL     1      10.998  -2.853  28.552  0.00  0.00    +0.000 A 
ATOM      7  C   UNL     1      11.167  -3.699  27.484  0.00  0.00    +0.000 A 
ATOM      8  C   UNL     1      12.183  -3.476  26.576  0.00  0.00    +0.000 A 
ATOM      9  C   UNL     1      13.040  -2.408  26.724  0.00  0.00    +0.000 A 
ATOM     10  C   UNL     1      12.873  -1.545  27.807  0.00  0.00    +0.000 A 
ENDROOT
BRANCH   3  11
ATOM     11  C   UNL     1      12.350   1.023  31.060  0.00  0.00    +0.000 A 
ATOM     12  C   UNL     1      13.297   1.174  32.042  0.00  0.00    +0.000 A 
ATOM     13  C   UNL     1      13.065   2.026  33.112  0.00  0.00    +0.000 A 
ATOM     14  C   UNL     1      11.897   2.748  33.236  0.00  0.00    +0.000 A 
ATOM     15  C   UNL     1      10.953   2.588  32.242  0.00  0.00    +0.000 A 
ATOM     16  C   UNL     1      11.181   1.741  31.176  0.00  0.00    +0.000 A 
BRANCH  14  17
ATOM     17  O   UNL     1      11.660   3.609  34.317  0.00  0.00    +0.000 OA
BRANCH  17  18
ATOM     18  C   UNL     1      11.601   4.995  34.081  0.00  0.00    +0.000 C 
ATOM     19  C   UNL     1      12.896   5.588  34.647  0.00  0.00    +0.000 C 
ENDBRANCH  17  18
ENDBRANCH  14  17
ENDBRANCH   3  11
BRANCH   1  21
ATOM     20  N   UNL     1      16.143  -0.306  27.245  0.00  0.00    +0.000 NA
ATOM     21  C   UNL     1      14.777  -0.308  26.954  0.00  0.00    +0.000 C 
ATOM     22  O   UNL     1      14.401  -0.168  25.765  0.00  0.00    +0.000 OA
BRANCH  20  26
ATOM     23  C   UNL     1      19.232   0.270  24.404  0.00  0.00    +0.000 A 
ATOM     24  C   UNL     1      18.616   1.327  25.029  0.00  0.00    +0.000 A 
ATOM     25  C   UNL     1      17.597   1.119  25.965  0.00  0.00    +0.000 A 
ATOM     26  C   UNL     1      17.183  -0.157  26.287  0.00  0.00    +0.000 A 
ATOM     27  C   UNL     1      17.813  -1.200  25.651  0.00  0.00    +0.000 A 
ATOM     28  C   UNL     1      18.823  -1.004  24.722  0.00  0.00    +0.000 A 
BRANCH  23  29
ATOM     29  O   UNL     1      20.254   0.430  23.464  0.00  0.00    +0.000 OA
BRANCH  29  31
ATOM     30  C   UNL     1      20.506  -0.042  21.129  0.00  0.00    +0.000 C 
ATOM     31  C   UNL     1      20.001   0.929  22.164  0.00  0.00    +0.000 C 
ENDBRANCH  29  31
ENDBRANCH  23  29
ENDBRANCH  20  26
ENDBRANCH   1  21
TORSDOF 7
ENDMDL
