MODEL 1
REMARK VINA RESULT:      -7.5      0.000      0.000
REMARK  Name = 
REMARK  4 active torsions:
REMARK  status: ('A' for Active; 'I' for Inactive)
REMARK    1  A    between atoms: C_2  and  C_3
REMARK    2  A    between atoms: C_3  and  C_4
REMARK    3  A    between atoms: C_4  and  C_5
REMARK    4  A    between atoms: C_7  and  C_8
REMARK                            x       y       z     vdW  Elec       q    Type
REMARK                         _______ _______ _______ _____ _____    ______ ____
ROOT
ATOM      1  C   UNL     1      15.737  12.007  35.242  0.00  0.00    +0.000 C 
ATOM      2  C   UNL     1      15.768  11.688  33.996  0.00  0.00    +0.000 C 
ATOM      3  C   UNL     1      16.485  10.622  33.310  0.00  0.00    +0.000 C 
ATOM      4  O   UNL     1      17.243   9.780  33.867  0.00  0.00    +0.000 OA
ATOM      5  N   UNL     1      16.146  10.744  31.912  0.00  0.00    +0.000 NA
ATOM      6  C   UNL     1      15.243  11.857  31.756  0.00  0.00    +0.000 A 
ATOM      7  C   UNL     1      14.628  12.383  30.609  0.00  0.00    +0.000 A 
ATOM      8  C   UNL     1      13.790  13.473  30.749  0.00  0.00    +0.000 A 
ATOM      9  C   UNL     1      13.535  14.065  31.967  0.00  0.00    +0.000 A 
ATOM     10  C   UNL     1      14.150  13.535  33.080  0.00  0.00    +0.000 A 
ATOM     11  C   UNL     1      14.999  12.437  32.975  0.00  0.00    +0.000 A 
ENDROOT
BRANCH   1  14
ATOM     12  C   UNL     1      18.162  10.961  37.657  0.00  0.00    +0.000 A 
ATOM     13  N   UNL     1      17.744  11.543  36.530  0.00  0.00    +0.000 NA
ATOM     14  C   UNL     1      16.394  11.428  36.375  0.00  0.00    +0.000 A 
ATOM     15  C   UNL     1      15.980  10.740  37.469  0.00  0.00    +0.000 A 
ATOM     16  N   UNL     1      17.052  10.464  38.233  0.00  0.00    +0.000 NA
BRANCH  12  17
ATOM     17  C   UNL     1      19.582  10.868  38.157  0.00  0.00    +0.000 C 
BRANCH  17  18
ATOM     18  C   UNL     1      20.402   9.924  37.313  0.00  0.00    +0.000 C 
BRANCH  18  20
ATOM     19  C   UNL     1      22.741   9.547  36.446  0.00  0.00    +0.000 C 
ATOM     20  C   UNL     1      21.813  10.453  37.232  0.00  0.00    +0.000 C 
ENDBRANCH  18  20
ENDBRANCH  17  18
ENDBRANCH  12  17
ENDBRANCH   1  14
TORSDOF 4
ENDMDL
MODEL 2
REMARK VINA RESULT:      -7.2      1.929      2.968
REMARK  Name = 
REMARK  4 active torsions:
REMARK  status: ('A' for Active; 'I' for Inactive)
REMARK    1  A    between atoms: C_2  and  C_3
REMARK    2  A    between atoms: C_3  and  C_4
REMARK    3  A    between atoms: C_4  and  C_5
REMARK    4  A    between atoms: C_7  and  C_8
REMARK                            x       y       z     vdW  Elec       q    Type
REMARK                         _______ _______ _______ _____ _____    ______ ____
ROOT
ATOM      1  C   UNL     1      15.922  12.001  35.416  0.00  0.00    +0.000 C 
ATOM      2  C   UNL     1      15.940  11.627  34.185  0.00  0.00    +0.000 C 
ATOM      3  C   UNL     1      16.662  10.541  33.536  0.00  0.00    +0.000 C 
ATOM      4  O   UNL     1      17.438   9.734  34.118  0.00  0.00    +0.000 OA
ATOM      5  N   UNL     1      16.302  10.597  32.138  0.00  0.00    +0.000 NA
ATOM      6  C   UNL     1      15.383  11.691  31.946  0.00  0.00    +0.000 A 
ATOM      7  C   UNL     1      14.745  12.159  30.786  0.00  0.00    +0.000 A 
ATOM      8  C   UNL     1      13.896  13.244  30.890  0.00  0.00    +0.000 A 
ATOM      9  C   UNL     1      13.650  13.885  32.085  0.00  0.00    +0.000 A 
ATOM     10  C   UNL     1      14.286  13.413  33.211  0.00  0.00    +0.000 A 
ATOM     11  C   UNL     1      15.148  12.321  33.142  0.00  0.00    +0.000 A 
ENDROOT
BRANCH   1  14
ATOM     12  C   UNL     1      16.719  10.414  38.522  0.00  0.00    +0.000 A 
ATOM     13  N   UNL     1      15.908  10.850  37.555  0.00  0.00    +0.000 NA
ATOM     14  C   UNL     1      16.601  11.480  36.564  0.00  0.00    +0.000 A 
ATOM     15  C   UNL     1      17.897  11.420  36.959  0.00  0.00    +0.000 A 
ATOM     16  N   UNL     1      17.957  10.776  38.139  0.00  0.00    +0.000 NA
BRANCH  12  17
ATOM     17  C   UNL     1      16.319   9.690  39.784  0.00  0.00    +0.000 C 
BRANCH  17  18
ATOM     18  C   UNL     1      17.497   9.501  40.706  0.00  0.00    +0.000 C 
BRANCH  18  20
ATOM     19  C   UNL     1      15.697   8.035  41.696  0.00  0.00    +0.000 C 
ATOM     20  C   UNL     1      17.050   8.691  41.899  0.00  0.00    +0.000 C 
ENDBRANCH  18  20
ENDBRANCH  17  18
ENDBRANCH  12  17
ENDBRANCH   1  14
TORSDOF 4
ENDMDL
MODEL 3
REMARK VINA RESULT:      -6.9      1.979      7.077
REMARK  Name = 
REMARK  4 active torsions:
REMARK  status: ('A' for Active; 'I' for Inactive)
REMARK    1  A    between atoms: C_2  and  C_3
REMARK    2  A    between atoms: C_3  and  C_4
REMARK    3  A    between atoms: C_4  and  C_5
REMARK    4  A    between atoms: C_7  and  C_8
REMARK                            x       y       z     vdW  Elec       q    Type
REMARK                         _______ _______ _______ _____ _____    ______ ____
ROOT
ATOM      1  C   UNL     1      17.541  12.197  36.188  0.00  0.00    +0.000 C 
ATOM      2  C   UNL     1      18.201  11.423  36.976  0.00  0.00    +0.000 C 
ATOM      3  C   UNL     1      18.194   9.972  37.104  0.00  0.00    +0.000 C 
ATOM      4  O   UNL     1      17.491   9.186  36.411  0.00  0.00    +0.000 OA
ATOM      5  N   UNL     1      19.131   9.656  38.155  0.00  0.00    +0.000 NA
ATOM      6  C   UNL     1      19.693  10.887  38.653  0.00  0.00    +0.000 A 
ATOM      7  C   UNL     1      20.640  11.119  39.662  0.00  0.00    +0.000 A 
ATOM      8  C   UNL     1      21.009  12.422  39.937  0.00  0.00    +0.000 A 
ATOM      9  C   UNL     1      20.485  13.502  39.261  0.00  0.00    +0.000 A 
ATOM     10  C   UNL     1      19.556  13.254  38.275  0.00  0.00    +0.000 A 
ATOM     11  C   UNL     1      19.162  11.953  37.973  0.00  0.00    +0.000 A 
ENDROOT
BRANCH   1  14
ATOM     12  C   UNL     1      15.937  11.386  33.094  0.00  0.00    +0.000 A 
ATOM     13  N   UNL     1      16.974  11.672  33.885  0.00  0.00    +0.000 NA
ATOM     14  C   UNL     1      16.579  11.899  35.170  0.00  0.00    +0.000 A 
ATOM     15  C   UNL     1      15.232  11.741  35.149  0.00  0.00    +0.000 A 
ATOM     16  N   UNL     1      14.856  11.432  33.894  0.00  0.00    +0.000 NA
BRANCH  12  17
ATOM     17  C   UNL     1      15.977  11.095  31.615  0.00  0.00    +0.000 C 
BRANCH  17  18
ATOM     18  C   UNL     1      14.882  11.828  30.880  0.00  0.00    +0.000 C 
BRANCH  18  20
ATOM     19  C   UNL     1      16.639  13.508  30.203  0.00  0.00    +0.000 C 
ATOM     20  C   UNL     1      15.257  13.287  30.789  0.00  0.00    +0.000 C 
ENDBRANCH  18  20
ENDBRANCH  17  18
ENDBRANCH  12  17
ENDBRANCH   1  14
TORSDOF 4
ENDMDL
MODEL 4
REMARK VINA RESULT:      -6.8     18.870     21.229
REMARK  Name = 
REMARK  4 active torsions:
REMARK  status: ('A' for Active; 'I' for Inactive)
REMARK    1  A    between atoms: C_2  and  C_3
REMARK    2  A    between atoms: C_3  and  C_4
REMARK    3  A    between atoms: C_4  and  C_5
REMARK    4  A    between atoms: C_7  and  C_8
REMARK                            x       y       z     vdW  Elec       q    Type
REMARK                         _______ _______ _______ _____ _____    ______ ____
ROOT
ATOM      1  C   UNL     1      33.072  -0.060  34.111  0.00  0.00    +0.000 C 
ATOM      2  C   UNL     1      33.515   0.769  34.990  0.00  0.00    +0.000 C 
ATOM      3  C   UNL     1      33.993   0.544  36.347  0.00  0.00    +0.000 C 
ATOM      4  O   UNL     1      34.058  -0.579  36.918  0.00  0.00    +0.000 OA
ATOM      5  N   UNL     1      34.359   1.841  36.865  0.00  0.00    +0.000 NA
ATOM      6  C   UNL     1      34.109   2.829  35.845  0.00  0.00    +0.000 A 
ATOM      7  C   UNL     1      34.297   4.219  35.851  0.00  0.00    +0.000 A 
ATOM      8  C   UNL     1      33.971   4.936  34.715  0.00  0.00    +0.000 A 
ATOM      9  C   UNL     1      33.468   4.341  33.578  0.00  0.00    +0.000 A 
ATOM     10  C   UNL     1      33.289   2.976  33.593  0.00  0.00    +0.000 A 
ATOM     11  C   UNL     1      33.608   2.223  34.721  0.00  0.00    +0.000 A 
ENDROOT
BRANCH   1  14
ATOM     12  C   UNL     1      33.379  -3.589  33.607  0.00  0.00    +0.000 A 
ATOM     13  N   UNL     1      33.671  -2.303  33.397  0.00  0.00    +0.000 NA
ATOM     14  C   UNL     1      32.901  -1.480  34.165  0.00  0.00    +0.000 A 
ATOM     15  C   UNL     1      32.103  -2.319  34.872  0.00  0.00    +0.000 A 
ATOM     16  N   UNL     1      32.399  -3.585  34.529  0.00  0.00    +0.000 NA
BRANCH  12  17
ATOM     17  C   UNL     1      34.006  -4.784  32.932  0.00  0.00    +0.000 C 
BRANCH  17  18
ATOM     18  C   UNL     1      33.424  -5.008  31.559  0.00  0.00    +0.000 C 
BRANCH  18  20
ATOM     19  C   UNL     1      34.128  -5.573  29.203  0.00  0.00    +0.000 C 
ATOM     20  C   UNL     1      34.491  -5.607  30.675  0.00  0.00    +0.000 C 
ENDBRANCH  18  20
ENDBRANCH  17  18
ENDBRANCH  12  17
ENDBRANCH   1  14
TORSDOF 4
ENDMDL
MODEL 5
REMARK VINA RESULT:      -6.6      2.437      7.617
REMARK  Name = 
REMARK  4 active torsions:
REMARK  status: ('A' for Active; 'I' for Inactive)
REMARK    1  A    between atoms: C_2  and  C_3
REMARK    2  A    between atoms: C_3  and  C_4
REMARK    3  A    between atoms: C_4  and  C_5
REMARK    4  A    between atoms: C_7  and  C_8
REMARK                            x       y       z     vdW  Elec       q    Type
REMARK                         _______ _______ _______ _____ _____    ______ ____
ROOT
ATOM      1  C   UNL     1      16.963   9.983  37.039  0.00  0.00    +0.000 C 
ATOM      2  C   UNL     1      17.893   9.865  37.921  0.00  0.00    +0.000 C 
ATOM      3  C   UNL     1      19.342   9.837  37.771  0.00  0.00    +0.000 C 
ATOM      4  O   UNL     1      19.961   9.933  36.676  0.00  0.00    +0.000 OA
ATOM      5  N   UNL     1      19.880   9.682  39.102  0.00  0.00    +0.000 NA
ATOM      6  C   UNL     1      18.784   9.617  40.035  0.00  0.00    +0.000 A 
ATOM      7  C   UNL     1      18.776   9.473  41.431  0.00  0.00    +0.000 A 
ATOM      8  C   UNL     1      17.561   9.445  42.087  0.00  0.00    +0.000 A 
ATOM      9  C   UNL     1      16.356   9.553  41.427  0.00  0.00    +0.000 A 
ATOM     10  C   UNL     1      16.384   9.692  40.057  0.00  0.00    +0.000 A 
ATOM     11  C   UNL     1      17.592   9.724  39.364  0.00  0.00    +0.000 A 
ENDROOT
BRANCH   1  14
ATOM     12  C   UNL     1      16.472  11.030  33.653  0.00  0.00    +0.000 A 
ATOM     13  N   UNL     1      16.241  11.028  34.968  0.00  0.00    +0.000 NA
ATOM     14  C   UNL     1      17.034  10.127  35.616  0.00  0.00    +0.000 A 
ATOM     15  C   UNL     1      17.779   9.558  34.635  0.00  0.00    +0.000 A 
ATOM     16  N   UNL     1      17.433  10.109  33.458  0.00  0.00    +0.000 NA
BRANCH  12  17
ATOM     17  C   UNL     1      15.780  11.876  32.612  0.00  0.00    +0.000 C 
BRANCH  17  18
ATOM     18  C   UNL     1      15.026  11.022  31.623  0.00  0.00    +0.000 C 
BRANCH  18  20
ATOM     19  C   UNL     1      14.190  13.335  31.059  0.00  0.00    +0.000 C 
ATOM     20  C   UNL     1      14.431  11.921  30.566  0.00  0.00    +0.000 C 
ENDBRANCH  18  20
ENDBRANCH  17  18
ENDBRANCH  12  17
ENDBRANCH   1  14
TORSDOF 4
ENDMDL
MODEL 6
REMARK VINA RESULT:      -6.3      2.335      3.997
REMARK  Name = 
REMARK  4 active torsions:
REMARK  status: ('A' for Active; 'I' for Inactive)
REMARK    1  A    between atoms: C_2  and  C_3
REMARK    2  A    between atoms: C_3  and  C_4
REMARK    3  A    between atoms: C_4  and  C_5
REMARK    4  A    between atoms: C_7  and  C_8
REMARK                            x       y       z     vdW  Elec       q    Type
REMARK                         _______ _______ _______ _____ _____    ______ ____
ROOT
ATOM      1  C   UNL     1      17.738  10.452  35.797  0.00  0.00    +0.000 C 
ATOM      2  C   UNL     1      16.770  11.182  35.368  0.00  0.00    +0.000 C 
ATOM      3  C   UNL     1      15.951  12.170  36.058  0.00  0.00    +0.000 C 
ATOM      4  O   UNL     1      16.069  12.492  37.272  0.00  0.00    +0.000 OA
ATOM      5  N   UNL     1      15.016  12.672  35.079  0.00  0.00    +0.000 NA
ATOM      6  C   UNL     1      15.263  12.004  33.825  0.00  0.00    +0.000 A 
ATOM      7  C   UNL     1      14.634  12.136  32.577  0.00  0.00    +0.000 A 
ATOM      8  C   UNL     1      15.083  11.362  31.525  0.00  0.00    +0.000 A 
ATOM      9  C   UNL     1      16.123  10.466  31.650  0.00  0.00    +0.000 A 
ATOM     10  C   UNL     1      16.726  10.350  32.882  0.00  0.00    +0.000 A 
ATOM     11  C   UNL     1      16.298  11.115  33.965  0.00  0.00    +0.000 A 
ENDROOT
BRANCH   1  14
ATOM     12  C   UNL     1      18.344   9.933  39.285  0.00  0.00    +0.000 A 
ATOM     13  N   UNL     1      17.601   9.984  38.178  0.00  0.00    +0.000 NA
ATOM     14  C   UNL     1      18.339  10.360  37.094  0.00  0.00    +0.000 A 
ATOM     15  C   UNL     1      19.592  10.545  37.579  0.00  0.00    +0.000 A 
ATOM     16  N   UNL     1      19.584  10.285  38.899  0.00  0.00    +0.000 NA
BRANCH  12  17
ATOM     17  C   UNL     1      17.878   9.577  40.675  0.00  0.00    +0.000 C 
BRANCH  17  18
ATOM     18  C   UNL     1      16.874   8.451  40.646  0.00  0.00    +0.000 C 
BRANCH  18  20
ATOM     19  C   UNL     1      14.709   9.710  40.330  0.00  0.00    +0.000 C 
ATOM     20  C   UNL     1      15.593   8.932  41.286  0.00  0.00    +0.000 C 
ENDBRANCH  18  20
ENDBRANCH  17  18
ENDBRANCH  12  17
ENDBRANCH   1  14
TORSDOF 4
ENDMDL
MODEL 7
REMARK VINA RESULT:      -6.3      2.782      3.637
REMARK  Name = 
REMARK  4 active torsions:
REMARK  status: ('A' for Active; 'I' for Inactive)
REMARK    1  A    between atoms: C_2  and  C_3
REMARK    2  A    between atoms: C_3  and  C_4
REMARK    3  A    between atoms: C_4  and  C_5
REMARK    4  A    between atoms: C_7  and  C_8
REMARK                            x       y       z     vdW  Elec       q    Type
REMARK                         _______ _______ _______ _____ _____    ______ ____
ROOT
ATOM      1  C   UNL     1      16.923  11.013  37.196  0.00  0.00    +0.000 C 
ATOM      2  C   UNL     1      17.074  10.772  35.941  0.00  0.00    +0.000 C 
ATOM      3  C   UNL     1      18.020   9.906  35.250  0.00  0.00    +0.000 C 
ATOM      4  O   UNL     1      18.904   9.203  35.812  0.00  0.00    +0.000 OA
ATOM      5  N   UNL     1      17.728  10.033  33.842  0.00  0.00    +0.000 NA
ATOM      6  C   UNL     1      16.630  10.953  33.684  0.00  0.00    +0.000 A 
ATOM      7  C   UNL     1      15.975  11.408  32.528  0.00  0.00    +0.000 A 
ATOM      8  C   UNL     1      14.931  12.302  32.668  0.00  0.00    +0.000 A 
ATOM      9  C   UNL     1      14.507  12.767  33.894  0.00  0.00    +0.000 A 
ATOM     10  C   UNL     1      15.163  12.311  35.015  0.00  0.00    +0.000 A 
ATOM     11  C   UNL     1      16.219  11.408  34.911  0.00  0.00    +0.000 A 
ENDROOT
BRANCH   1  14
ATOM     12  C   UNL     1      17.837   9.325  40.215  0.00  0.00    +0.000 A 
ATOM     13  N   UNL     1      17.008   9.702  39.240  0.00  0.00    +0.000 NA
ATOM     14  C   UNL     1      17.629  10.515  38.338  0.00  0.00    +0.000 A 
ATOM     15  C   UNL     1      18.899  10.632  38.799  0.00  0.00    +0.000 A 
ATOM     16  N   UNL     1      19.014   9.911  39.929  0.00  0.00    +0.000 NA
BRANCH  12  17
ATOM     17  C   UNL     1      17.508   8.444  41.395  0.00  0.00    +0.000 C 
BRANCH  17  18
ATOM     18  C   UNL     1      16.765   7.204  40.965  0.00  0.00    +0.000 C 
BRANCH  18  20
ATOM     19  C   UNL     1      18.808   5.952  40.175  0.00  0.00    +0.000 C 
ATOM     20  C   UNL     1      17.664   6.008  41.169  0.00  0.00    +0.000 C 
ENDBRANCH  18  20
ENDBRANCH  17  18
ENDBRANCH  12  17
ENDBRANCH   1  14
TORSDOF 4
ENDMDL
MODEL 8
REMARK VINA RESULT:      -6.3     27.725     29.931
REMARK  Name = 
REMARK  4 active torsions:
REMARK  status: ('A' for Active; 'I' for Inactive)
REMARK    1  A    between atoms: C_2  and  C_3
REMARK    2  A    between atoms: C_3  and  C_4
REMARK    3  A    between atoms: C_4  and  C_5
REMARK    4  A    between atoms: C_7  and  C_8
REMARK                            x       y       z     vdW  Elec       q    Type
REMARK                         _______ _______ _______ _____ _____    ______ ____
ROOT
ATOM      1  C   UNL     1      30.016  21.605   9.794  0.00  0.00    +0.000 C 
ATOM      2  C   UNL     1      29.856  22.201  10.923  0.00  0.00    +0.000 C 
ATOM      3  C   UNL     1      30.832  22.788  11.831  0.00  0.00    +0.000 C 
ATOM      4  O   UNL     1      32.079  22.811  11.641  0.00  0.00    +0.000 OA
ATOM      5  N   UNL     1      30.080  23.315  12.945  0.00  0.00    +0.000 NA
ATOM      6  C   UNL     1      28.681  23.053  12.718  0.00  0.00    +0.000 A 
ATOM      7  C   UNL     1      27.553  23.361  13.494  0.00  0.00    +0.000 A 
ATOM      8  C   UNL     1      26.307  22.990  13.028  0.00  0.00    +0.000 A 
ATOM      9  C   UNL     1      26.126  22.328  11.832  0.00  0.00    +0.000 A 
ATOM     10  C   UNL     1      27.244  22.034  11.085  0.00  0.00    +0.000 A 
ATOM     11  C   UNL     1      28.516  22.394  11.526  0.00  0.00    +0.000 A 
ENDROOT
BRANCH   1  14
ATOM     12  C   UNL     1      33.174  20.327   8.702  0.00  0.00    +0.000 A 
ATOM     13  N   UNL     1      32.162  20.491   9.556  0.00  0.00    +0.000 NA
ATOM     14  C   UNL     1      31.203  21.316   9.047  0.00  0.00    +0.000 A 
ATOM     15  C   UNL     1      31.667  21.666   7.821  0.00  0.00    +0.000 A 
ATOM     16  N   UNL     1      32.854  21.064   7.623  0.00  0.00    +0.000 NA
BRANCH  12  17
ATOM     17  C   UNL     1      34.420  19.503   8.919  0.00  0.00    +0.000 C 
BRANCH  17  18
ATOM     18  C   UNL     1      35.419  20.234   9.780  0.00  0.00    +0.000 C 
BRANCH  18  20
ATOM     19  C   UNL     1      34.667  20.176  12.189  0.00  0.00    +0.000 C 
ATOM     20  C   UNL     1      35.515  19.528  11.111  0.00  0.00    +0.000 C 
ENDBRANCH  18  20
ENDBRANCH  17  18
ENDBRANCH  12  17
ENDBRANCH   1  14
TORSDOF 4
ENDMDL
MODEL 9
REMARK VINA RESULT:      -6.2     19.885     20.892
REMARK  Name = 
REMARK  4 active torsions:
REMARK  status: ('A' for Active; 'I' for Inactive)
REMARK    1  A    between atoms: C_2  and  C_3
REMARK    2  A    between atoms: C_3  and  C_4
REMARK    3  A    between atoms: C_4  and  C_5
REMARK    4  A    between atoms: C_7  and  C_8
REMARK                            x       y       z     vdW  Elec       q    Type
REMARK                         _______ _______ _______ _____ _____    ______ ____
ROOT
ATOM      1  C   UNL     1      27.367  25.675  23.440  0.00  0.00    +0.000 C 
ATOM      2  C   UNL     1      28.145  25.467  22.437  0.00  0.00    +0.000 C 
ATOM      3  C   UNL     1      28.716  24.229  21.922  0.00  0.00    +0.000 C 
ATOM      4  O   UNL     1      28.524  23.082  22.411  0.00  0.00    +0.000 OA
ATOM      5  N   UNL     1      29.516  24.600  20.779  0.00  0.00    +0.000 NA
ATOM      6  C   UNL     1      29.431  26.028  20.604  0.00  0.00    +0.000 A 
ATOM      7  C   UNL     1      30.018  26.871  19.647  0.00  0.00    +0.000 A 
ATOM      8  C   UNL     1      29.759  28.227  19.712  0.00  0.00    +0.000 A 
ATOM      9  C   UNL     1      28.950  28.786  20.678  0.00  0.00    +0.000 A 
ATOM     10  C   UNL     1      28.385  27.943  21.609  0.00  0.00    +0.000 A 
ATOM     11  C   UNL     1      28.624  26.571  21.572  0.00  0.00    +0.000 A 
ENDROOT
BRANCH   1  14
ATOM     12  C   UNL     1      26.681  23.728  26.362  0.00  0.00    +0.000 A 
ATOM     13  N   UNL     1      27.371  24.592  25.614  0.00  0.00    +0.000 NA
ATOM     14  C   UNL     1      26.797  24.766  24.389  0.00  0.00    +0.000 A 
ATOM     15  C   UNL     1      25.705  23.962  24.403  0.00  0.00    +0.000 A 
ATOM     16  N   UNL     1      25.645  23.342  25.595  0.00  0.00    +0.000 NA
BRANCH  12  17
ATOM     17  C   UNL     1      27.014  23.271  27.761  0.00  0.00    +0.000 C 
BRANCH  17  18
ATOM     18  C   UNL     1      26.000  23.773  28.759  0.00  0.00    +0.000 C 
BRANCH  18  20
ATOM     19  C   UNL     1      26.908  21.797  30.039  0.00  0.00    +0.000 C 
ATOM     20  C   UNL     1      26.334  23.199  30.115  0.00  0.00    +0.000 C 
ENDBRANCH  18  20
ENDBRANCH  17  18
ENDBRANCH  12  17
ENDBRANCH   1  14
TORSDOF 4
ENDMDL
MODEL 10
REMARK VINA RESULT:      -6.2      2.989      7.844
REMARK  Name = 
REMARK  4 active torsions:
REMARK  status: ('A' for Active; 'I' for Inactive)
REMARK    1  A    between atoms: C_2  and  C_3
REMARK    2  A    between atoms: C_3  and  C_4
REMARK    3  A    between atoms: C_4  and  C_5
REMARK    4  A    between atoms: C_7  and  C_8
REMARK                            x       y       z     vdW  Elec       q    Type
REMARK                         _______ _______ _______ _____ _____    ______ ____
ROOT
ATOM      1  C   UNL     1      19.992  10.289  37.337  0.00  0.00    +0.000 C 
ATOM      2  C   UNL     1      21.019  10.996  37.660  0.00  0.00    +0.000 C 
ATOM      3  C   UNL     1      21.132  12.157  38.532  0.00  0.00    +0.000 C 
ATOM      4  O   UNL     1      20.176  12.692  39.157  0.00  0.00    +0.000 OA
ATOM      5  N   UNL     1      22.526  12.536  38.517  0.00  0.00    +0.000 NA
ATOM      6  C   UNL     1      23.239  11.625  37.657  0.00  0.00    +0.000 A 
ATOM      7  C   UNL     1      24.598  11.565  37.312  0.00  0.00    +0.000 A 
ATOM      8  C   UNL     1      25.020  10.568  36.454  0.00  0.00    +0.000 A 
ATOM      9  C   UNL     1      24.161   9.630  35.922  0.00  0.00    +0.000 A 
ATOM     10  C   UNL     1      22.831   9.707  36.271  0.00  0.00    +0.000 A 
ATOM     11  C   UNL     1      22.372  10.700  37.134  0.00  0.00    +0.000 A 
ENDROOT
BRANCH   1  14
ATOM     12  C   UNL     1      16.553  11.241  37.596  0.00  0.00    +0.000 A 
ATOM     13  N   UNL     1      17.797  11.307  37.117  0.00  0.00    +0.000 NA
ATOM     14  C   UNL     1      18.618  10.402  37.724  0.00  0.00    +0.000 A 
ATOM     15  C   UNL     1      17.822   9.760  38.615  0.00  0.00    +0.000 A 
ATOM     16  N   UNL     1      16.581  10.273  38.530  0.00  0.00    +0.000 NA
BRANCH  12  17
ATOM     17  C   UNL     1      15.377  12.092  37.185  0.00  0.00    +0.000 C 
BRANCH  17  18
ATOM     18  C   UNL     1      15.422  12.418  35.713  0.00  0.00    +0.000 C 
BRANCH  18  20
ATOM     19  C   UNL     1      13.037  12.896  36.385  0.00  0.00    +0.000 C 
ATOM     20  C   UNL     1      14.104  13.040  35.317  0.00  0.00    +0.000 C 
ENDBRANCH  18  20
ENDBRANCH  17  18
ENDBRANCH  12  17
ENDBRANCH   1  14
TORSDOF 4
ENDMDL
