MODEL 1
REMARK VINA RESULT:      -7.9      0.000      0.000
REMARK  Name = 
REMARK  6 active torsions:
REMARK  status: ('A' for Active; 'I' for Inactive)
REMARK    1  A    between atoms: C_9  and  C_10
REMARK    2  A    between atoms: C_16  and  C_17
REMARK    3  A    between atoms: N_23  and  C_24
REMARK    4  A    between atoms: C_24  and  C_25
REMARK    5  A    between atoms: C_25  and  C_27
REMARK    6  A    between atoms: C_27  and  N_28
REMARK                            x       y       z     vdW  Elec       q    Type
REMARK                         _______ _______ _______ _____ _____    ______ ____
ROOT
ATOM      1  C   UNL     1      38.950  -3.845  19.473  0.00  0.00    +0.000 C 
ATOM      2  C   UNL     1      38.396  -2.886  18.479  0.00  0.00    +0.000 A 
ATOM      3  C   UNL     1      37.232  -2.187  18.768  0.00  0.00    +0.000 A 
ATOM      4  C   UNL     1      36.710  -1.296  17.853  0.00  0.00    +0.000 A 
ATOM      5  C   UNL     1      35.527  -0.545  18.310  0.00  0.00    +0.000 C 
ATOM      6  C   UNL     1      37.284  -1.044  16.621  0.00  0.00    +0.000 A 
ATOM      7  C   UNL     1      38.465  -1.750  16.328  0.00  0.00    +0.000 A 
ATOM      8  C   UNL     1      38.963  -2.633  17.263  0.00  0.00    +0.000 A 
ATOM      9  C   UNL     1      38.894  -1.329  15.080  0.00  0.00    +0.000 A 
ATOM     10  C   UNL     1      38.012  -0.400  14.613  0.00  0.00    +0.000 A 
ATOM     11  N   UNL     1      37.049  -0.265  15.586  0.00  0.00    +0.000 N 
ENDROOT
BRANCH   9  12
ATOM     12  C   UNL     1      40.086  -1.811  14.387  0.00  0.00    +0.000 A 
ATOM     13  C   UNL     1      40.024  -2.805  13.408  0.00  0.00    +0.000 A 
ATOM     14  C   UNL     1      41.171  -3.244  12.768  0.00  0.00    +0.000 A 
ATOM     15  C   UNL     1      42.397  -2.720  13.074  0.00  0.00    +0.000 A 
ATOM     16  C   UNL     1      42.491  -1.736  14.039  0.00  0.00    +0.000 A 
ATOM     17  C   UNL     1      41.329  -1.302  14.675  0.00  0.00    +0.000 A 
ENDBRANCH   9  12
BRANCH  10  18
ATOM     18  C   UNL     1      38.035   0.341  13.329  0.00  0.00    +0.000 A 
ATOM     19  C   UNL     1      37.086   0.131  12.366  0.00  0.00    +0.000 A 
ATOM     20  C   UNL     1      37.103   0.820  11.173  0.00  0.00    +0.000 A 
ATOM     21  C   UNL     1      38.114   1.743  10.963  0.00  0.00    +0.000 A 
ATOM     22  C   UNL     1      39.093   1.992  11.900  0.00  0.00    +0.000 A 
ATOM     23  C   UNL     1      39.018   1.271  13.069  0.00  0.00    +0.000 A 
ENDBRANCH  10  18
BRANCH  11  24
ATOM     24  C   UNL     1      35.956   0.703  15.426  0.00  0.00    +0.000 C 
BRANCH  24  25
ATOM     25  C   UNL     1      36.466   1.999  16.193  0.00  0.00    +0.000 C 
ATOM     26  O   UNL     1      35.148   2.510  16.682  0.00  0.00    +0.000 OA
BRANCH  25  27
ATOM     27  C   UNL     1      36.660   3.100  15.091  0.00  0.00    +0.000 C 
BRANCH  27  28
ATOM     28  N   UNL     1      37.021   4.339  15.539  0.00  0.00    +0.000 NA
ATOM     29  C   UNL     1      36.749   5.427  14.674  0.00  0.00    +0.000 C 
ATOM     30  C   UNL     1      37.801   6.355  14.315  0.00  0.00    +0.000 C 
ATOM     31  C   UNL     1      39.107   5.797  13.878  0.00  0.00    +0.000 C 
ATOM     32  C   UNL     1      39.517   4.575  14.670  0.00  0.00    +0.000 C 
ATOM     33  C   UNL     1      39.338   4.820  16.143  0.00  0.00    +0.000 C 
ATOM     34  C   UNL     1      37.943   4.520  16.558  0.00  0.00    +0.000 C 
ENDBRANCH  27  28
ENDBRANCH  25  27
ENDBRANCH  24  25
ENDBRANCH  11  24
TORSDOF 6
ENDMDL
MODEL 2
REMARK VINA RESULT:      -7.2      2.498      7.849
REMARK  Name = 
REMARK  6 active torsions:
REMARK  status: ('A' for Active; 'I' for Inactive)
REMARK    1  A    between atoms: C_9  and  C_10
REMARK    2  A    between atoms: C_16  and  C_17
REMARK    3  A    between atoms: N_23  and  C_24
REMARK    4  A    between atoms: C_24  and  C_25
REMARK    5  A    between atoms: C_25  and  C_27
REMARK    6  A    between atoms: C_27  and  N_28
REMARK                            x       y       z     vdW  Elec       q    Type
REMARK                         _______ _______ _______ _____ _____    ______ ____
ROOT
ATOM      1  C   UNL     1      43.822   6.645  13.961  0.00  0.00    +0.000 C 
ATOM      2  C   UNL     1      42.623   5.770  13.850  0.00  0.00    +0.000 A 
ATOM      3  C   UNL     1      42.558   4.810  12.851  0.00  0.00    +0.000 A 
ATOM      4  C   UNL     1      41.451   3.994  12.740  0.00  0.00    +0.000 A 
ATOM      5  C   UNL     1      41.538   2.952  11.701  0.00  0.00    +0.000 C 
ATOM      6  C   UNL     1      40.359   4.071  13.585  0.00  0.00    +0.000 A 
ATOM      7  C   UNL     1      40.425   5.042  14.600  0.00  0.00    +0.000 A 
ATOM      8  C   UNL     1      41.545   5.842  14.686  0.00  0.00    +0.000 A 
ATOM      9  C   UNL     1      39.265   4.930  15.349  0.00  0.00    +0.000 A 
ATOM     10  C   UNL     1      38.505   3.930  14.819  0.00  0.00    +0.000 A 
ATOM     11  N   UNL     1      39.214   3.442  13.745  0.00  0.00    +0.000 N 
ENDROOT
BRANCH   9  12
ATOM     12  C   UNL     1      38.920   5.752  16.506  0.00  0.00    +0.000 A 
ATOM     13  C   UNL     1      39.282   5.393  17.806  0.00  0.00    +0.000 A 
ATOM     14  C   UNL     1      38.940   6.190  18.885  0.00  0.00    +0.000 A 
ATOM     15  C   UNL     1      38.237   7.352  18.713  0.00  0.00    +0.000 A 
ATOM     16  C   UNL     1      37.864   7.733  17.438  0.00  0.00    +0.000 A 
ATOM     17  C   UNL     1      38.215   6.922  16.361  0.00  0.00    +0.000 A 
ENDBRANCH   9  12
BRANCH  10  18
ATOM     18  C   UNL     1      37.182   3.430  15.263  0.00  0.00    +0.000 A 
ATOM     19  C   UNL     1      36.033   3.766  14.601  0.00  0.00    +0.000 A 
ATOM     20  C   UNL     1      34.802   3.302  15.010  0.00  0.00    +0.000 A 
ATOM     21  C   UNL     1      34.748   2.477  16.122  0.00  0.00    +0.000 A 
ATOM     22  C   UNL     1      35.875   2.109  16.823  0.00  0.00    +0.000 A 
ATOM     23  C   UNL     1      37.072   2.607  16.362  0.00  0.00    +0.000 A 
ENDBRANCH  10  18
BRANCH  11  24
ATOM     24  C   UNL     1      38.699   2.311  12.962  0.00  0.00    +0.000 C 
BRANCH  24  25
ATOM     25  C   UNL     1      39.173   1.027  13.771  0.00  0.00    +0.000 C 
ATOM     26  O   UNL     1      39.840   0.285  12.657  0.00  0.00    +0.000 OA
BRANCH  25  27
ATOM     27  C   UNL     1      37.919   0.086  13.855  0.00  0.00    +0.000 C 
BRANCH  27  28
ATOM     28  N   UNL     1      38.120  -1.129  14.445  0.00  0.00    +0.000 NA
ATOM     29  C   UNL     1      37.656  -2.261  13.731  0.00  0.00    +0.000 C 
ATOM     30  C   UNL     1      36.782  -3.221  14.373  0.00  0.00    +0.000 C 
ATOM     31  C   UNL     1      35.614  -2.705  15.133  0.00  0.00    +0.000 C 
ATOM     32  C   UNL     1      35.929  -1.445  15.908  0.00  0.00    +0.000 C 
ATOM     33  C   UNL     1      37.220  -1.603  16.665  0.00  0.00    +0.000 C 
ATOM     34  C   UNL     1      38.380  -1.263  15.800  0.00  0.00    +0.000 C 
ENDBRANCH  27  28
ENDBRANCH  25  27
ENDBRANCH  24  25
ENDBRANCH  11  24
TORSDOF 6
ENDMDL
MODEL 3
REMARK VINA RESULT:      -7.1      2.131      3.322
REMARK  Name = 
REMARK  6 active torsions:
REMARK  status: ('A' for Active; 'I' for Inactive)
REMARK    1  A    between atoms: C_9  and  C_10
REMARK    2  A    between atoms: C_16  and  C_17
REMARK    3  A    between atoms: N_23  and  C_24
REMARK    4  A    between atoms: C_24  and  C_25
REMARK    5  A    between atoms: C_25  and  C_27
REMARK    6  A    between atoms: C_27  and  N_28
REMARK                            x       y       z     vdW  Elec       q    Type
REMARK                         _______ _______ _______ _____ _____    ______ ____
ROOT
ATOM      1  C   UNL     1      34.575  -1.208  17.508  0.00  0.00    +0.000 C 
ATOM      2  C   UNL     1      35.153  -0.182  16.598  0.00  0.00    +0.000 A 
ATOM      3  C   UNL     1      34.533   1.052  16.467  0.00  0.00    +0.000 A 
ATOM      4  C   UNL     1      35.061   2.011  15.626  0.00  0.00    +0.000 A 
ATOM      5  C   UNL     1      34.370   3.312  15.642  0.00  0.00    +0.000 C 
ATOM      6  C   UNL     1      36.205   1.818  14.874  0.00  0.00    +0.000 A 
ATOM      7  C   UNL     1      36.836   0.568  15.009  0.00  0.00    +0.000 A 
ATOM      8  C   UNL     1      36.285  -0.369  15.858  0.00  0.00    +0.000 A 
ATOM      9  C   UNL     1      37.969   0.594  14.213  0.00  0.00    +0.000 A 
ATOM     10  C   UNL     1      38.040   1.812  13.604  0.00  0.00    +0.000 A 
ATOM     11  N   UNL     1      36.941   2.518  14.037  0.00  0.00    +0.000 N 
ENDROOT
BRANCH   9  12
ATOM     12  C   UNL     1      38.919  -0.504  14.054  0.00  0.00    +0.000 A 
ATOM     13  C   UNL     1      38.728  -1.519  13.113  0.00  0.00    +0.000 A 
ATOM     14  C   UNL     1      39.644  -2.550  12.986  0.00  0.00    +0.000 A 
ATOM     15  C   UNL     1      40.760  -2.608  13.775  0.00  0.00    +0.000 A 
ATOM     16  C   UNL     1      40.976  -1.619  14.715  0.00  0.00    +0.000 A 
ATOM     17  C   UNL     1      40.047  -0.586  14.833  0.00  0.00    +0.000 A 
ENDBRANCH   9  12
BRANCH  10  18
ATOM     18  C   UNL     1      39.063   2.323  12.660  0.00  0.00    +0.000 A 
ATOM     19  C   UNL     1      38.860   2.302  11.308  0.00  0.00    +0.000 A 
ATOM     20  C   UNL     1      39.808   2.778  10.428  0.00  0.00    +0.000 A 
ATOM     21  C   UNL     1      40.988   3.286  10.946  0.00  0.00    +0.000 A 
ATOM     22  C   UNL     1      41.240   3.330  12.300  0.00  0.00    +0.000 A 
ATOM     23  C   UNL     1      40.253   2.839  13.123  0.00  0.00    +0.000 A 
ENDBRANCH  10  18
BRANCH  11  24
ATOM     24  C   UNL     1      36.728   3.906  13.605  0.00  0.00    +0.000 C 
BRANCH  24  25
ATOM     25  C   UNL     1      37.023   4.770  14.906  0.00  0.00    +0.000 C 
ATOM     26  O   UNL     1      36.304   6.023  14.519  0.00  0.00    +0.000 OA
BRANCH  25  27
ATOM     27  C   UNL     1      38.467   5.355  14.714  0.00  0.00    +0.000 C 
BRANCH  27  28
ATOM     28  N   UNL     1      39.335   5.162  15.751  0.00  0.00    +0.000 NA
ATOM     29  C   UNL     1      38.827   4.470  16.878  0.00  0.00    +0.000 C 
ATOM     30  C   UNL     1      38.949   5.042  18.203  0.00  0.00    +0.000 C 
ATOM     31  C   UNL     1      38.569   6.467  18.386  0.00  0.00    +0.000 C 
ATOM     32  C   UNL     1      38.987   7.341  17.225  0.00  0.00    +0.000 C 
ATOM     33  C   UNL     1      40.415   7.060  16.844  0.00  0.00    +0.000 C 
ATOM     34  C   UNL     1      40.490   5.912  15.902  0.00  0.00    +0.000 C 
ENDBRANCH  27  28
ENDBRANCH  25  27
ENDBRANCH  24  25
ENDBRANCH  11  24
TORSDOF 6
ENDMDL
MODEL 4
REMARK VINA RESULT:      -7.0      2.639      5.640
REMARK  Name = 
REMARK  6 active torsions:
REMARK  status: ('A' for Active; 'I' for Inactive)
REMARK    1  A    between atoms: C_9  and  C_10
REMARK    2  A    between atoms: C_16  and  C_17
REMARK    3  A    between atoms: N_23  and  C_24
REMARK    4  A    between atoms: C_24  and  C_25
REMARK    5  A    between atoms: C_25  and  C_27
REMARK    6  A    between atoms: C_27  and  N_28
REMARK                            x       y       z     vdW  Elec       q    Type
REMARK                         _______ _______ _______ _____ _____    ______ ____
ROOT
ATOM      1  C   UNL     1      43.749   2.150  11.848  0.00  0.00    +0.000 C 
ATOM      2  C   UNL     1      42.523   2.613  12.553  0.00  0.00    +0.000 A 
ATOM      3  C   UNL     1      42.338   3.965  12.803  0.00  0.00    +0.000 A 
ATOM      4  C   UNL     1      41.204   4.404  13.455  0.00  0.00    +0.000 A 
ATOM      5  C   UNL     1      41.076   5.867  13.579  0.00  0.00    +0.000 C 
ATOM      6  C   UNL     1      40.204   3.559  13.897  0.00  0.00    +0.000 A 
ATOM      7  C   UNL     1      40.388   2.188  13.641  0.00  0.00    +0.000 A 
ATOM      8  C   UNL     1      41.531   1.780  12.986  0.00  0.00    +0.000 A 
ATOM      9  C   UNL     1      39.269   1.529  14.122  0.00  0.00    +0.000 A 
ATOM     10  C   UNL     1      38.423   2.452  14.660  0.00  0.00    +0.000 A 
ATOM     11  N   UNL     1      39.039   3.672  14.500  0.00  0.00    +0.000 N 
ENDROOT
BRANCH   9  12
ATOM     12  C   UNL     1      39.046   0.086  14.065  0.00  0.00    +0.000 A 
ATOM     13  C   UNL     1      38.210  -0.498  13.110  0.00  0.00    +0.000 A 
ATOM     14  C   UNL     1      38.015  -1.868  13.081  0.00  0.00    +0.000 A 
ATOM     15  C   UNL     1      38.631  -2.692  13.984  0.00  0.00    +0.000 A 
ATOM     16  C   UNL     1      39.462  -2.143  14.941  0.00  0.00    +0.000 A 
ATOM     17  C   UNL     1      39.651  -0.762  14.960  0.00  0.00    +0.000 A 
ENDBRANCH   9  12
BRANCH  10  18
ATOM     18  C   UNL     1      37.101   2.243  15.298  0.00  0.00    +0.000 A 
ATOM     19  C   UNL     1      35.946   2.675  14.706  0.00  0.00    +0.000 A 
ATOM     20  C   UNL     1      34.715   2.481  15.295  0.00  0.00    +0.000 A 
ATOM     21  C   UNL     1      34.669   1.831  16.517  0.00  0.00    +0.000 A 
ATOM     22  C   UNL     1      35.802   1.376  17.155  0.00  0.00    +0.000 A 
ATOM     23  C   UNL     1      36.998   1.602  16.512  0.00  0.00    +0.000 A 
ENDBRANCH  10  18
BRANCH  11  24
ATOM     24  C   UNL     1      38.373   4.907  14.934  0.00  0.00    +0.000 C 
BRANCH  24  25
ATOM     25  C   UNL     1      39.023   5.227  16.348  0.00  0.00    +0.000 C 
ATOM     26  O   UNL     1      37.860   4.876  17.221  0.00  0.00    +0.000 OA
BRANCH  25  27
ATOM     27  C   UNL     1      38.896   6.780  16.537  0.00  0.00    +0.000 C 
BRANCH  27  28
ATOM     28  N   UNL     1      39.930   7.391  17.187  0.00  0.00    +0.000 NA
ATOM     29  C   UNL     1      41.086   6.605  17.413  0.00  0.00    +0.000 C 
ATOM     30  C   UNL     1      41.642   6.488  18.744  0.00  0.00    +0.000 C 
ATOM     31  C   UNL     1      40.714   6.189  19.866  0.00  0.00    +0.000 C 
ATOM     32  C   UNL     1      39.390   6.910  19.740  0.00  0.00    +0.000 C 
ATOM     33  C   UNL     1      39.612   8.360  19.406  0.00  0.00    +0.000 C 
ATOM     34  C   UNL     1      39.758   8.543  17.938  0.00  0.00    +0.000 C 
ENDBRANCH  27  28
ENDBRANCH  25  27
ENDBRANCH  24  25
ENDBRANCH  11  24
TORSDOF 6
ENDMDL
MODEL 5
REMARK VINA RESULT:      -6.9      3.583      9.169
REMARK  Name = 
REMARK  6 active torsions:
REMARK  status: ('A' for Active; 'I' for Inactive)
REMARK    1  A    between atoms: C_9  and  C_10
REMARK    2  A    between atoms: C_16  and  C_17
REMARK    3  A    between atoms: N_23  and  C_24
REMARK    4  A    between atoms: C_24  and  C_25
REMARK    5  A    between atoms: C_25  and  C_27
REMARK    6  A    between atoms: C_27  and  N_28
REMARK                            x       y       z     vdW  Elec       q    Type
REMARK                         _______ _______ _______ _____ _____    ______ ____
ROOT
ATOM      1  C   UNL     1      38.217   9.831  20.968  0.00  0.00    +0.000 C 
ATOM      2  C   UNL     1      38.202   8.981  19.747  0.00  0.00    +0.000 A 
ATOM      3  C   UNL     1      38.965   7.823  19.702  0.00  0.00    +0.000 A 
ATOM      4  C   UNL     1      38.957   7.027  18.574  0.00  0.00    +0.000 A 
ATOM      5  C   UNL     1      39.732   5.778  18.679  0.00  0.00    +0.000 C 
ATOM      6  C   UNL     1      38.217   7.316  17.443  0.00  0.00    +0.000 A 
ATOM      7  C   UNL     1      37.440   8.488  17.489  0.00  0.00    +0.000 A 
ATOM      8  C   UNL     1      37.468   9.262  18.630  0.00  0.00    +0.000 A 
ATOM      9  C   UNL     1      36.755   8.571  16.288  0.00  0.00    +0.000 A 
ATOM     10  C   UNL     1      37.094   7.495  15.523  0.00  0.00    +0.000 A 
ATOM     11  N   UNL     1      37.989   6.764  16.270  0.00  0.00    +0.000 N 
ENDROOT
BRANCH   9  12
ATOM     12  C   UNL     1      35.831   9.639  15.911  0.00  0.00    +0.000 A 
ATOM     13  C   UNL     1      36.135  10.562  14.908  0.00  0.00    +0.000 A 
ATOM     14  C   UNL     1      35.242  11.566  14.573  0.00  0.00    +0.000 A 
ATOM     15  C   UNL     1      34.039  11.686  15.212  0.00  0.00    +0.000 A 
ATOM     16  C   UNL     1      33.711  10.789  16.210  0.00  0.00    +0.000 A 
ATOM     17  C   UNL     1      34.618   9.783  16.538  0.00  0.00    +0.000 A 
ENDBRANCH   9  12
BRANCH  10  18
ATOM     18  C   UNL     1      36.629   7.137  14.162  0.00  0.00    +0.000 A 
ATOM     19  C   UNL     1      35.399   6.574  13.953  0.00  0.00    +0.000 A 
ATOM     20  C   UNL     1      34.962   6.242  12.689  0.00  0.00    +0.000 A 
ATOM     21  C   UNL     1      35.803   6.492  11.617  0.00  0.00    +0.000 A 
ATOM     22  C   UNL     1      37.050   7.057  11.774  0.00  0.00    +0.000 A 
ATOM     23  C   UNL     1      37.425   7.365  13.061  0.00  0.00    +0.000 A 
ENDBRANCH  10  18
BRANCH  11  24
ATOM     24  C   UNL     1      38.530   5.498  15.757  0.00  0.00    +0.000 C 
BRANCH  24  25
ATOM     25  C   UNL     1      37.405   4.427  16.094  0.00  0.00    +0.000 C 
ATOM     26  O   UNL     1      38.213   3.506  16.952  0.00  0.00    +0.000 OA
BRANCH  25  27
ATOM     27  C   UNL     1      37.341   3.468  14.853  0.00  0.00    +0.000 C 
BRANCH  27  28
ATOM     28  N   UNL     1      36.196   2.736  14.720  0.00  0.00    +0.000 NA
ATOM     29  C   UNL     1      35.177   2.979  15.673  0.00  0.00    +0.000 C 
ATOM     30  C   UNL     1      34.596   1.882  16.418  0.00  0.00    +0.000 C 
ATOM     31  C   UNL     1      35.516   0.894  17.040  0.00  0.00    +0.000 C 
ATOM     32  C   UNL     1      36.707   0.570  16.166  0.00  0.00    +0.000 C 
ATOM     33  C   UNL     1      36.263   0.295  14.755  0.00  0.00    +0.000 C 
ATOM     34  C   UNL     1      36.146   1.561  13.986  0.00  0.00    +0.000 C 
ENDBRANCH  27  28
ENDBRANCH  25  27
ENDBRANCH  24  25
ENDBRANCH  11  24
TORSDOF 6
ENDMDL
MODEL 6
REMARK VINA RESULT:      -6.9     25.429     29.069
REMARK  Name = 
REMARK  6 active torsions:
REMARK  status: ('A' for Active; 'I' for Inactive)
REMARK    1  A    between atoms: C_9  and  C_10
REMARK    2  A    between atoms: C_16  and  C_17
REMARK    3  A    between atoms: N_23  and  C_24
REMARK    4  A    between atoms: C_24  and  C_25
REMARK    5  A    between atoms: C_25  and  C_27
REMARK    6  A    between atoms: C_27  and  N_28
REMARK                            x       y       z     vdW  Elec       q    Type
REMARK                         _______ _______ _______ _____ _____    ______ ____
ROOT
ATOM      1  C   UNL     1      32.303  15.882  33.458  0.00  0.00    +0.000 C 
ATOM      2  C   UNL     1      31.444  15.870  34.673  0.00  0.00    +0.000 A 
ATOM      3  C   UNL     1      32.027  15.894  35.932  0.00  0.00    +0.000 A 
ATOM      4  C   UNL     1      31.239  15.884  37.064  0.00  0.00    +0.000 A 
ATOM      5  C   UNL     1      31.968  16.006  38.339  0.00  0.00    +0.000 C 
ATOM      6  C   UNL     1      29.858  15.848  37.032  0.00  0.00    +0.000 A 
ATOM      7  C   UNL     1      29.265  15.827  35.756  0.00  0.00    +0.000 A 
ATOM      8  C   UNL     1      30.079  15.838  34.643  0.00  0.00    +0.000 A 
ATOM      9  C   UNL     1      27.893  15.831  35.943  0.00  0.00    +0.000 A 
ATOM     10  C   UNL     1      27.640  15.850  37.282  0.00  0.00    +0.000 A 
ATOM     11  N   UNL     1      28.869  15.856  37.901  0.00  0.00    +0.000 N 
ENDROOT
BRANCH   9  12
ATOM     12  C   UNL     1      26.892  15.812  34.878  0.00  0.00    +0.000 A 
ATOM     13  C   UNL     1      26.298  16.981  34.397  0.00  0.00    +0.000 A 
ATOM     14  C   UNL     1      25.351  16.932  33.388  0.00  0.00    +0.000 A 
ATOM     15  C   UNL     1      24.966  15.742  32.834  0.00  0.00    +0.000 A 
ATOM     16  C   UNL     1      25.535  14.569  33.290  0.00  0.00    +0.000 A 
ATOM     17  C   UNL     1      26.488  14.631  34.305  0.00  0.00    +0.000 A 
ENDBRANCH   9  12
BRANCH  10  18
ATOM     18  C   UNL     1      26.334  15.861  37.983  0.00  0.00    +0.000 A 
ATOM     19  C   UNL     1      25.739  17.032  38.365  0.00  0.00    +0.000 A 
ATOM     20  C   UNL     1      24.524  17.047  39.015  0.00  0.00    +0.000 A 
ATOM     21  C   UNL     1      23.907  15.835  39.279  0.00  0.00    +0.000 A 
ATOM     22  C   UNL     1      24.464  14.628  38.916  0.00  0.00    +0.000 A 
ATOM     23  C   UNL     1      25.677  14.685  38.270  0.00  0.00    +0.000 A 
ENDBRANCH  10  18
BRANCH  11  24
ATOM     24  C   UNL     1      28.967  15.922  39.365  0.00  0.00    +0.000 C 
BRANCH  24  25
ATOM     25  C   UNL     1      28.679  14.434  39.844  0.00  0.00    +0.000 C 
ATOM     26  O   UNL     1      28.308  14.717  41.265  0.00  0.00    +0.000 OA
BRANCH  25  27
ATOM     27  C   UNL     1      30.082  13.810  40.171  0.00  0.00    +0.000 C 
BRANCH  27  28
ATOM     28  N   UNL     1      30.344  12.595  39.605  0.00  0.00    +0.000 NA
ATOM     29  C   UNL     1      29.948  11.455  40.346  0.00  0.00    +0.000 C 
ATOM     30  C   UNL     1      30.899  10.401  40.630  0.00  0.00    +0.000 C 
ATOM     31  C   UNL     1      32.237  10.788  41.148  0.00  0.00    +0.000 C 
ATOM     32  C   UNL     1      32.780  12.040  40.497  0.00  0.00    +0.000 C 
ATOM     33  C   UNL     1      32.625  11.963  39.002  0.00  0.00    +0.000 C 
ATOM     34  C   UNL     1      31.275  12.433  38.591  0.00  0.00    +0.000 C 
ENDBRANCH  27  28
ENDBRANCH  25  27
ENDBRANCH  24  25
ENDBRANCH  11  24
TORSDOF 6
ENDMDL
MODEL 7
REMARK VINA RESULT:      -6.9      4.382     10.162
REMARK  Name = 
REMARK  6 active torsions:
REMARK  status: ('A' for Active; 'I' for Inactive)
REMARK    1  A    between atoms: C_9  and  C_10
REMARK    2  A    between atoms: C_16  and  C_17
REMARK    3  A    between atoms: N_23  and  C_24
REMARK    4  A    between atoms: C_24  and  C_25
REMARK    5  A    between atoms: C_25  and  C_27
REMARK    6  A    between atoms: C_27  and  N_28
REMARK                            x       y       z     vdW  Elec       q    Type
REMARK                         _______ _______ _______ _____ _____    ______ ____
ROOT
ATOM      1  C   UNL     1      34.729  10.970  15.503  0.00  0.00    +0.000 C 
ATOM      2  C   UNL     1      35.752   9.935  15.814  0.00  0.00    +0.000 A 
ATOM      3  C   UNL     1      35.827   8.784  15.043  0.00  0.00    +0.000 A 
ATOM      4  C   UNL     1      36.772   7.818  15.323  0.00  0.00    +0.000 A 
ATOM      5  C   UNL     1      36.815   6.687  14.379  0.00  0.00    +0.000 C 
ATOM      6  C   UNL     1      37.682   7.920  16.358  0.00  0.00    +0.000 A 
ATOM      7  C   UNL     1      37.609   9.089  17.139  0.00  0.00    +0.000 A 
ATOM      8  C   UNL     1      36.654  10.035  16.834  0.00  0.00    +0.000 A 
ATOM      9  C   UNL     1      38.619   9.012  18.084  0.00  0.00    +0.000 A 
ATOM     10  C   UNL     1      39.292   7.840  17.902  0.00  0.00    +0.000 A 
ATOM     11  N   UNL     1      38.681   7.211  16.842  0.00  0.00    +0.000 N 
ENDROOT
BRANCH   9  12
ATOM     12  C   UNL     1      38.903  10.018  19.105  0.00  0.00    +0.000 A 
ATOM     13  C   UNL     1      38.189  10.080  20.303  0.00  0.00    +0.000 A 
ATOM     14  C   UNL     1      38.477  11.047  21.252  0.00  0.00    +0.000 A 
ATOM     15  C   UNL     1      39.467  11.969  21.046  0.00  0.00    +0.000 A 
ATOM     16  C   UNL     1      40.190  11.933  19.870  0.00  0.00    +0.000 A 
ATOM     17  C   UNL     1      39.890  10.955  18.922  0.00  0.00    +0.000 A 
ENDBRANCH   9  12
BRANCH  10  18
ATOM     18  C   UNL     1      40.447   7.303  18.659  0.00  0.00    +0.000 A 
ATOM     19  C   UNL     1      40.288   6.721  19.887  0.00  0.00    +0.000 A 
ATOM     20  C   UNL     1      41.360   6.219  20.593  0.00  0.00    +0.000 A 
ATOM     21  C   UNL     1      42.621   6.316  20.028  0.00  0.00    +0.000 A 
ATOM     22  C   UNL     1      42.835   6.893  18.795  0.00  0.00    +0.000 A 
ATOM     23  C   UNL     1      41.723   7.374  18.143  0.00  0.00    +0.000 A 
ENDBRANCH  10  18
BRANCH  11  24
ATOM     24  C   UNL     1      39.189   5.927  16.342  0.00  0.00    +0.000 C 
BRANCH  24  25
ATOM     25  C   UNL     1      38.142   4.857  16.876  0.00  0.00    +0.000 C 
ATOM     26  O   UNL     1      38.963   4.258  17.973  0.00  0.00    +0.000 OA
BRANCH  25  27
ATOM     27  C   UNL     1      38.255   3.627  15.908  0.00  0.00    +0.000 C 
BRANCH  27  28
ATOM     28  N   UNL     1      37.458   2.557  16.202  0.00  0.00    +0.000 NA
ATOM     29  C   UNL     1      37.644   1.396  15.413  0.00  0.00    +0.000 C 
ATOM     30  C   UNL     1      36.516   0.774  14.752  0.00  0.00    +0.000 C 
ATOM     31  C   UNL     1      35.583   1.645  13.992  0.00  0.00    +0.000 C 
ATOM     32  C   UNL     1      35.327   2.969  14.676  0.00  0.00    +0.000 C 
ATOM     33  C   UNL     1      35.025   2.757  16.134  0.00  0.00    +0.000 C 
ATOM     34  C   UNL     1      36.282   2.684  16.925  0.00  0.00    +0.000 C 
ENDBRANCH  27  28
ENDBRANCH  25  27
ENDBRANCH  24  25
ENDBRANCH  11  24
TORSDOF 6
ENDMDL
MODEL 8
REMARK VINA RESULT:      -6.8      2.662      5.874
REMARK  Name = 
REMARK  6 active torsions:
REMARK  status: ('A' for Active; 'I' for Inactive)
REMARK    1  A    between atoms: C_9  and  C_10
REMARK    2  A    between atoms: C_16  and  C_17
REMARK    3  A    between atoms: N_23  and  C_24
REMARK    4  A    between atoms: C_24  and  C_25
REMARK    5  A    between atoms: C_25  and  C_27
REMARK    6  A    between atoms: C_27  and  N_28
REMARK                            x       y       z     vdW  Elec       q    Type
REMARK                         _______ _______ _______ _____ _____    ______ ____
ROOT
ATOM      1  C   UNL     1      34.662   2.128  16.240  0.00  0.00    +0.000 C 
ATOM      2  C   UNL     1      35.882   1.793  15.456  0.00  0.00    +0.000 A 
ATOM      3  C   UNL     1      36.432   2.735  14.598  0.00  0.00    +0.000 A 
ATOM      4  C   UNL     1      37.563   2.434  13.867  0.00  0.00    +0.000 A 
ATOM      5  C   UNL     1      38.106   3.544  13.063  0.00  0.00    +0.000 C 
ATOM      6  C   UNL     1      38.208   1.214  13.929  0.00  0.00    +0.000 A 
ATOM      7  C   UNL     1      37.653   0.259  14.801  0.00  0.00    +0.000 A 
ATOM      8  C   UNL     1      36.524   0.590  15.519  0.00  0.00    +0.000 A 
ATOM      9  C   UNL     1      38.462  -0.864  14.745  0.00  0.00    +0.000 A 
ATOM     10  C   UNL     1      39.478  -0.620  13.870  0.00  0.00    +0.000 A 
ATOM     11  N   UNL     1      39.277   0.657  13.398  0.00  0.00    +0.000 N 
ENDROOT
BRANCH   9  12
ATOM     12  C   UNL     1      38.250  -2.100  15.495  0.00  0.00    +0.000 A 
ATOM     13  C   UNL     1      37.403  -3.110  15.035  0.00  0.00    +0.000 A 
ATOM     14  C   UNL     1      37.218  -4.270  15.768  0.00  0.00    +0.000 A 
ATOM     15  C   UNL     1      37.856  -4.463  16.963  0.00  0.00    +0.000 A 
ATOM     16  C   UNL     1      38.700  -3.480  17.444  0.00  0.00    +0.000 A 
ATOM     17  C   UNL     1      38.878  -2.317  16.697  0.00  0.00    +0.000 A 
ENDBRANCH   9  12
BRANCH  10  18
ATOM     18  C   UNL     1      40.596  -1.509  13.469  0.00  0.00    +0.000 A 
ATOM     19  C   UNL     1      41.828  -1.414  14.056  0.00  0.00    +0.000 A 
ATOM     20  C   UNL     1      42.868  -2.240  13.688  0.00  0.00    +0.000 A 
ATOM     21  C   UNL     1      42.640  -3.181  12.698  0.00  0.00    +0.000 A 
ATOM     22  C   UNL     1      41.418  -3.317  12.076  0.00  0.00    +0.000 A 
ATOM     23  C   UNL     1      40.423  -2.462  12.491  0.00  0.00    +0.000 A 
ENDBRANCH  10  18
BRANCH  11  24
ATOM     24  C   UNL     1      40.227   1.264  12.457  0.00  0.00    +0.000 C 
BRANCH  24  25
ATOM     25  C   UNL     1      39.566   1.033  11.030  0.00  0.00    +0.000 C 
ATOM     26  O   UNL     1      40.652   0.219  10.402  0.00  0.00    +0.000 OA
BRANCH  25  27
ATOM     27  C   UNL     1      39.855   2.339  10.208  0.00  0.00    +0.000 C 
BRANCH  27  28
ATOM     28  N   UNL     1      38.794   2.866   9.527  0.00  0.00    +0.000 NA
ATOM     29  C   UNL     1      37.552   2.203   9.683  0.00  0.00    +0.000 C 
ATOM     30  C   UNL     1      36.798   1.781   8.521  0.00  0.00    +0.000 C 
ATOM     31  C   UNL     1      37.521   1.058   7.443  0.00  0.00    +0.000 C 
ATOM     32  C   UNL     1      38.907   1.608   7.193  0.00  0.00    +0.000 C 
ATOM     33  C   UNL     1      38.866   3.109   7.098  0.00  0.00    +0.000 C 
ATOM     34  C   UNL     1      38.955   3.722   8.450  0.00  0.00    +0.000 C 
ENDBRANCH  27  28
ENDBRANCH  25  27
ENDBRANCH  24  25
ENDBRANCH  11  24
TORSDOF 6
ENDMDL
MODEL 9
REMARK VINA RESULT:      -6.8      2.894      6.955
REMARK  Name = 
REMARK  6 active torsions:
REMARK  status: ('A' for Active; 'I' for Inactive)
REMARK    1  A    between atoms: C_9  and  C_10
REMARK    2  A    between atoms: C_16  and  C_17
REMARK    3  A    between atoms: N_23  and  C_24
REMARK    4  A    between atoms: C_24  and  C_25
REMARK    5  A    between atoms: C_25  and  C_27
REMARK    6  A    between atoms: C_27  and  N_28
REMARK                            x       y       z     vdW  Elec       q    Type
REMARK                         _______ _______ _______ _____ _____    ______ ____
ROOT
ATOM      1  C   UNL     1      34.424   5.745  14.312  0.00  0.00    +0.000 C 
ATOM      2  C   UNL     1      35.435   4.735  13.894  0.00  0.00    +0.000 A 
ATOM      3  C   UNL     1      36.261   4.993  12.810  0.00  0.00    +0.000 A 
ATOM      4  C   UNL     1      37.201   4.063  12.415  0.00  0.00    +0.000 A 
ATOM      5  C   UNL     1      38.082   4.488  11.312  0.00  0.00    +0.000 C 
ATOM      6  C   UNL     1      37.382   2.847  13.045  0.00  0.00    +0.000 A 
ATOM      7  C   UNL     1      36.546   2.586  14.147  0.00  0.00    +0.000 A 
ATOM      8  C   UNL     1      35.617   3.534  14.518  0.00  0.00    +0.000 A 
ATOM      9  C   UNL     1      36.911   1.349  14.652  0.00  0.00    +0.000 A 
ATOM     10  C   UNL     1      37.931   0.857  13.893  0.00  0.00    +0.000 A 
ATOM     11  N   UNL     1      38.178   1.805  12.926  0.00  0.00    +0.000 N 
ENDROOT
BRANCH   9  12
ATOM     12  C   UNL     1      36.296   0.687  15.801  0.00  0.00    +0.000 A 
ATOM     13  C   UNL     1      36.350   1.231  17.086  0.00  0.00    +0.000 A 
ATOM     14  C   UNL     1      35.761   0.581  18.157  0.00  0.00    +0.000 A 
ATOM     15  C   UNL     1      35.109  -0.610  17.991  0.00  0.00    +0.000 A 
ATOM     16  C   UNL     1      35.039  -1.173  16.732  0.00  0.00    +0.000 A 
ATOM     17  C   UNL     1      35.637  -0.509  15.661  0.00  0.00    +0.000 A 
ENDBRANCH   9  12
BRANCH  10  18
ATOM     18  C   UNL     1      38.660  -0.427  14.032  0.00  0.00    +0.000 A 
ATOM     19  C   UNL     1      38.207  -1.573  13.438  0.00  0.00    +0.000 A 
ATOM     20  C   UNL     1      38.882  -2.767  13.563  0.00  0.00    +0.000 A 
ATOM     21  C   UNL     1      40.047  -2.787  14.314  0.00  0.00    +0.000 A 
ATOM     22  C   UNL     1      40.545  -1.661  14.931  0.00  0.00    +0.000 A 
ATOM     23  C   UNL     1      39.822  -0.502  14.766  0.00  0.00    +0.000 A 
ENDBRANCH  10  18
BRANCH  11  24
ATOM     24  C   UNL     1      39.261   1.614  11.953  0.00  0.00    +0.000 C 
BRANCH  24  25
ATOM     25  C   UNL     1      38.618   0.695  10.827  0.00  0.00    +0.000 C 
ATOM     26  O   UNL     1      39.796  -0.182  10.545  0.00  0.00    +0.000 OA
BRANCH  25  27
ATOM     27  C   UNL     1      38.716   1.520   9.494  0.00  0.00    +0.000 C 
BRANCH  27  28
ATOM     28  N   UNL     1      37.652   1.412   8.645  0.00  0.00    +0.000 NA
ATOM     29  C   UNL     1      37.950   1.086   7.299  0.00  0.00    +0.000 C 
ATOM     30  C   UNL     1      37.443   1.906   6.218  0.00  0.00    +0.000 C 
ATOM     31  C   UNL     1      37.595   3.380   6.329  0.00  0.00    +0.000 C 
ATOM     32  C   UNL     1      37.370   3.889   7.735  0.00  0.00    +0.000 C 
ATOM     33  C   UNL     1      36.121   3.287   8.318  0.00  0.00    +0.000 C 
ATOM     34  C   UNL     1      36.413   1.964   8.931  0.00  0.00    +0.000 C 
ENDBRANCH  27  28
ENDBRANCH  25  27
ENDBRANCH  24  25
ENDBRANCH  11  24
TORSDOF 6
ENDMDL
MODEL 10
REMARK VINA RESULT:      -6.7     25.763     28.824
REMARK  Name = 
REMARK  6 active torsions:
REMARK  status: ('A' for Active; 'I' for Inactive)
REMARK    1  A    between atoms: C_9  and  C_10
REMARK    2  A    between atoms: C_16  and  C_17
REMARK    3  A    between atoms: N_23  and  C_24
REMARK    4  A    between atoms: C_24  and  C_25
REMARK    5  A    between atoms: C_25  and  C_27
REMARK    6  A    between atoms: C_27  and  N_28
REMARK                            x       y       z     vdW  Elec       q    Type
REMARK                         _______ _______ _______ _____ _____    ______ ____
ROOT
ATOM      1  C   UNL     1      22.751  15.130  39.747  0.00  0.00    +0.000 C 
ATOM      2  C   UNL     1      24.197  15.315  39.446  0.00  0.00    +0.000 A 
ATOM      3  C   UNL     1      25.115  15.383  40.484  0.00  0.00    +0.000 A 
ATOM      4  C   UNL     1      26.458  15.555  40.216  0.00  0.00    +0.000 A 
ATOM      5  C   UNL     1      27.345  15.518  41.392  0.00  0.00    +0.000 C 
ATOM      6  C   UNL     1      26.971  15.671  38.938  0.00  0.00    +0.000 A 
ATOM      7  C   UNL     1      26.041  15.599  37.884  0.00  0.00    +0.000 A 
ATOM      8  C   UNL     1      24.706  15.426  38.184  0.00  0.00    +0.000 A 
ATOM      9  C   UNL     1      26.755  15.696  36.701  0.00  0.00    +0.000 A 
ATOM     10  C   UNL     1      28.077  15.827  37.006  0.00  0.00    +0.000 A 
ATOM     11  N   UNL     1      28.155  15.809  38.380  0.00  0.00    +0.000 N 
ENDROOT
BRANCH   9  12
ATOM     12  C   UNL     1      26.179  15.669  35.359  0.00  0.00    +0.000 A 
ATOM     13  C   UNL     1      26.203  14.520  34.565  0.00  0.00    +0.000 A 
ATOM     14  C   UNL     1      25.652  14.523  33.295  0.00  0.00    +0.000 A 
ATOM     15  C   UNL     1      25.069  15.648  32.778  0.00  0.00    +0.000 A 
ATOM     16  C   UNL     1      25.032  16.800  33.539  0.00  0.00    +0.000 A 
ATOM     17  C   UNL     1      25.590  16.784  34.817  0.00  0.00    +0.000 A 
ENDBRANCH   9  12
BRANCH  10  18
ATOM     18  C   UNL     1      29.234  15.966  36.089  0.00  0.00    +0.000 A 
ATOM     19  C   UNL     1      29.606  17.183  35.588  0.00  0.00    +0.000 A 
ATOM     20  C   UNL     1      30.683  17.316  34.738  0.00  0.00    +0.000 A 
ATOM     21  C   UNL     1      31.392  16.177  34.394  0.00  0.00    +0.000 A 
ATOM     22  C   UNL     1      31.058  14.928  34.871  0.00  0.00    +0.000 A 
ATOM     23  C   UNL     1      29.974  14.865  35.716  0.00  0.00    +0.000 A 
ENDBRANCH  10  18
BRANCH  11  24
ATOM     24  C   UNL     1      29.458  15.885  39.055  0.00  0.00    +0.000 C 
BRANCH  24  25
ATOM     25  C   UNL     1      29.911  14.368  39.201  0.00  0.00    +0.000 C 
ATOM     26  O   UNL     1      30.032  14.307  40.690  0.00  0.00    +0.000 OA
BRANCH  25  27
ATOM     27  C   UNL     1      31.455  14.354  38.919  0.00  0.00    +0.000 C 
BRANCH  27  28
ATOM     28  N   UNL     1      32.047  13.123  38.888  0.00  0.00    +0.000 NA
ATOM     29  C   UNL     1      33.203  12.958  39.689  0.00  0.00    +0.000 C 
ATOM     30  C   UNL     1      34.428  12.449  39.108  0.00  0.00    +0.000 C 
ATOM     31  C   UNL     1      34.894  13.042  37.828  0.00  0.00    +0.000 C 
ATOM     32  C   UNL     1      33.760  13.342  36.873  0.00  0.00    +0.000 C 
ATOM     33  C   UNL     1      32.827  12.166  36.780  0.00  0.00    +0.000 C 
ATOM     34  C   UNL     1      31.815  12.213  37.868  0.00  0.00    +0.000 C 
ENDBRANCH  27  28
ENDBRANCH  25  27
ENDBRANCH  24  25
ENDBRANCH  11  24
TORSDOF 6
ENDMDL
