MODEL 1
REMARK VINA RESULT:      -5.6      0.000      0.000
REMARK  Name = 
REMARK  5 active torsions:
REMARK  status: ('A' for Active; 'I' for Inactive)
REMARK    1  A    between atoms: O_2  and  C_3
REMARK    2  A    between atoms: C_3  and  C_5
REMARK    3  A    between atoms: C_6  and  C_7
REMARK    4  A    between atoms: C_10  and  O_11
REMARK    5  A    between atoms: C_13  and  O_14
REMARK                            x       y       z     vdW  Elec       q    Type
REMARK                         _______ _______ _______ _____ _____    ______ ____
ROOT
ATOM      1  C   UNL     1      28.625  23.984  23.406  0.00  0.00    +0.000 A 
ATOM      2  C   UNL     1      27.522  23.640  24.086  0.00  0.00    +0.000 A 
ATOM      3  C   UNL     1      26.370  23.460  23.358  0.00  0.00    +0.000 A 
ATOM      4  S   UNL     1      26.851  23.771  21.766  0.00  0.00    +0.000 S 
ATOM      5  C   UNL     1      28.493  24.122  22.039  0.00  0.00    +0.000 A 
ATOM      6  N   UNL     1      29.521  24.483  21.077  0.00  0.00    +0.000 NA
ENDROOT
BRANCH   2   7
ATOM      7  C   UNL     1      27.441  23.404  25.559  0.00  0.00    +0.000 A 
ATOM      8  C   UNL     1      28.232  22.417  26.137  0.00  0.00    +0.000 A 
ATOM      9  C   UNL     1      28.194  22.204  27.502  0.00  0.00    +0.000 A 
ATOM     10  C   UNL     1      27.379  22.962  28.308  0.00  0.00    +0.000 A 
ATOM     11  C   UNL     1      26.603  23.932  27.737  0.00  0.00    +0.000 A 
ATOM     12  C   UNL     1      26.651  24.132  26.375  0.00  0.00    +0.000 A 
BRANCH  10  13
ATOM     13  O   UNL     1      27.354  22.732  29.695  0.00  0.00    +0.000 OA
ATOM     14  C   UNL     1      26.585  21.664  30.213  0.00  0.00    +0.000 C 
ENDBRANCH  10  13
BRANCH  11  15
ATOM     15  O   UNL     1      25.763  24.728  28.485  0.00  0.00    +0.000 OA
ATOM     16  C   UNL     1      24.748  25.489  27.904  0.00  0.00    +0.000 C 
ENDBRANCH  11  15
ENDBRANCH   2   7
BRANCH   1  17
ATOM     17  C   UNL     1      29.954  24.237  24.025  0.00  0.00    +0.000 C 
ATOM     18  O   UNL     1      30.191  25.298  24.633  0.00  0.00    +0.000 OA
BRANCH  17  20
ATOM     19  C   UNL     1      32.233  23.514  24.582  0.00  0.00    +0.000 C 
ATOM     20  O   UNL     1      30.993  23.326  23.966  0.00  0.00    +0.000 OA
ENDBRANCH  17  20
ENDBRANCH   1  17
TORSDOF 5
ENDMDL
MODEL 2
REMARK VINA RESULT:      -5.4      3.391      6.390
REMARK  Name = 
REMARK  5 active torsions:
REMARK  status: ('A' for Active; 'I' for Inactive)
REMARK    1  A    between atoms: O_2  and  C_3
REMARK    2  A    between atoms: C_3  and  C_5
REMARK    3  A    between atoms: C_6  and  C_7
REMARK    4  A    between atoms: C_10  and  O_11
REMARK    5  A    between atoms: C_13  and  O_14
REMARK                            x       y       z     vdW  Elec       q    Type
REMARK                         _______ _______ _______ _____ _____    ______ ____
ROOT
ATOM      1  C   UNL     1      26.399  23.971  28.591  0.00  0.00    +0.000 A 
ATOM      2  C   UNL     1      27.059  23.068  27.852  0.00  0.00    +0.000 A 
ATOM      3  C   UNL     1      27.570  21.975  28.511  0.00  0.00    +0.000 A 
ATOM      4  S   UNL     1      27.121  22.234  30.121  0.00  0.00    +0.000 S 
ATOM      5  C   UNL     1      26.298  23.712  29.942  0.00  0.00    +0.000 A 
ATOM      6  N   UNL     1      25.641  24.518  30.957  0.00  0.00    +0.000 NA
ENDROOT
BRANCH   2   7
ATOM      7  C   UNL     1      27.262  23.128  26.373  0.00  0.00    +0.000 A 
ATOM      8  C   UNL     1      26.158  23.065  25.529  0.00  0.00    +0.000 A 
ATOM      9  C   UNL     1      26.321  23.150  24.160  0.00  0.00    +0.000 A 
ATOM     10  C   UNL     1      27.572  23.299  23.611  0.00  0.00    +0.000 A 
ATOM     11  C   UNL     1      28.656  23.360  24.442  0.00  0.00    +0.000 A 
ATOM     12  C   UNL     1      28.477  23.274  25.805  0.00  0.00    +0.000 A 
BRANCH  10  13
ATOM     13  O   UNL     1      27.720  23.383  22.215  0.00  0.00    +0.000 OA
ATOM     14  C   UNL     1      27.588  24.635  21.572  0.00  0.00    +0.000 C 
ENDBRANCH  10  13
BRANCH  11  15
ATOM     15  O   UNL     1      29.938  23.507  23.959  0.00  0.00    +0.000 OA
ATOM     16  C   UNL     1      31.039  22.914  24.579  0.00  0.00    +0.000 C 
ENDBRANCH  11  15
ENDBRANCH   2   7
BRANCH   1  17
ATOM     17  C   UNL     1      25.796  25.221  28.055  0.00  0.00    +0.000 C 
ATOM     18  O   UNL     1      24.585  25.282  27.768  0.00  0.00    +0.000 OA
BRANCH  17  20
ATOM     19  C   UNL     1      26.417  27.525  28.635  0.00  0.00    +0.000 C 
ATOM     20  O   UNL     1      26.528  26.376  27.847  0.00  0.00    +0.000 OA
ENDBRANCH  17  20
ENDBRANCH   1  17
TORSDOF 5
ENDMDL
MODEL 3
REMARK VINA RESULT:      -5.3      2.090      3.305
REMARK  Name = 
REMARK  5 active torsions:
REMARK  status: ('A' for Active; 'I' for Inactive)
REMARK    1  A    between atoms: O_2  and  C_3
REMARK    2  A    between atoms: C_3  and  C_5
REMARK    3  A    between atoms: C_6  and  C_7
REMARK    4  A    between atoms: C_10  and  O_11
REMARK    5  A    between atoms: C_13  and  O_14
REMARK                            x       y       z     vdW  Elec       q    Type
REMARK                         _______ _______ _______ _____ _____    ______ ____
ROOT
ATOM      1  C   UNL     1      27.763  23.676  25.610  0.00  0.00    +0.000 A 
ATOM      2  C   UNL     1      26.535  23.893  26.099  0.00  0.00    +0.000 A 
ATOM      3  C   UNL     1      25.480  23.745  25.230  0.00  0.00    +0.000 A 
ATOM      4  S   UNL     1      26.222  23.312  23.773  0.00  0.00    +0.000 S 
ATOM      5  C   UNL     1      27.847  23.323  24.278  0.00  0.00    +0.000 A 
ATOM      6  N   UNL     1      29.044  23.034  23.507  0.00  0.00    +0.000 NA
ENDROOT
BRANCH   2   7
ATOM      7  C   UNL     1      26.207  24.251  27.513  0.00  0.00    +0.000 A 
ATOM      8  C   UNL     1      25.750  25.532  27.805  0.00  0.00    +0.000 A 
ATOM      9  C   UNL     1      25.412  25.873  29.100  0.00  0.00    +0.000 A 
ATOM     10  C   UNL     1      25.522  24.956  30.118  0.00  0.00    +0.000 A 
ATOM     11  C   UNL     1      25.973  23.698  29.829  0.00  0.00    +0.000 A 
ATOM     12  C   UNL     1      26.305  23.373  28.532  0.00  0.00    +0.000 A 
BRANCH  10  13
ATOM     13  O   UNL     1      25.175  25.321  31.431  0.00  0.00    +0.000 OA
ATOM     14  C   UNL     1      26.135  25.943  32.262  0.00  0.00    +0.000 C 
ENDBRANCH  10  13
BRANCH  11  15
ATOM     15  O   UNL     1      26.107  22.731  30.800  0.00  0.00    +0.000 OA
ATOM     16  C   UNL     1      26.330  21.389  30.487  0.00  0.00    +0.000 C 
ENDBRANCH  11  15
ENDBRANCH   2   7
BRANCH   1  17
ATOM     17  C   UNL     1      29.020  23.805  26.395  0.00  0.00    +0.000 C 
ATOM     18  O   UNL     1      29.607  24.899  26.498  0.00  0.00    +0.000 OA
BRANCH  17  20
ATOM     19  C   UNL     1      30.022  22.773  28.385  0.00  0.00    +0.000 C 
ATOM     20  O   UNL     1      29.606  22.737  27.051  0.00  0.00    +0.000 OA
ENDBRANCH  17  20
ENDBRANCH   1  17
TORSDOF 5
ENDMDL
MODEL 4
REMARK VINA RESULT:      -5.3     19.013     20.759
REMARK  Name = 
REMARK  5 active torsions:
REMARK  status: ('A' for Active; 'I' for Inactive)
REMARK    1  A    between atoms: O_2  and  C_3
REMARK    2  A    between atoms: C_3  and  C_5
REMARK    3  A    between atoms: C_6  and  C_7
REMARK    4  A    between atoms: C_10  and  O_11
REMARK    5  A    between atoms: C_13  and  O_14
REMARK                            x       y       z     vdW  Elec       q    Type
REMARK                         _______ _______ _______ _____ _____    ______ ____
ROOT
ATOM      1  C   UNL     1      14.992  11.462  37.141  0.00  0.00    +0.000 A 
ATOM      2  C   UNL     1      15.851  10.864  37.977  0.00  0.00    +0.000 A 
ATOM      3  C   UNL     1      15.333  10.342  39.139  0.00  0.00    +0.000 A 
ATOM      4  S   UNL     1      13.683  10.696  39.033  0.00  0.00    +0.000 S 
ATOM      5  C   UNL     1      13.668  11.494  37.530  0.00  0.00    +0.000 A 
ATOM      6  N   UNL     1      12.543  12.074  36.816  0.00  0.00    +0.000 NA
ENDROOT
BRANCH   2   7
ATOM      7  C   UNL     1      17.317  10.686  37.745  0.00  0.00    +0.000 A 
ATOM      8  C   UNL     1      17.760   9.628  36.957  0.00  0.00    +0.000 A 
ATOM      9  C   UNL     1      19.108   9.464  36.705  0.00  0.00    +0.000 A 
ATOM     10  C   UNL     1      20.031  10.340  37.226  0.00  0.00    +0.000 A 
ATOM     11  C   UNL     1      19.593  11.378  38.000  0.00  0.00    +0.000 A 
ATOM     12  C   UNL     1      18.246  11.528  38.243  0.00  0.00    +0.000 A 
BRANCH  10  13
ATOM     13  O   UNL     1      21.399  10.157  36.959  0.00  0.00    +0.000 OA
ATOM     14  C   UNL     1      22.227   9.549  37.931  0.00  0.00    +0.000 C 
ENDBRANCH  10  13
BRANCH  11  15
ATOM     15  O   UNL     1      20.463  12.292  38.554  0.00  0.00    +0.000 OA
ATOM     16  C   UNL     1      20.295  13.668  38.393  0.00  0.00    +0.000 C 
ENDBRANCH  11  15
ENDBRANCH   2   7
BRANCH   1  17
ATOM     17  C   UNL     1      15.373  12.096  35.850  0.00  0.00    +0.000 C 
ATOM     18  O   UNL     1      15.796  13.267  35.807  0.00  0.00    +0.000 OA
BRANCH  17  20
ATOM     19  C   UNL     1      16.374  11.189  33.800  0.00  0.00    +0.000 C 
ATOM     20  O   UNL     1      15.283  11.438  34.637  0.00  0.00    +0.000 OA
ENDBRANCH  17  20
ENDBRANCH   1  17
TORSDOF 5
ENDMDL
MODEL 5
REMARK VINA RESULT:      -5.2      1.207      2.489
REMARK  Name = 
REMARK  5 active torsions:
REMARK  status: ('A' for Active; 'I' for Inactive)
REMARK    1  A    between atoms: O_2  and  C_3
REMARK    2  A    between atoms: C_3  and  C_5
REMARK    3  A    between atoms: C_6  and  C_7
REMARK    4  A    between atoms: C_10  and  O_11
REMARK    5  A    between atoms: C_13  and  O_14
REMARK                            x       y       z     vdW  Elec       q    Type
REMARK                         _______ _______ _______ _____ _____    ______ ____
ROOT
ATOM      1  C   UNL     1      28.818  24.012  23.355  0.00  0.00    +0.000 A 
ATOM      2  C   UNL     1      27.776  23.638  24.111  0.00  0.00    +0.000 A 
ATOM      3  C   UNL     1      26.573  23.456  23.472  0.00  0.00    +0.000 A 
ATOM      4  S   UNL     1      26.923  23.809  21.856  0.00  0.00    +0.000 S 
ATOM      5  C   UNL     1      28.576  24.179  22.007  0.00  0.00    +0.000 A 
ATOM      6  N   UNL     1      29.520  24.575  20.975  0.00  0.00    +0.000 NA
ENDROOT
BRANCH   2   7
ATOM      7  C   UNL     1      27.815  23.369  25.581  0.00  0.00    +0.000 A 
ATOM      8  C   UNL     1      26.704  23.672  26.360  0.00  0.00    +0.000 A 
ATOM      9  C   UNL     1      26.708  23.403  27.715  0.00  0.00    +0.000 A 
ATOM     10  C   UNL     1      27.806  22.832  28.314  0.00  0.00    +0.000 A 
ATOM     11  C   UNL     1      28.898  22.536  27.545  0.00  0.00    +0.000 A 
ATOM     12  C   UNL     1      28.878  22.810  26.196  0.00  0.00    +0.000 A 
BRANCH  10  13
ATOM     13  O   UNL     1      27.794  22.565  29.694  0.00  0.00    +0.000 OA
ATOM     14  C   UNL     1      26.827  21.682  30.227  0.00  0.00    +0.000 C 
ENDBRANCH  10  13
BRANCH  11  15
ATOM     15  O   UNL     1      30.032  21.963  28.079  0.00  0.00    +0.000 OA
ATOM     16  C   UNL     1      31.214  22.683  28.258  0.00  0.00    +0.000 C 
ENDBRANCH  11  15
ENDBRANCH   2   7
BRANCH   1  17
ATOM     17  C   UNL     1      30.188  24.272  23.873  0.00  0.00    +0.000 C 
ATOM     18  O   UNL     1      31.097  23.430  23.744  0.00  0.00    +0.000 OA
BRANCH  17  20
ATOM     19  C   UNL     1      29.949  26.686  24.254  0.00  0.00    +0.000 C 
ATOM     20  O   UNL     1      30.533  25.444  24.521  0.00  0.00    +0.000 OA
ENDBRANCH  17  20
ENDBRANCH   1  17
TORSDOF 5
ENDMDL
MODEL 6
REMARK VINA RESULT:      -5.2     32.468     34.332
REMARK  Name = 
REMARK  5 active torsions:
REMARK  status: ('A' for Active; 'I' for Inactive)
REMARK    1  A    between atoms: O_2  and  C_3
REMARK    2  A    between atoms: C_3  and  C_5
REMARK    3  A    between atoms: C_6  and  C_7
REMARK    4  A    between atoms: C_10  and  O_11
REMARK    5  A    between atoms: C_13  and  O_14
REMARK                            x       y       z     vdW  Elec       q    Type
REMARK                         _______ _______ _______ _____ _____    ______ ____
ROOT
ATOM      1  C   UNL     1      17.171 -10.185  28.344  0.00  0.00    +0.000 A 
ATOM      2  C   UNL     1      18.278  -9.473  28.596  0.00  0.00    +0.000 A 
ATOM      3  C   UNL     1      18.676  -9.379  29.908  0.00  0.00    +0.000 A 
ATOM      4  S   UNL     1      17.511 -10.276  30.744  0.00  0.00    +0.000 S 
ATOM      5  C   UNL     1      16.540 -10.755  29.431  0.00  0.00    +0.000 A 
ATOM      6  N   UNL     1      15.336 -11.569  29.437  0.00  0.00    +0.000 NA
ENDROOT
BRANCH   2   7
ATOM      7  C   UNL     1      19.134  -8.799  27.574  0.00  0.00    +0.000 A 
ATOM      8  C   UNL     1      20.249  -9.461  27.072  0.00  0.00    +0.000 A 
ATOM      9  C   UNL     1      21.037  -8.868  26.104  0.00  0.00    +0.000 A 
ATOM     10  C   UNL     1      20.732  -7.617  25.622  0.00  0.00    +0.000 A 
ATOM     11  C   UNL     1      19.636  -6.967  26.118  0.00  0.00    +0.000 A 
ATOM     12  C   UNL     1      18.861  -7.572  27.082  0.00  0.00    +0.000 A 
BRANCH  10  13
ATOM     13  O   UNL     1      21.545  -7.028  24.638  0.00  0.00    +0.000 OA
ATOM     14  C   UNL     1      22.914  -7.372  24.562  0.00  0.00    +0.000 C 
ENDBRANCH  10  13
BRANCH  11  15
ATOM     15  O   UNL     1      19.273  -5.712  25.680  0.00  0.00    +0.000 OA
ATOM     16  C   UNL     1      18.926  -4.689  26.563  0.00  0.00    +0.000 C 
ENDBRANCH  11  15
ENDBRANCH   2   7
BRANCH   1  17
ATOM     17  C   UNL     1      16.582 -10.381  26.992  0.00  0.00    +0.000 C 
ATOM     18  O   UNL     1      17.048 -11.222  26.200  0.00  0.00    +0.000 OA
BRANCH  17  20
ATOM     19  C   UNL     1      15.602  -8.500  25.754  0.00  0.00    +0.000 C 
ATOM     20  O   UNL     1      15.496  -9.654  26.537  0.00  0.00    +0.000 OA
ENDBRANCH  17  20
ENDBRANCH   1  17
TORSDOF 5
ENDMDL
MODEL 7
REMARK VINA RESULT:      -5.1      3.607      5.340
REMARK  Name = 
REMARK  5 active torsions:
REMARK  status: ('A' for Active; 'I' for Inactive)
REMARK    1  A    between atoms: O_2  and  C_3
REMARK    2  A    between atoms: C_3  and  C_5
REMARK    3  A    between atoms: C_6  and  C_7
REMARK    4  A    between atoms: C_10  and  O_11
REMARK    5  A    between atoms: C_13  and  O_14
REMARK                            x       y       z     vdW  Elec       q    Type
REMARK                         _______ _______ _______ _____ _____    ______ ____
ROOT
ATOM      1  C   UNL     1      28.475  24.209  22.908  0.00  0.00    +0.000 A 
ATOM      2  C   UNL     1      29.045  24.106  24.117  0.00  0.00    +0.000 A 
ATOM      3  C   UNL     1      28.302  23.512  25.110  0.00  0.00    +0.000 A 
ATOM      4  S   UNL     1      26.849  23.118  24.339  0.00  0.00    +0.000 S 
ATOM      5  C   UNL     1      27.196  23.706  22.781  0.00  0.00    +0.000 A 
ATOM      6  N   UNL     1      26.360  23.689  21.593  0.00  0.00    +0.000 NA
ENDROOT
BRANCH   2   7
ATOM      7  C   UNL     1      30.426  24.551  24.473  0.00  0.00    +0.000 A 
ATOM      8  C   UNL     1      31.477  23.644  24.396  0.00  0.00    +0.000 A 
ATOM      9  C   UNL     1      32.766  24.044  24.691  0.00  0.00    +0.000 A 
ATOM     10  C   UNL     1      33.031  25.340  25.064  0.00  0.00    +0.000 A 
ATOM     11  C   UNL     1      31.996  26.230  25.139  0.00  0.00    +0.000 A 
ATOM     12  C   UNL     1      30.716  25.817  24.842  0.00  0.00    +0.000 A 
BRANCH  10  13
ATOM     13  O   UNL     1      34.349  25.729  25.361  0.00  0.00    +0.000 OA
ATOM     14  C   UNL     1      35.141  24.926  26.213  0.00  0.00    +0.000 C 
ENDBRANCH  10  13
BRANCH  11  15
ATOM     15  O   UNL     1      32.189  27.544  25.505  0.00  0.00    +0.000 OA
ATOM     16  C   UNL     1      32.001  27.986  26.816  0.00  0.00    +0.000 C 
ENDBRANCH  11  15
ENDBRANCH   2   7
BRANCH   1  17
ATOM     17  C   UNL     1      29.118  24.836  21.722  0.00  0.00    +0.000 C 
ATOM     18  O   UNL     1      29.721  24.149  20.876  0.00  0.00    +0.000 OA
BRANCH  17  20
ATOM     19  C   UNL     1      29.577  26.803  20.326  0.00  0.00    +0.000 C 
ATOM     20  O   UNL     1      29.086  26.199  21.487  0.00  0.00    +0.000 OA
ENDBRANCH  17  20
ENDBRANCH   1  17
TORSDOF 5
ENDMDL
MODEL 8
REMARK VINA RESULT:      -5.1      4.278      7.113
REMARK  Name = 
REMARK  5 active torsions:
REMARK  status: ('A' for Active; 'I' for Inactive)
REMARK    1  A    between atoms: O_2  and  C_3
REMARK    2  A    between atoms: C_3  and  C_5
REMARK    3  A    between atoms: C_6  and  C_7
REMARK    4  A    between atoms: C_10  and  O_11
REMARK    5  A    between atoms: C_13  and  O_14
REMARK                            x       y       z     vdW  Elec       q    Type
REMARK                         _______ _______ _______ _____ _____    ______ ____
ROOT
ATOM      1  C   UNL     1      30.491  22.492  29.781  0.00  0.00    +0.000 A 
ATOM      2  C   UNL     1      31.397  22.355  28.802  0.00  0.00    +0.000 A 
ATOM      3  C   UNL     1      32.604  21.792  29.141  0.00  0.00    +0.000 A 
ATOM      4  S   UNL     1      32.445  21.473  30.794  0.00  0.00    +0.000 S 
ATOM      5  C   UNL     1      30.863  22.052  31.035  0.00  0.00    +0.000 A 
ATOM      6  N   UNL     1      30.080  22.083  32.258  0.00  0.00    +0.000 NA
ENDROOT
BRANCH   2   7
ATOM      7  C   UNL     1      31.198  22.731  27.369  0.00  0.00    +0.000 A 
ATOM      8  C   UNL     1      30.280  22.025  26.598  0.00  0.00    +0.000 A 
ATOM      9  C   UNL     1      30.060  22.377  25.281  0.00  0.00    +0.000 A 
ATOM     10  C   UNL     1      30.741  23.426  24.711  0.00  0.00    +0.000 A 
ATOM     11  C   UNL     1      31.644  24.118  25.470  0.00  0.00    +0.000 A 
ATOM     12  C   UNL     1      31.852  23.756  26.783  0.00  0.00    +0.000 A 
BRANCH  10  13
ATOM     13  O   UNL     1      30.504  23.770  23.369  0.00  0.00    +0.000 OA
ATOM     14  C   UNL     1      29.176  23.854  22.891  0.00  0.00    +0.000 C 
ENDBRANCH  10  13
BRANCH  11  15
ATOM     15  O   UNL     1      32.360  25.179  24.964  0.00  0.00    +0.000 OA
ATOM     16  C   UNL     1      32.498  26.382  25.658  0.00  0.00    +0.000 C 
ENDBRANCH  11  15
ENDBRANCH   2   7
BRANCH   1  17
ATOM     17  C   UNL     1      29.142  23.094  29.605  0.00  0.00    +0.000 C 
ATOM     18  O   UNL     1      28.955  24.316  29.763  0.00  0.00    +0.000 OA
BRANCH  17  20
ATOM     19  C   UNL     1      26.960  22.097  30.127  0.00  0.00    +0.000 C 
ATOM     20  O   UNL     1      28.029  22.348  29.262  0.00  0.00    +0.000 OA
ENDBRANCH  17  20
ENDBRANCH   1  17
TORSDOF 5
ENDMDL
MODEL 9
REMARK VINA RESULT:      -5.1      2.391      3.715
REMARK  Name = 
REMARK  5 active torsions:
REMARK  status: ('A' for Active; 'I' for Inactive)
REMARK    1  A    between atoms: O_2  and  C_3
REMARK    2  A    between atoms: C_3  and  C_5
REMARK    3  A    between atoms: C_6  and  C_7
REMARK    4  A    between atoms: C_10  and  O_11
REMARK    5  A    between atoms: C_13  and  O_14
REMARK                            x       y       z     vdW  Elec       q    Type
REMARK                         _______ _______ _______ _____ _____    ______ ____
ROOT
ATOM      1  C   UNL     1      27.718  23.598  24.817  0.00  0.00    +0.000 A 
ATOM      2  C   UNL     1      28.297  23.608  26.025  0.00  0.00    +0.000 A 
ATOM      3  C   UNL     1      29.622  23.249  26.087  0.00  0.00    +0.000 A 
ATOM      4  S   UNL     1      30.019  22.912  24.477  0.00  0.00    +0.000 S 
ATOM      5  C   UNL     1      28.513  23.228  23.751  0.00  0.00    +0.000 A 
ATOM      6  N   UNL     1      28.139  23.135  22.350  0.00  0.00    +0.000 NA
ENDROOT
BRANCH   2   7
ATOM      7  C   UNL     1      27.639  24.005  27.307  0.00  0.00    +0.000 A 
ATOM      8  C   UNL     1      27.631  25.344  27.685  0.00  0.00    +0.000 A 
ATOM      9  C   UNL     1      27.001  25.735  28.850  0.00  0.00    +0.000 A 
ATOM     10  C   UNL     1      26.373  24.813  29.652  0.00  0.00    +0.000 A 
ATOM     11  C   UNL     1      26.383  23.497  29.279  0.00  0.00    +0.000 A 
ATOM     12  C   UNL     1      27.015  23.122  28.114  0.00  0.00    +0.000 A 
BRANCH  10  13
ATOM     13  O   UNL     1      25.737  25.229  30.835  0.00  0.00    +0.000 OA
ATOM     14  C   UNL     1      24.641  26.120  30.765  0.00  0.00    +0.000 C 
ENDBRANCH  10  13
BRANCH  11  15
ATOM     15  O   UNL     1      25.774  22.520  30.036  0.00  0.00    +0.000 OA
ATOM     16  C   UNL     1      26.488  21.460  30.595  0.00  0.00    +0.000 C 
ENDBRANCH  11  15
ENDBRANCH   2   7
BRANCH   1  17
ATOM     17  C   UNL     1      26.293  23.939  24.560  0.00  0.00    +0.000 C 
ATOM     18  O   UNL     1      25.435  23.050  24.400  0.00  0.00    +0.000 OA
BRANCH  17  20
ATOM     19  C   UNL     1      26.585  26.303  23.964  0.00  0.00    +0.000 C 
ATOM     20  O   UNL     1      25.837  25.243  24.485  0.00  0.00    +0.000 OA
ENDBRANCH  17  20
ENDBRANCH   1  17
TORSDOF 5
ENDMDL
MODEL 10
REMARK VINA RESULT:      -5.1      1.943      2.522
REMARK  Name = 
REMARK  5 active torsions:
REMARK  status: ('A' for Active; 'I' for Inactive)
REMARK    1  A    between atoms: O_2  and  C_3
REMARK    2  A    between atoms: C_3  and  C_5
REMARK    3  A    between atoms: C_6  and  C_7
REMARK    4  A    between atoms: C_10  and  O_11
REMARK    5  A    between atoms: C_13  and  O_14
REMARK                            x       y       z     vdW  Elec       q    Type
REMARK                         _______ _______ _______ _____ _____    ______ ____
ROOT
ATOM      1  C   UNL     1      28.484  25.019  22.680  0.00  0.00    +0.000 A 
ATOM      2  C   UNL     1      27.629  25.736  23.423  0.00  0.00    +0.000 A 
ATOM      3  C   UNL     1      27.138  26.894  22.868  0.00  0.00    +0.000 A 
ATOM      4  S   UNL     1      27.874  26.950  21.346  0.00  0.00    +0.000 S 
ATOM      5  C   UNL     1      28.787  25.517  21.429  0.00  0.00    +0.000 A 
ATOM      6  N   UNL     1      29.675  24.942  20.432  0.00  0.00    +0.000 NA
ENDROOT
BRANCH   2   7
ATOM      7  C   UNL     1      27.137  25.371  24.786  0.00  0.00    +0.000 A 
ATOM      8  C   UNL     1      26.037  24.530  24.913  0.00  0.00    +0.000 A 
ATOM      9  C   UNL     1      25.586  24.157  26.164  0.00  0.00    +0.000 A 
ATOM     10  C   UNL     1      26.215  24.607  27.300  0.00  0.00    +0.000 A 
ATOM     11  C   UNL     1      27.296  25.435  27.173  0.00  0.00    +0.000 A 
ATOM     12  C   UNL     1      27.734  25.798  25.918  0.00  0.00    +0.000 A 
BRANCH  10  13
ATOM     13  O   UNL     1      25.742  24.218  28.566  0.00  0.00    +0.000 OA
ATOM     14  C   UNL     1      26.330  23.112  29.222  0.00  0.00    +0.000 C 
ENDBRANCH  10  13
BRANCH  11  15
ATOM     15  O   UNL     1      27.973  25.924  28.268  0.00  0.00    +0.000 OA
ATOM     16  C   UNL     1      29.346  25.736  28.439  0.00  0.00    +0.000 C 
ENDBRANCH  11  15
ENDBRANCH   2   7
BRANCH   1  17
ATOM     17  C   UNL     1      29.128  23.752  23.120  0.00  0.00    +0.000 C 
ATOM     18  O   UNL     1      28.500  22.676  23.123  0.00  0.00    +0.000 OA
BRANCH  17  20
ATOM     19  C   UNL     1      30.896  22.836  24.556  0.00  0.00    +0.000 C 
ATOM     20  O   UNL     1      30.442  23.690  23.547  0.00  0.00    +0.000 OA
ENDBRANCH  17  20
ENDBRANCH   1  17
TORSDOF 5
ENDMDL
