MODEL 1
REMARK VINA RESULT:      -6.0      0.000      0.000
REMARK  Name = 
REMARK  4 active torsions:
REMARK  status: ('A' for Active; 'I' for Inactive)
REMARK    1  A    between atoms: C_2  and  N_3
REMARK    2  A    between atoms: C_6  and  C_7
REMARK    3  A    between atoms: C_13  and  O_14
REMARK    4  A    between atoms: O_14  and  C_15
REMARK                            x       y       z     vdW  Elec       q    Type
REMARK                         _______ _______ _______ _____ _____    ______ ____
ROOT
ATOM      1  C   UNL     1      18.286  10.846  37.290  0.00  0.00    +0.000 A 
ATOM      2  C   UNL     1      18.831   9.585  37.293  0.00  0.00    +0.000 A 
ATOM      3  N   UNL     1      20.081   9.648  37.787  0.00  0.00    +0.000 NA
ATOM      4  C   UNL     1      20.374  10.919  38.108  0.00  0.00    +0.000 A 
ATOM      5  C   UNL     1      21.465  11.574  38.638  0.00  0.00    +0.000 A 
ATOM      6  C   UNL     1      21.427  12.947  38.849  0.00  0.00    +0.000 A 
ATOM      7  C   UNL     1      20.306  13.693  38.538  0.00  0.00    +0.000 A 
ATOM      8  C   UNL     1      19.233  13.039  38.016  0.00  0.00    +0.000 A 
ATOM      9  C   UNL     1      19.268  11.659  37.803  0.00  0.00    +0.000 A 
ENDROOT
BRANCH   1  13
ATOM     10  N   UNL     1      13.427  11.474  37.833  0.00  0.00    +0.000 NA
ATOM     11  C   UNL     1      14.699  11.511  37.136  0.00  0.00    +0.000 A 
ATOM     12  N   UNL     1      15.882  11.145  37.593  0.00  0.00    +0.000 NA
ATOM     13  C   UNL     1      16.927  11.244  36.830  0.00  0.00    +0.000 A 
ATOM     14  C   UNL     1      16.730  11.736  35.560  0.00  0.00    +0.000 A 
ATOM     15  S   UNL     1      15.050  12.026  35.549  0.00  0.00    +0.000 S 
BRANCH  10  17
ATOM     16  C   UNL     1      11.055  11.061  37.326  0.00  0.00    +0.000 C 
ATOM     17  C   UNL     1      12.271  11.939  37.094  0.00  0.00    +0.000 C 
ENDBRANCH  10  17
ENDBRANCH   1  13
BRANCH   7  18
ATOM     18  O   UNL     1      20.227  15.065  38.733  0.00  0.00    +0.000 OA
BRANCH  18  19
ATOM     19  C   UNL     1      20.125  15.684  39.977  0.00  0.00    +0.000 C 
ATOM     20  C   UNL     1      18.882  16.511  40.063  0.00  0.00    +0.000 C 
ENDBRANCH  18  19
ENDBRANCH   7  18
TORSDOF 4
ENDMDL
MODEL 2
REMARK VINA RESULT:      -5.8      2.021      2.707
REMARK  Name = 
REMARK  4 active torsions:
REMARK  status: ('A' for Active; 'I' for Inactive)
REMARK    1  A    between atoms: C_2  and  N_3
REMARK    2  A    between atoms: C_6  and  C_7
REMARK    3  A    between atoms: C_13  and  O_14
REMARK    4  A    between atoms: O_14  and  C_15
REMARK                            x       y       z     vdW  Elec       q    Type
REMARK                         _______ _______ _______ _____ _____    ______ ____
ROOT
ATOM      1  C   UNL     1      18.069  10.629  37.250  0.00  0.00    +0.000 A 
ATOM      2  C   UNL     1      18.337   9.341  37.646  0.00  0.00    +0.000 A 
ATOM      3  N   UNL     1      19.338   9.356  38.543  0.00  0.00    +0.000 NA
ATOM      4  C   UNL     1      19.740  10.621  38.748  0.00  0.00    +0.000 A 
ATOM      5  C   UNL     1      20.694  11.237  39.529  0.00  0.00    +0.000 A 
ATOM      6  C   UNL     1      20.845  12.618  39.497  0.00  0.00    +0.000 A 
ATOM      7  C   UNL     1      20.053  13.411  38.690  0.00  0.00    +0.000 A 
ATOM      8  C   UNL     1      19.113  12.795  37.922  0.00  0.00    +0.000 A 
ATOM      9  C   UNL     1      18.958  11.408  37.952  0.00  0.00    +0.000 A 
ENDROOT
BRANCH   1  13
ATOM     10  N   UNL     1      16.368  11.573  32.721  0.00  0.00    +0.000 NA
ATOM     11  C   UNL     1      16.313  11.497  34.169  0.00  0.00    +0.000 A 
ATOM     12  N   UNL     1      17.258  11.085  34.994  0.00  0.00    +0.000 NA
ATOM     13  C   UNL     1      17.041  11.082  36.273  0.00  0.00    +0.000 A 
ATOM     14  C   UNL     1      15.808  11.520  36.700  0.00  0.00    +0.000 A 
ATOM     15  S   UNL     1      15.041  11.907  35.227  0.00  0.00    +0.000 S 
BRANCH  10  17
ATOM     16  C   UNL     1      14.521  10.998  31.200  0.00  0.00    +0.000 C 
ATOM     17  C   UNL     1      15.180  12.066  32.054  0.00  0.00    +0.000 C 
ENDBRANCH  10  17
ENDBRANCH   1  13
BRANCH   7  18
ATOM     18  O   UNL     1      20.171  14.793  38.628  0.00  0.00    +0.000 OA
BRANCH  18  19
ATOM     19  C   UNL     1      20.278  15.629  39.736  0.00  0.00    +0.000 C 
ATOM     20  C   UNL     1      19.009  16.390  39.957  0.00  0.00    +0.000 C 
ENDBRANCH  18  19
ENDBRANCH   7  18
TORSDOF 4
ENDMDL
MODEL 3
REMARK VINA RESULT:      -5.8      3.173      4.191
REMARK  Name = 
REMARK  4 active torsions:
REMARK  status: ('A' for Active; 'I' for Inactive)
REMARK    1  A    between atoms: C_2  and  N_3
REMARK    2  A    between atoms: C_6  and  C_7
REMARK    3  A    between atoms: C_13  and  O_14
REMARK    4  A    between atoms: O_14  and  C_15
REMARK                            x       y       z     vdW  Elec       q    Type
REMARK                         _______ _______ _______ _____ _____    ______ ____
ROOT
ATOM      1  C   UNL     1      17.502  10.327  38.290  0.00  0.00    +0.000 A 
ATOM      2  C   UNL     1      16.893   9.828  39.416  0.00  0.00    +0.000 A 
ATOM      3  N   UNL     1      17.837   9.457  40.299  0.00  0.00    +0.000 NA
ATOM      4  C   UNL     1      19.055   9.696  39.783  0.00  0.00    +0.000 A 
ATOM      5  C   UNL     1      20.354   9.528  40.209  0.00  0.00    +0.000 A 
ATOM      6  C   UNL     1      21.415   9.897  39.391  0.00  0.00    +0.000 A 
ATOM      7  C   UNL     1      21.205  10.439  38.138  0.00  0.00    +0.000 A 
ATOM      8  C   UNL     1      19.918  10.602  37.725  0.00  0.00    +0.000 A 
ATOM      9  C   UNL     1      18.850  10.233  38.544  0.00  0.00    +0.000 A 
ENDROOT
BRANCH   1  13
ATOM     10  N   UNL     1      16.533  10.383  33.458  0.00  0.00    +0.000 NA
ATOM     11  C   UNL     1      16.436  10.830  34.834  0.00  0.00    +0.000 A 
ATOM     12  N   UNL     1      17.043  10.326  35.893  0.00  0.00    +0.000 NA
ATOM     13  C   UNL     1      16.845  10.852  37.062  0.00  0.00    +0.000 A 
ATOM     14  C   UNL     1      15.993  11.931  37.126  0.00  0.00    +0.000 A 
ATOM     15  S   UNL     1      15.532  12.116  35.495  0.00  0.00    +0.000 S 
BRANCH  10  17
ATOM     16  C   UNL     1      14.647  10.276  31.881  0.00  0.00    +0.000 C 
ATOM     17  C   UNL     1      15.755  11.120  32.482  0.00  0.00    +0.000 C 
ENDBRANCH  10  17
ENDBRANCH   1  13
BRANCH   7  18
ATOM     18  O   UNL     1      22.236  10.821  37.290  0.00  0.00    +0.000 OA
BRANCH  18  19
ATOM     19  C   UNL     1      22.617  10.129  36.143  0.00  0.00    +0.000 C 
ATOM     20  C   UNL     1      24.107  10.066  36.026  0.00  0.00    +0.000 C 
ENDBRANCH  18  19
ENDBRANCH   7  18
TORSDOF 4
ENDMDL
MODEL 4
REMARK VINA RESULT:      -5.8     23.150     24.574
REMARK  Name = 
REMARK  4 active torsions:
REMARK  status: ('A' for Active; 'I' for Inactive)
REMARK    1  A    between atoms: C_2  and  N_3
REMARK    2  A    between atoms: C_6  and  C_7
REMARK    3  A    between atoms: C_13  and  O_14
REMARK    4  A    between atoms: O_14  and  C_15
REMARK                            x       y       z     vdW  Elec       q    Type
REMARK                         _______ _______ _______ _____ _____    ______ ____
ROOT
ATOM      1  C   UNL     1      28.773  24.722  21.954  0.00  0.00    +0.000 A 
ATOM      2  C   UNL     1      27.704  23.861  21.879  0.00  0.00    +0.000 A 
ATOM      3  N   UNL     1      27.819  22.934  22.846  0.00  0.00    +0.000 NA
ATOM      4  C   UNL     1      28.937  23.160  23.557  0.00  0.00    +0.000 A 
ATOM      5  C   UNL     1      29.557  22.562  24.632  0.00  0.00    +0.000 A 
ATOM      6  C   UNL     1      30.747  23.076  25.132  0.00  0.00    +0.000 A 
ATOM      7  C   UNL     1      31.342  24.191  24.574  0.00  0.00    +0.000 A 
ATOM      8  C   UNL     1      30.722  24.776  23.512  0.00  0.00    +0.000 A 
ATOM      9  C   UNL     1      29.526  24.263  23.008  0.00  0.00    +0.000 A 
ENDROOT
BRANCH   1  13
ATOM     10  N   UNL     1      30.911  27.006  18.145  0.00  0.00    +0.000 NA
ATOM     11  C   UNL     1      30.063  26.893  19.317  0.00  0.00    +0.000 A 
ATOM     12  N   UNL     1      29.847  25.822  20.058  0.00  0.00    +0.000 NA
ATOM     13  C   UNL     1      29.053  25.896  21.081  0.00  0.00    +0.000 A 
ATOM     14  C   UNL     1      28.472  27.117  21.336  0.00  0.00    +0.000 A 
ATOM     15  S   UNL     1      29.108  28.080  20.081  0.00  0.00    +0.000 S 
BRANCH  10  17
ATOM     16  C   UNL     1      32.277  29.023  17.800  0.00  0.00    +0.000 C 
ATOM     17  C   UNL     1      30.970  28.308  17.513  0.00  0.00    +0.000 C 
ENDBRANCH  10  17
ENDBRANCH   1  13
BRANCH   7  18
ATOM     18  O   UNL     1      32.529  24.737  25.043  0.00  0.00    +0.000 OA
BRANCH  18  19
ATOM     19  C   UNL     1      33.800  24.293  24.687  0.00  0.00    +0.000 C 
ATOM     20  C   UNL     1      34.776  25.426  24.666  0.00  0.00    +0.000 C 
ENDBRANCH  18  19
ENDBRANCH   7  18
TORSDOF 4
ENDMDL
MODEL 5
REMARK VINA RESULT:      -5.7     20.245     22.802
REMARK  Name = 
REMARK  4 active torsions:
REMARK  status: ('A' for Active; 'I' for Inactive)
REMARK    1  A    between atoms: C_2  and  N_3
REMARK    2  A    between atoms: C_6  and  C_7
REMARK    3  A    between atoms: C_13  and  O_14
REMARK    4  A    between atoms: O_14  and  C_15
REMARK                            x       y       z     vdW  Elec       q    Type
REMARK                         _______ _______ _______ _____ _____    ______ ____
ROOT
ATOM      1  C   UNL     1      33.867  -3.933  34.575  0.00  0.00    +0.000 A 
ATOM      2  C   UNL     1      34.394  -4.450  35.733  0.00  0.00    +0.000 A 
ATOM      3  N   UNL     1      34.709  -3.439  36.562  0.00  0.00    +0.000 NA
ATOM      4  C   UNL     1      34.404  -2.267  35.979  0.00  0.00    +0.000 A 
ATOM      5  C   UNL     1      34.498  -0.938  36.332  0.00  0.00    +0.000 A 
ATOM      6  C   UNL     1      34.073   0.053  35.456  0.00  0.00    +0.000 A 
ATOM      7  C   UNL     1      33.547  -0.257  34.216  0.00  0.00    +0.000 A 
ATOM      8  C   UNL     1      33.458  -1.572  33.876  0.00  0.00    +0.000 A 
ATOM      9  C   UNL     1      33.883  -2.571  34.754  0.00  0.00    +0.000 A 
ENDROOT
BRANCH   1  13
ATOM     10  N   UNL     1      33.867  -5.158  29.801  0.00  0.00    +0.000 NA
ATOM     11  C   UNL     1      33.428  -5.210  31.182  0.00  0.00    +0.000 A 
ATOM     12  N   UNL     1      33.894  -4.517  32.205  0.00  0.00    +0.000 NA
ATOM     13  C   UNL     1      33.382  -4.686  33.385  0.00  0.00    +0.000 A 
ATOM     14  C   UNL     1      32.360  -5.600  33.499  0.00  0.00    +0.000 A 
ATOM     15  S   UNL     1      32.203  -6.157  31.895  0.00  0.00    +0.000 S 
BRANCH  10  17
ATOM     16  C   UNL     1      34.147  -6.839  28.026  0.00  0.00    +0.000 C 
ATOM     17  C   UNL     1      33.180  -6.031  28.871  0.00  0.00    +0.000 C 
ENDBRANCH  10  17
ENDBRANCH   1  13
BRANCH   7  18
ATOM     18  O   UNL     1      33.111   0.702  33.313  0.00  0.00    +0.000 OA
BRANCH  18  19
ATOM     19  C   UNL     1      33.942   1.595  32.641  0.00  0.00    +0.000 C 
ATOM     20  C   UNL     1      33.655   3.005  33.048  0.00  0.00    +0.000 C 
ENDBRANCH  18  19
ENDBRANCH   7  18
TORSDOF 4
ENDMDL
MODEL 6
REMARK VINA RESULT:      -5.5     22.273     23.931
REMARK  Name = 
REMARK  4 active torsions:
REMARK  status: ('A' for Active; 'I' for Inactive)
REMARK    1  A    between atoms: C_2  and  N_3
REMARK    2  A    between atoms: C_6  and  C_7
REMARK    3  A    between atoms: C_13  and  O_14
REMARK    4  A    between atoms: O_14  and  C_15
REMARK                            x       y       z     vdW  Elec       q    Type
REMARK                         _______ _______ _______ _____ _____    ______ ____
ROOT
ATOM      1  C   UNL     1      17.912  -7.903  27.349  0.00  0.00    +0.000 A 
ATOM      2  C   UNL     1      17.206  -6.732  27.214  0.00  0.00    +0.000 A 
ATOM      3  N   UNL     1      17.948  -5.849  26.522  0.00  0.00    +0.000 NA
ATOM      4  C   UNL     1      19.127  -6.407  26.198  0.00  0.00    +0.000 A 
ATOM      5  C   UNL     1      20.253  -6.001  25.516  0.00  0.00    +0.000 A 
ATOM      6  C   UNL     1      21.330  -6.866  25.360  0.00  0.00    +0.000 A 
ATOM      7  C   UNL     1      21.306  -8.147  25.876  0.00  0.00    +0.000 A 
ATOM      8  C   UNL     1      20.190  -8.540  26.548  0.00  0.00    +0.000 A 
ATOM      9  C   UNL     1      19.106  -7.674  26.706  0.00  0.00    +0.000 A 
ENDROOT
BRANCH   1  13
ATOM     10  N   UNL     1      17.607 -10.955  31.207  0.00  0.00    +0.000 NA
ATOM     11  C   UNL     1      17.371 -10.511  29.846  0.00  0.00    +0.000 A 
ATOM     12  N   UNL     1      17.780  -9.391  29.279  0.00  0.00    +0.000 NA
ATOM     13  C   UNL     1      17.479  -9.148  28.041  0.00  0.00    +0.000 A 
ATOM     14  C   UNL     1      16.733 -10.098  27.380  0.00  0.00    +0.000 A 
ATOM     15  S   UNL     1      16.515 -11.280  28.589  0.00  0.00    +0.000 S 
BRANCH  10  17
ATOM     16  C   UNL     1      15.982 -12.104  32.654  0.00  0.00    +0.000 C 
ATOM     17  C   UNL     1      17.041 -12.237  31.576  0.00  0.00    +0.000 C 
ENDBRANCH  10  17
ENDBRANCH   1  13
BRANCH   7  18
ATOM     18  O   UNL     1      22.359  -9.042  25.742  0.00  0.00    +0.000 OA
BRANCH  18  19
ATOM     19  C   UNL     1      22.537 -10.180  26.524  0.00  0.00    +0.000 C 
ATOM     20  C   UNL     1      23.868 -10.810  26.258  0.00  0.00    +0.000 C 
ENDBRANCH  18  19
ENDBRANCH   7  18
TORSDOF 4
ENDMDL
MODEL 7
REMARK VINA RESULT:      -5.5      4.915      8.038
REMARK  Name = 
REMARK  4 active torsions:
REMARK  status: ('A' for Active; 'I' for Inactive)
REMARK    1  A    between atoms: C_2  and  N_3
REMARK    2  A    between atoms: C_6  and  C_7
REMARK    3  A    between atoms: C_13  and  O_14
REMARK    4  A    between atoms: O_14  and  C_15
REMARK                            x       y       z     vdW  Elec       q    Type
REMARK                         _______ _______ _______ _____ _____    ______ ____
ROOT
ATOM      1  C   UNL     1      17.964   8.837  39.747  0.00  0.00    +0.000 A 
ATOM      2  C   UNL     1      16.971   9.590  40.325  0.00  0.00    +0.000 A 
ATOM      3  N   UNL     1      16.368   8.860  41.280  0.00  0.00    +0.000 NA
ATOM      4  C   UNL     1      16.937   7.645  41.346  0.00  0.00    +0.000 A 
ATOM      5  C   UNL     1      16.749   6.510  42.105  0.00  0.00    +0.000 A 
ATOM      6  C   UNL     1      17.546   5.390  41.903  0.00  0.00    +0.000 A 
ATOM      7  C   UNL     1      18.542   5.376  40.946  0.00  0.00    +0.000 A 
ATOM      8  C   UNL     1      18.721   6.501  40.201  0.00  0.00    +0.000 A 
ATOM      9  C   UNL     1      17.923   7.629  40.401  0.00  0.00    +0.000 A 
ENDROOT
BRANCH   1  13
ATOM     10  N   UNL     1      22.321  10.205  37.891  0.00  0.00    +0.000 NA
ATOM     11  C   UNL     1      20.911   9.867  37.852  0.00  0.00    +0.000 A 
ATOM     12  N   UNL     1      20.137   9.512  38.860  0.00  0.00    +0.000 NA
ATOM     13  C   UNL     1      18.885   9.242  38.649  0.00  0.00    +0.000 A 
ATOM     14  C   UNL     1      18.433   9.347  37.353  0.00  0.00    +0.000 A 
ATOM     15  S   UNL     1      19.843   9.827  36.523  0.00  0.00    +0.000 S 
BRANCH  10  17
ATOM     16  C   UNL     1      23.814   9.451  36.086  0.00  0.00    +0.000 C 
ATOM     17  C   UNL     1      22.935  10.563  36.628  0.00  0.00    +0.000 C 
ENDBRANCH  10  17
ENDBRANCH   1  13
BRANCH   7  18
ATOM     18  O   UNL     1      19.359   4.279  40.713  0.00  0.00    +0.000 OA
BRANCH  18  19
ATOM     19  C   UNL     1      20.670   4.352  40.249  0.00  0.00    +0.000 C 
ATOM     20  C   UNL     1      21.213   2.988  39.960  0.00  0.00    +0.000 C 
ENDBRANCH  18  19
ENDBRANCH   7  18
TORSDOF 4
ENDMDL
MODEL 8
REMARK VINA RESULT:      -5.4     17.820     19.958
REMARK  Name = 
REMARK  4 active torsions:
REMARK  status: ('A' for Active; 'I' for Inactive)
REMARK    1  A    between atoms: C_2  and  N_3
REMARK    2  A    between atoms: C_6  and  C_7
REMARK    3  A    between atoms: C_13  and  O_14
REMARK    4  A    between atoms: O_14  and  C_15
REMARK                            x       y       z     vdW  Elec       q    Type
REMARK                         _______ _______ _______ _____ _____    ______ ____
ROOT
ATOM      1  C   UNL     1      30.229  22.939  25.952  0.00  0.00    +0.000 A 
ATOM      2  C   UNL     1      30.461  22.783  24.607  0.00  0.00    +0.000 A 
ATOM      3  N   UNL     1      29.287  22.809  23.952  0.00  0.00    +0.000 NA
ATOM      4  C   UNL     1      28.285  22.978  24.831  0.00  0.00    +0.000 A 
ATOM      5  C   UNL     1      26.913  23.078  24.753  0.00  0.00    +0.000 A 
ATOM      6  C   UNL     1      26.154  23.256  25.903  0.00  0.00    +0.000 A 
ATOM      7  C   UNL     1      26.743  23.337  27.150  0.00  0.00    +0.000 A 
ATOM      8  C   UNL     1      28.099  23.236  27.219  0.00  0.00    +0.000 A 
ATOM      9  C   UNL     1      28.865  23.059  26.066  0.00  0.00    +0.000 A 
ENDROOT
BRANCH   1  13
ATOM     10  N   UNL     1      32.509  21.136  29.933  0.00  0.00    +0.000 NA
ATOM     11  C   UNL     1      32.248  22.093  28.875  0.00  0.00    +0.000 A 
ATOM     12  N   UNL     1      31.337  22.017  27.922  0.00  0.00    +0.000 NA
ATOM     13  C   UNL     1      31.237  22.970  27.048  0.00  0.00    +0.000 A 
ATOM     14  C   UNL     1      32.108  24.028  27.173  0.00  0.00    +0.000 A 
ATOM     15  S   UNL     1      33.017  23.579  28.543  0.00  0.00    +0.000 S 
BRANCH  10  17
ATOM     16  C   UNL     1      33.108  21.453  32.298  0.00  0.00    +0.000 C 
ATOM     17  C   UNL     1      33.576  21.467  30.855  0.00  0.00    +0.000 C 
ENDBRANCH  10  17
ENDBRANCH   1  13
BRANCH   7  18
ATOM     18  O   UNL     1      26.022  23.514  28.323  0.00  0.00    +0.000 OA
BRANCH  18  19
ATOM     19  C   UNL     1      26.567  23.462  29.604  0.00  0.00    +0.000 C 
ATOM     20  C   UNL     1      26.386  22.106  30.208  0.00  0.00    +0.000 C 
ENDBRANCH  18  19
ENDBRANCH   7  18
TORSDOF 4
ENDMDL
MODEL 9
REMARK VINA RESULT:      -5.3      3.829      6.955
REMARK  Name = 
REMARK  4 active torsions:
REMARK  status: ('A' for Active; 'I' for Inactive)
REMARK    1  A    between atoms: C_2  and  N_3
REMARK    2  A    between atoms: C_6  and  C_7
REMARK    3  A    between atoms: C_13  and  O_14
REMARK    4  A    between atoms: O_14  and  C_15
REMARK                            x       y       z     vdW  Elec       q    Type
REMARK                         _______ _______ _______ _____ _____    ______ ____
ROOT
ATOM      1  C   UNL     1      18.491   9.847  39.145  0.00  0.00    +0.000 A 
ATOM      2  C   UNL     1      17.876   9.457  40.310  0.00  0.00    +0.000 A 
ATOM      3  N   UNL     1      16.561   9.729  40.225  0.00  0.00    +0.000 NA
ATOM      4  C   UNL     1      16.293  10.289  39.034  0.00  0.00    +0.000 A 
ATOM      5  C   UNL     1      15.165  10.764  38.400  0.00  0.00    +0.000 A 
ATOM      6  C   UNL     1      15.250  11.298  37.120  0.00  0.00    +0.000 A 
ATOM      7  C   UNL     1      16.454  11.371  36.448  0.00  0.00    +0.000 A 
ATOM      8  C   UNL     1      17.564  10.901  37.080  0.00  0.00    +0.000 A 
ATOM      9  C   UNL     1      17.483  10.362  38.366  0.00  0.00    +0.000 A 
ENDROOT
BRANCH   1  13
ATOM     10  N   UNL     1      22.352  10.053  36.088  0.00  0.00    +0.000 NA
ATOM     11  C   UNL     1      21.672   9.846  37.352  0.00  0.00    +0.000 A 
ATOM     12  N   UNL     1      20.381   9.959  37.605  0.00  0.00    +0.000 NA
ATOM     13  C   UNL     1      19.935   9.735  38.802  0.00  0.00    +0.000 A 
ATOM     14  C   UNL     1      20.861   9.385  39.759  0.00  0.00    +0.000 A 
ATOM     15  S   UNL     1      22.315   9.402  38.868  0.00  0.00    +0.000 S 
BRANCH  10  17
ATOM     16  C   UNL     1      24.539  11.175  36.203  0.00  0.00    +0.000 C 
ATOM     17  C   UNL     1      23.787   9.862  36.087  0.00  0.00    +0.000 C 
ENDBRANCH  10  17
ENDBRANCH   1  13
BRANCH   7  18
ATOM     18  O   UNL     1      16.582  11.897  35.169  0.00  0.00    +0.000 OA
BRANCH  18  19
ATOM     19  C   UNL     1      15.618  11.794  34.170  0.00  0.00    +0.000 C 
ATOM     20  C   UNL     1      16.249  11.498  32.846  0.00  0.00    +0.000 C 
ENDBRANCH  18  19
ENDBRANCH   7  18
TORSDOF 4
ENDMDL
MODEL 10
REMARK VINA RESULT:      -5.3     20.286     22.153
REMARK  Name = 
REMARK  4 active torsions:
REMARK  status: ('A' for Active; 'I' for Inactive)
REMARK    1  A    between atoms: C_2  and  N_3
REMARK    2  A    between atoms: C_6  and  C_7
REMARK    3  A    between atoms: C_13  and  O_14
REMARK    4  A    between atoms: O_14  and  C_15
REMARK                            x       y       z     vdW  Elec       q    Type
REMARK                         _______ _______ _______ _____ _____    ______ ____
ROOT
ATOM      1  C   UNL     1      29.279  24.046  23.489  0.00  0.00    +0.000 A 
ATOM      2  C   UNL     1      28.999  23.972  22.146  0.00  0.00    +0.000 A 
ATOM      3  N   UNL     1      27.704  23.645  21.985  0.00  0.00    +0.000 NA
ATOM      4  C   UNL     1      27.124  23.500  23.188  0.00  0.00    +0.000 A 
ATOM      5  C   UNL     1      25.861  23.182  23.639  0.00  0.00    +0.000 A 
ATOM      6  C   UNL     1      25.597  23.118  25.002  0.00  0.00    +0.000 A 
ATOM      7  C   UNL     1      26.581  23.368  25.940  0.00  0.00    +0.000 A 
ATOM      8  C   UNL     1      27.825  23.682  25.485  0.00  0.00    +0.000 A 
ATOM      9  C   UNL     1      28.094  23.748  24.117  0.00  0.00    +0.000 A 
ENDROOT
BRANCH   1  13
ATOM     10  N   UNL     1      32.626  27.114  25.410  0.00  0.00    +0.000 NA
ATOM     11  C   UNL     1      32.084  25.833  24.997  0.00  0.00    +0.000 A 
ATOM     12  N   UNL     1      30.914  25.593  24.435  0.00  0.00    +0.000 NA
ATOM     13  C   UNL     1      30.585  24.377  24.125  0.00  0.00    +0.000 A 
ATOM     14  C   UNL     1      31.499  23.389  24.410  0.00  0.00    +0.000 A 
ATOM     15  S   UNL     1      32.776  24.278  25.106  0.00  0.00    +0.000 S 
BRANCH  10  17
ATOM     16  C   UNL     1      35.034  27.402  24.995  0.00  0.00    +0.000 C 
ATOM     17  C   UNL     1      33.945  27.096  26.007  0.00  0.00    +0.000 C 
ENDBRANCH  10  17
ENDBRANCH   1  13
BRANCH   7  18
ATOM     18  O   UNL     1      26.359  23.315  27.309  0.00  0.00    +0.000 OA
BRANCH  18  19
ATOM     19  C   UNL     1      25.660  24.274  28.036  0.00  0.00    +0.000 C 
ATOM     20  C   UNL     1      25.927  24.135  29.502  0.00  0.00    +0.000 C 
ENDBRANCH  18  19
ENDBRANCH   7  18
TORSDOF 4
ENDMDL
