MODEL 1
REMARK VINA RESULT:      -7.8      0.000      0.000
REMARK  Name = 
REMARK  8 active torsions:
REMARK  status: ('A' for Active; 'I' for Inactive)
REMARK    1  A    between atoms: C_2  and  C_4
REMARK    2  A    between atoms: C_4  and  C_5
REMARK    3  A    between atoms: C_5  and  C_6
REMARK    4  A    between atoms: C_6  and  C_7
REMARK    5  A    between atoms: C_7  and  N_9
REMARK    6  A    between atoms: C_10  and  C_12
REMARK    7  A    between atoms: N_15  and  C_16
REMARK    8  A    between atoms: C_16  and  C_17
REMARK                            x       y       z     vdW  Elec       q    Type
REMARK                         _______ _______ _______ _____ _____    ______ ____
ROOT
ATOM      1  C   UNL     1      38.697   2.959  14.570  0.00  0.00    +0.000 A 
ATOM      2  C   UNL     1      37.341   2.897  14.816  0.00  0.00    +0.000 A 
ATOM      3  N   UNL     1      36.488   4.031  14.937  0.00  0.00    +0.000 NA
ATOM      4  N   UNL     1      37.027   1.594  14.910  0.00  0.00    +0.000 N 
ATOM      5  C   UNL     1      38.139   0.846  14.731  0.00  0.00    +0.000 A 
ATOM      6  N   UNL     1      38.379  -0.477  14.726  0.00  0.00    +0.000 NA
ATOM      7  C   UNL     1      39.630  -0.975  14.517  0.00  0.00    +0.000 A 
ATOM      8  C   UNL     1      39.866  -2.335  14.513  0.00  0.00    +0.000 A 
ATOM      9  C   UNL     1      41.132  -2.876  14.303  0.00  0.00    +0.000 A 
ATOM     10  C   UNL     1      42.192  -2.027  14.087  0.00  0.00    +0.000 A 
ATOM     11  C   UNL     1      41.960  -0.666  14.089  0.00  0.00    +0.000 A 
ATOM     12  C   UNL     1      40.698  -0.129  14.299  0.00  0.00    +0.000 A 
ATOM     13  N   UNL     1      40.465   1.199  14.303  0.00  0.00    +0.000 NA
ATOM     14  C   UNL     1      39.223   1.673  14.512  0.00  0.00    +0.000 A 
ENDROOT
BRANCH   1  16
ATOM     15  N   UNL     1      39.820   4.997  15.432  0.00  0.00    +0.000 NA
ATOM     16  C   UNL     1      39.498   4.163  14.395  0.00  0.00    +0.000 C 
ATOM     17  O   UNL     1      39.911   4.441  13.226  0.00  0.00    +0.000 OA
BRANCH  15  18
ATOM     18  C   UNL     1      40.680   6.288  15.224  0.00  0.00    +0.000 C 
ATOM     19  C   UNL     1      39.403   7.330  15.206  0.00  0.00    +0.000 C 
BRANCH  18  20
ATOM     20  C   UNL     1      40.983   6.530  16.829  0.00  0.00    +0.000 C 
BRANCH  20  21
ATOM     21  C   UNL     1      39.685   6.253  17.513  0.00  0.00    +0.000 C 
BRANCH  21  22
ATOM     22  C   UNL     1      39.770   5.659  18.864  0.00  0.00    +0.000 C 
BRANCH  22  24
ATOM     23  C   UNL     1      39.430   7.701  20.293  0.00  0.00    +0.000 C 
ATOM     24  C   UNL     1      40.214   6.496  19.971  0.00  0.00    +0.000 C 
ATOM     25  C   UNL     1      41.637   6.490  20.334  0.00  0.00    +0.000 C 
ENDBRANCH  22  24
ENDBRANCH  21  22
ENDBRANCH  20  21
ENDBRANCH  18  20
ENDBRANCH  15  18
ENDBRANCH   1  16
BRANCH   4  26
ATOM     26  C   UNL     1      35.681   1.127  15.166  0.00  0.00    +0.000 C 
BRANCH  26  27
ATOM     27  C   UNL     1      35.544   0.370  16.417  0.00  0.00    +0.000 A 
ATOM     28  C   UNL     1      35.084  -0.920  16.487  0.00  0.00    +0.000 A 
ATOM     29  C   UNL     1      34.988  -1.554  17.699  0.00  0.00    +0.000 A 
ATOM     30  C   UNL     1      35.350  -0.911  18.861  0.00  0.00    +0.000 A 
ATOM     31  C   UNL     1      35.816   0.387  18.821  0.00  0.00    +0.000 A 
ATOM     32  C   UNL     1      35.899   0.991  17.589  0.00  0.00    +0.000 A 
ENDBRANCH  26  27
ENDBRANCH   4  26
TORSDOF 8
ENDMDL
MODEL 2
REMARK VINA RESULT:      -7.8      2.911      7.740
REMARK  Name = 
REMARK  8 active torsions:
REMARK  status: ('A' for Active; 'I' for Inactive)
REMARK    1  A    between atoms: C_2  and  C_4
REMARK    2  A    between atoms: C_4  and  C_5
REMARK    3  A    between atoms: C_5  and  C_6
REMARK    4  A    between atoms: C_6  and  C_7
REMARK    5  A    between atoms: C_7  and  N_9
REMARK    6  A    between atoms: C_10  and  C_12
REMARK    7  A    between atoms: N_15  and  C_16
REMARK    8  A    between atoms: C_16  and  C_17
REMARK                            x       y       z     vdW  Elec       q    Type
REMARK                         _______ _______ _______ _____ _____    ______ ____
ROOT
ATOM      1  C   UNL     1      36.554   2.421  15.888  0.00  0.00    +0.000 A 
ATOM      2  C   UNL     1      36.521   2.365  14.510  0.00  0.00    +0.000 A 
ATOM      3  N   UNL     1      35.697   1.482  13.755  0.00  0.00    +0.000 NA
ATOM      4  N   UNL     1      37.395   3.284  14.067  0.00  0.00    +0.000 N 
ATOM      5  C   UNL     1      37.969   3.908  15.121  0.00  0.00    +0.000 A 
ATOM      6  N   UNL     1      38.889   4.882  15.237  0.00  0.00    +0.000 NA
ATOM      7  C   UNL     1      39.300   5.335  16.454  0.00  0.00    +0.000 A 
ATOM      8  C   UNL     1      40.244   6.336  16.563  0.00  0.00    +0.000 A 
ATOM      9  C   UNL     1      40.686   6.820  17.791  0.00  0.00    +0.000 A 
ATOM     10  C   UNL     1      40.164   6.286  18.945  0.00  0.00    +0.000 A 
ATOM     11  C   UNL     1      39.219   5.284  18.842  0.00  0.00    +0.000 A 
ATOM     12  C   UNL     1      38.779   4.803  17.616  0.00  0.00    +0.000 A 
ATOM     13  N   UNL     1      37.858   3.825  17.508  0.00  0.00    +0.000 NA
ATOM     14  C   UNL     1      37.464   3.391  16.297  0.00  0.00    +0.000 A 
ENDROOT
BRANCH   1  16
ATOM     15  N   UNL     1      36.338   0.631  17.593  0.00  0.00    +0.000 NA
ATOM     16  C   UNL     1      35.778   1.607  16.813  0.00  0.00    +0.000 C 
ATOM     17  O   UNL     1      34.528   1.821  16.892  0.00  0.00    +0.000 OA
BRANCH  15  18
ATOM     18  C   UNL     1      35.486  -0.235  18.580  0.00  0.00    +0.000 C 
ATOM     19  C   UNL     1      35.143  -1.426  17.493  0.00  0.00    +0.000 C 
BRANCH  18  20
ATOM     20  C   UNL     1      36.773  -1.050  19.217  0.00  0.00    +0.000 C 
BRANCH  20  21
ATOM     21  C   UNL     1      37.104  -2.100  18.208  0.00  0.00    +0.000 C 
BRANCH  21  22
ATOM     22  C   UNL     1      38.540  -2.308  17.926  0.00  0.00    +0.000 C 
BRANCH  22  24
ATOM     23  C   UNL     1      39.777  -3.087  15.879  0.00  0.00    +0.000 C 
ATOM     24  C   UNL     1      38.928  -3.399  17.042  0.00  0.00    +0.000 C 
ATOM     25  C   UNL     1      38.063  -4.582  16.957  0.00  0.00    +0.000 C 
ENDBRANCH  22  24
ENDBRANCH  21  22
ENDBRANCH  20  21
ENDBRANCH  18  20
ENDBRANCH  15  18
ENDBRANCH   1  16
BRANCH   4  26
ATOM     26  C   UNL     1      37.640   3.522  12.661  0.00  0.00    +0.000 C 
BRANCH  26  27
ATOM     27  C   UNL     1      36.793   4.572  12.080  0.00  0.00    +0.000 A 
ATOM     28  C   UNL     1      35.967   5.384  12.813  0.00  0.00    +0.000 A 
ATOM     29  C   UNL     1      35.209   6.342  12.189  0.00  0.00    +0.000 A 
ATOM     30  C   UNL     1      35.262   6.502  10.823  0.00  0.00    +0.000 A 
ATOM     31  C   UNL     1      36.084   5.699  10.060  0.00  0.00    +0.000 A 
ATOM     32  C   UNL     1      36.830   4.751  10.719  0.00  0.00    +0.000 A 
ENDBRANCH  26  27
ENDBRANCH   4  26
TORSDOF 8
ENDMDL
MODEL 3
REMARK VINA RESULT:      -7.7      2.217      7.302
REMARK  Name = 
REMARK  8 active torsions:
REMARK  status: ('A' for Active; 'I' for Inactive)
REMARK    1  A    between atoms: C_2  and  C_4
REMARK    2  A    between atoms: C_4  and  C_5
REMARK    3  A    between atoms: C_5  and  C_6
REMARK    4  A    between atoms: C_6  and  C_7
REMARK    5  A    between atoms: C_7  and  N_9
REMARK    6  A    between atoms: C_10  and  C_12
REMARK    7  A    between atoms: N_15  and  C_16
REMARK    8  A    between atoms: C_16  and  C_17
REMARK                            x       y       z     vdW  Elec       q    Type
REMARK                         _______ _______ _______ _____ _____    ______ ____
ROOT
ATOM      1  C   UNL     1      36.862   2.398  15.785  0.00  0.00    +0.000 A 
ATOM      2  C   UNL     1      37.023   2.195  14.430  0.00  0.00    +0.000 A 
ATOM      3  N   UNL     1      36.281   1.255  13.659  0.00  0.00    +0.000 NA
ATOM      4  N   UNL     1      37.985   3.042  14.026  0.00  0.00    +0.000 N 
ATOM      5  C   UNL     1      38.428   3.762  15.082  0.00  0.00    +0.000 A 
ATOM      6  N   UNL     1      39.358   4.722  15.229  0.00  0.00    +0.000 NA
ATOM      7  C   UNL     1      39.609   5.292  16.441  0.00  0.00    +0.000 A 
ATOM      8  C   UNL     1      40.565   6.277  16.581  0.00  0.00    +0.000 A 
ATOM      9  C   UNL     1      40.847   6.880  17.804  0.00  0.00    +0.000 A 
ATOM     10  C   UNL     1      40.147   6.484  18.920  0.00  0.00    +0.000 A 
ATOM     11  C   UNL     1      39.189   5.500  18.784  0.00  0.00    +0.000 A 
ATOM     12  C   UNL     1      38.910   4.900  17.563  0.00  0.00    +0.000 A 
ATOM     13  N   UNL     1      37.976   3.937  17.423  0.00  0.00    +0.000 NA
ATOM     14  C   UNL     1      37.741   3.385  16.220  0.00  0.00    +0.000 A 
ENDROOT
BRANCH   1  16
ATOM     15  N   UNL     1      36.313   0.678  17.488  0.00  0.00    +0.000 NA
ATOM     16  C   UNL     1      35.933   1.705  16.667  0.00  0.00    +0.000 C 
ATOM     17  O   UNL     1      34.719   2.080  16.666  0.00  0.00    +0.000 OA
BRANCH  15  18
ATOM     18  C   UNL     1      35.299  -0.056  18.426  0.00  0.00    +0.000 C 
ATOM     19  C   UNL     1      34.815  -1.163  17.306  0.00  0.00    +0.000 C 
BRANCH  18  20
ATOM     20  C   UNL     1      36.416  -1.071  19.095  0.00  0.00    +0.000 C 
BRANCH  20  21
ATOM     21  C   UNL     1      36.824  -1.982  17.984  0.00  0.00    +0.000 C 
BRANCH  21  22
ATOM     22  C   UNL     1      38.277  -2.112  17.744  0.00  0.00    +0.000 C 
BRANCH  22  24
ATOM     23  C   UNL     1      39.743  -3.228  16.032  0.00  0.00    +0.000 C 
ATOM     24  C   UNL     1      38.755  -2.189  16.370  0.00  0.00    +0.000 C 
ATOM     25  C   UNL     1      38.732  -0.974  15.545  0.00  0.00    +0.000 C 
ENDBRANCH  22  24
ENDBRANCH  21  22
ENDBRANCH  20  21
ENDBRANCH  18  20
ENDBRANCH  15  18
ENDBRANCH   1  16
BRANCH   4  26
ATOM     26  C   UNL     1      38.435   3.122  12.653  0.00  0.00    +0.000 C 
BRANCH  26  27
ATOM     27  C   UNL     1      39.194   1.946  12.208  0.00  0.00    +0.000 A 
ATOM     28  C   UNL     1      38.871   1.195  11.108  0.00  0.00    +0.000 A 
ATOM     29  C   UNL     1      39.636   0.110  10.762  0.00  0.00    +0.000 A 
ATOM     30  C   UNL     1      40.736  -0.242  11.511  0.00  0.00    +0.000 A 
ATOM     31  C   UNL     1      41.085   0.494  12.623  0.00  0.00    +0.000 A 
ATOM     32  C   UNL     1      40.296   1.574  12.939  0.00  0.00    +0.000 A 
ENDBRANCH  26  27
ENDBRANCH   4  26
TORSDOF 8
ENDMDL
MODEL 4
REMARK VINA RESULT:      -7.6      1.470      6.806
REMARK  Name = 
REMARK  8 active torsions:
REMARK  status: ('A' for Active; 'I' for Inactive)
REMARK    1  A    between atoms: C_2  and  C_4
REMARK    2  A    between atoms: C_4  and  C_5
REMARK    3  A    between atoms: C_5  and  C_6
REMARK    4  A    between atoms: C_6  and  C_7
REMARK    5  A    between atoms: C_7  and  N_9
REMARK    6  A    between atoms: C_10  and  C_12
REMARK    7  A    between atoms: N_15  and  C_16
REMARK    8  A    between atoms: C_16  and  C_17
REMARK                            x       y       z     vdW  Elec       q    Type
REMARK                         _______ _______ _______ _____ _____    ______ ____
ROOT
ATOM      1  C   UNL     1      39.640   2.306  13.987  0.00  0.00    +0.000 A 
ATOM      2  C   UNL     1      39.824   3.658  14.193  0.00  0.00    +0.000 A 
ATOM      3  N   UNL     1      40.865   4.433  13.606  0.00  0.00    +0.000 NA
ATOM      4  N   UNL     1      38.848   4.055  15.028  0.00  0.00    +0.000 N 
ATOM      5  C   UNL     1      38.067   2.999  15.347  0.00  0.00    +0.000 A 
ATOM      6  N   UNL     1      36.982   2.846  16.126  0.00  0.00    +0.000 NA
ATOM      7  C   UNL     1      36.375   1.636  16.276  0.00  0.00    +0.000 A 
ATOM      8  C   UNL     1      35.261   1.489  17.078  0.00  0.00    +0.000 A 
ATOM      9  C   UNL     1      34.618   0.267  17.253  0.00  0.00    +0.000 A 
ATOM     10  C   UNL     1      35.106  -0.842  16.603  0.00  0.00    +0.000 A 
ATOM     11  C   UNL     1      36.220  -0.701  15.800  0.00  0.00    +0.000 A 
ATOM     12  C   UNL     1      36.860   0.519  15.626  0.00  0.00    +0.000 A 
ATOM     13  N   UNL     1      37.948   0.664  14.844  0.00  0.00    +0.000 NA
ATOM     14  C   UNL     1      38.534   1.867  14.708  0.00  0.00    +0.000 A 
ENDROOT
BRANCH   1  16
ATOM     15  N   UNL     1      41.309   0.496  13.677  0.00  0.00    +0.000 NA
ATOM     16  C   UNL     1      40.456   1.432  13.156  0.00  0.00    +0.000 C 
ATOM     17  O   UNL     1      40.363   1.552  11.894  0.00  0.00    +0.000 OA
BRANCH  15  18
ATOM     18  C   UNL     1      42.180  -0.433  12.767  0.00  0.00    +0.000 C 
ATOM     19  C   UNL     1      43.625   0.233  13.195  0.00  0.00    +0.000 C 
BRANCH  18  20
ATOM     20  C   UNL     1      42.302  -1.655  13.870  0.00  0.00    +0.000 C 
BRANCH  20  21
ATOM     21  C   UNL     1      41.009  -1.633  14.616  0.00  0.00    +0.000 C 
BRANCH  21  22
ATOM     22  C   UNL     1      40.703  -2.829  15.430  0.00  0.00    +0.000 C 
BRANCH  22  24
ATOM     23  C   UNL     1      38.341  -3.030  14.586  0.00  0.00    +0.000 C 
ATOM     24  C   UNL     1      39.308  -3.160  15.690  0.00  0.00    +0.000 C 
ATOM     25  C   UNL     1      38.797  -3.038  17.062  0.00  0.00    +0.000 C 
ENDBRANCH  22  24
ENDBRANCH  21  22
ENDBRANCH  20  21
ENDBRANCH  18  20
ENDBRANCH  15  18
ENDBRANCH   1  16
BRANCH   4  26
ATOM     26  C   UNL     1      38.710   5.423  15.481  0.00  0.00    +0.000 C 
BRANCH  26  27
ATOM     27  C   UNL     1      39.374   5.694  16.762  0.00  0.00    +0.000 A 
ATOM     28  C   UNL     1      38.782   5.515  17.986  0.00  0.00    +0.000 A 
ATOM     29  C   UNL     1      39.475   5.792  19.136  0.00  0.00    +0.000 A 
ATOM     30  C   UNL     1      40.771   6.253  19.083  0.00  0.00    +0.000 A 
ATOM     31  C   UNL     1      41.393   6.443  17.866  0.00  0.00    +0.000 A 
ATOM     32  C   UNL     1      40.667   6.155  16.735  0.00  0.00    +0.000 A 
ENDBRANCH  26  27
ENDBRANCH   4  26
TORSDOF 8
ENDMDL
MODEL 5
REMARK VINA RESULT:      -7.5      3.121      7.585
REMARK  Name = 
REMARK  8 active torsions:
REMARK  status: ('A' for Active; 'I' for Inactive)
REMARK    1  A    between atoms: C_2  and  C_4
REMARK    2  A    between atoms: C_4  and  C_5
REMARK    3  A    between atoms: C_5  and  C_6
REMARK    4  A    between atoms: C_6  and  C_7
REMARK    5  A    between atoms: C_7  and  N_9
REMARK    6  A    between atoms: C_10  and  C_12
REMARK    7  A    between atoms: N_15  and  C_16
REMARK    8  A    between atoms: C_16  and  C_17
REMARK                            x       y       z     vdW  Elec       q    Type
REMARK                         _______ _______ _______ _____ _____    ______ ____
ROOT
ATOM      1  C   UNL     1      39.591  -1.184  15.159  0.00  0.00    +0.000 A 
ATOM      2  C   UNL     1      40.710  -1.744  14.577  0.00  0.00    +0.000 A 
ATOM      3  N   UNL     1      41.087  -3.113  14.700  0.00  0.00    +0.000 NA
ATOM      4  N   UNL     1      41.328  -0.759  13.905  0.00  0.00    +0.000 N 
ATOM      5  C   UNL     1      40.634   0.393  14.049  0.00  0.00    +0.000 A 
ATOM      6  N   UNL     1      40.808   1.647  13.597  0.00  0.00    +0.000 NA
ATOM      7  C   UNL     1      39.932   2.645  13.903  0.00  0.00    +0.000 A 
ATOM      8  C   UNL     1      40.119   3.928  13.433  0.00  0.00    +0.000 A 
ATOM      9  C   UNL     1      39.244   4.970  13.727  0.00  0.00    +0.000 A 
ATOM     10  C   UNL     1      38.146   4.716  14.515  0.00  0.00    +0.000 A 
ATOM     11  C   UNL     1      37.954   3.433  14.987  0.00  0.00    +0.000 A 
ATOM     12  C   UNL     1      38.828   2.395  14.692  0.00  0.00    +0.000 A 
ATOM     13  N   UNL     1      38.647   1.140  15.150  0.00  0.00    +0.000 NA
ATOM     14  C   UNL     1      39.523   0.168  14.838  0.00  0.00    +0.000 A 
ENDROOT
BRANCH   1  16
ATOM     15  N   UNL     1      38.510  -1.657  17.342  0.00  0.00    +0.000 NA
ATOM     16  C   UNL     1      38.609  -1.863  15.992  0.00  0.00    +0.000 C 
ATOM     17  O   UNL     1      37.812  -2.679  15.430  0.00  0.00    +0.000 OA
BRANCH  15  18
ATOM     18  C   UNL     1      37.448  -2.398  18.221  0.00  0.00    +0.000 C 
ATOM     19  C   UNL     1      38.545  -3.181  19.170  0.00  0.00    +0.000 C 
BRANCH  18  20
ATOM     20  C   UNL     1      37.251  -1.161  19.296  0.00  0.00    +0.000 C 
BRANCH  20  21
ATOM     21  C   UNL     1      35.924  -0.564  18.959  0.00  0.00    +0.000 C 
BRANCH  21  22
ATOM     22  C   UNL     1      35.951   0.715  18.219  0.00  0.00    +0.000 C 
BRANCH  22  24
ATOM     23  C   UNL     1      35.387  -0.268  15.973  0.00  0.00    +0.000 C 
ATOM     24  C   UNL     1      35.221   0.812  16.962  0.00  0.00    +0.000 C 
ATOM     25  C   UNL     1      34.845   2.141  16.463  0.00  0.00    +0.000 C 
ENDBRANCH  22  24
ENDBRANCH  21  22
ENDBRANCH  20  21
ENDBRANCH  18  20
ENDBRANCH  15  18
ENDBRANCH   1  16
BRANCH   4  26
ATOM     26  C   UNL     1      42.551  -0.964  13.159  0.00  0.00    +0.000 C 
BRANCH  26  27
ATOM     27  C   UNL     1      43.734  -1.170  14.005  0.00  0.00    +0.000 A 
ATOM     28  C   UNL     1      44.532  -2.283  13.950  0.00  0.00    +0.000 A 
ATOM     29  C   UNL     1      45.621  -2.395  14.777  0.00  0.00    +0.000 A 
ATOM     30  C   UNL     1      45.929  -1.396  15.672  0.00  0.00    +0.000 A 
ATOM     31  C   UNL     1      45.145  -0.264  15.750  0.00  0.00    +0.000 A 
ATOM     32  C   UNL     1      44.063  -0.187  14.906  0.00  0.00    +0.000 A 
ENDBRANCH  26  27
ENDBRANCH   4  26
TORSDOF 8
ENDMDL
MODEL 6
REMARK VINA RESULT:      -7.5      1.573      4.942
REMARK  Name = 
REMARK  8 active torsions:
REMARK  status: ('A' for Active; 'I' for Inactive)
REMARK    1  A    between atoms: C_2  and  C_4
REMARK    2  A    between atoms: C_4  and  C_5
REMARK    3  A    between atoms: C_5  and  C_6
REMARK    4  A    between atoms: C_6  and  C_7
REMARK    5  A    between atoms: C_7  and  N_9
REMARK    6  A    between atoms: C_10  and  C_12
REMARK    7  A    between atoms: N_15  and  C_16
REMARK    8  A    between atoms: C_16  and  C_17
REMARK                            x       y       z     vdW  Elec       q    Type
REMARK                         _______ _______ _______ _____ _____    ______ ____
ROOT
ATOM      1  C   UNL     1      38.177   2.700  15.052  0.00  0.00    +0.000 A 
ATOM      2  C   UNL     1      39.132   2.391  14.106  0.00  0.00    +0.000 A 
ATOM      3  N   UNL     1      40.072   3.318  13.571  0.00  0.00    +0.000 NA
ATOM      4  N   UNL     1      38.982   1.086  13.822  0.00  0.00    +0.000 N 
ATOM      5  C   UNL     1      37.968   0.575  14.557  0.00  0.00    +0.000 A 
ATOM      6  N   UNL     1      37.414  -0.646  14.656  0.00  0.00    +0.000 NA
ATOM      7  C   UNL     1      36.373  -0.891  15.499  0.00  0.00    +0.000 A 
ATOM      8  C   UNL     1      35.811  -2.148  15.594  0.00  0.00    +0.000 A 
ATOM      9  C   UNL     1      34.746  -2.431  16.445  0.00  0.00    +0.000 A 
ATOM     10  C   UNL     1      34.230  -1.424  17.226  0.00  0.00    +0.000 A 
ATOM     11  C   UNL     1      34.789  -0.165  17.135  0.00  0.00    +0.000 A 
ATOM     12  C   UNL     1      35.851   0.116  16.286  0.00  0.00    +0.000 A 
ATOM     13  N   UNL     1      36.401   1.343  16.191  0.00  0.00    +0.000 NA
ATOM     14  C   UNL     1      37.429   1.567  15.353  0.00  0.00    +0.000 A 
ENDROOT
BRANCH   1  16
ATOM     15  N   UNL     1      38.738   4.499  16.667  0.00  0.00    +0.000 NA
ATOM     16  C   UNL     1      37.948   4.001  15.667  0.00  0.00    +0.000 C 
ATOM     17  O   UNL     1      36.970   4.694  15.246  0.00  0.00    +0.000 OA
BRANCH  15  18
ATOM     18  C   UNL     1      38.474   5.898  17.317  0.00  0.00    +0.000 C 
ATOM     19  C   UNL     1      39.071   5.502  18.801  0.00  0.00    +0.000 C 
BRANCH  18  20
ATOM     20  C   UNL     1      39.895   6.570  16.814  0.00  0.00    +0.000 C 
BRANCH  20  21
ATOM     21  C   UNL     1      40.932   6.015  17.733  0.00  0.00    +0.000 C 
BRANCH  21  22
ATOM     22  C   UNL     1      42.306   6.534  17.562  0.00  0.00    +0.000 C 
BRANCH  22  24
ATOM     23  C   UNL     1      44.499   7.190  18.605  0.00  0.00    +0.000 C 
ATOM     24  C   UNL     1      43.054   6.937  18.744  0.00  0.00    +0.000 C 
ATOM     25  C   UNL     1      42.558   6.533  20.066  0.00  0.00    +0.000 C 
ENDBRANCH  22  24
ENDBRANCH  21  22
ENDBRANCH  20  21
ENDBRANCH  18  20
ENDBRANCH  15  18
ENDBRANCH   1  16
BRANCH   4  26
ATOM     26  C   UNL     1      39.813   0.390  12.862  0.00  0.00    +0.000 C 
BRANCH  26  27
ATOM     27  C   UNL     1      41.027  -0.196  13.443  0.00  0.00    +0.000 A 
ATOM     28  C   UNL     1      42.222   0.467  13.556  0.00  0.00    +0.000 A 
ATOM     29  C   UNL     1      43.309  -0.157  14.114  0.00  0.00    +0.000 A 
ATOM     30  C   UNL     1      43.220  -1.453  14.567  0.00  0.00    +0.000 A 
ATOM     31  C   UNL     1      42.031  -2.146  14.467  0.00  0.00    +0.000 A 
ATOM     32  C   UNL     1      40.963  -1.488  13.903  0.00  0.00    +0.000 A 
ENDBRANCH  26  27
ENDBRANCH   4  26
TORSDOF 8
ENDMDL
MODEL 7
REMARK VINA RESULT:      -7.5      1.694      6.104
REMARK  Name = 
REMARK  8 active torsions:
REMARK  status: ('A' for Active; 'I' for Inactive)
REMARK    1  A    between atoms: C_2  and  C_4
REMARK    2  A    between atoms: C_4  and  C_5
REMARK    3  A    between atoms: C_5  and  C_6
REMARK    4  A    between atoms: C_6  and  C_7
REMARK    5  A    between atoms: C_7  and  N_9
REMARK    6  A    between atoms: C_10  and  C_12
REMARK    7  A    between atoms: N_15  and  C_16
REMARK    8  A    between atoms: C_16  and  C_17
REMARK                            x       y       z     vdW  Elec       q    Type
REMARK                         _______ _______ _______ _____ _____    ______ ____
ROOT
ATOM      1  C   UNL     1      37.792   2.837  14.231  0.00  0.00    +0.000 A 
ATOM      2  C   UNL     1      36.643   2.196  14.647  0.00  0.00    +0.000 A 
ATOM      3  N   UNL     1      35.866   1.320  13.835  0.00  0.00    +0.000 NA
ATOM      4  N   UNL     1      36.436   2.566  15.922  0.00  0.00    +0.000 N 
ATOM      5  C   UNL     1      37.415   3.413  16.312  0.00  0.00    +0.000 A 
ATOM      6  N   UNL     1      37.679   4.064  17.459  0.00  0.00    +0.000 NA
ATOM      7  C   UNL     1      38.763   4.880  17.584  0.00  0.00    +0.000 A 
ATOM      8  C   UNL     1      39.026   5.543  18.765  0.00  0.00    +0.000 A 
ATOM      9  C   UNL     1      40.125   6.383  18.925  0.00  0.00    +0.000 A 
ATOM     10  C   UNL     1      40.987   6.562  17.869  0.00  0.00    +0.000 A 
ATOM     11  C   UNL     1      40.728   5.901  16.685  0.00  0.00    +0.000 A 
ATOM     12  C   UNL     1      39.632   5.063  16.527  0.00  0.00    +0.000 A 
ATOM     13  N   UNL     1      39.373   4.414  15.374  0.00  0.00    +0.000 NA
ATOM     14  C   UNL     1      38.298   3.613  15.269  0.00  0.00    +0.000 A 
ENDROOT
BRANCH   1  16
ATOM     15  N   UNL     1      38.975   1.597  12.438  0.00  0.00    +0.000 NA
ATOM     16  C   UNL     1      38.413   2.749  12.917  0.00  0.00    +0.000 C 
ATOM     17  O   UNL     1      38.427   3.793  12.193  0.00  0.00    +0.000 OA
BRANCH  15  18
ATOM     18  C   UNL     1      39.641   1.522  11.023  0.00  0.00    +0.000 C 
ATOM     19  C   UNL     1      41.191   1.654  11.568  0.00  0.00    +0.000 C 
BRANCH  18  20
ATOM     20  C   UNL     1      39.695  -0.127  10.967  0.00  0.00    +0.000 C 
BRANCH  20  21
ATOM     21  C   UNL     1      38.940  -0.580  12.173  0.00  0.00    +0.000 C 
BRANCH  21  22
ATOM     22  C   UNL     1      39.517  -1.720  12.916  0.00  0.00    +0.000 C 
BRANCH  22  24
ATOM     23  C   UNL     1      40.570  -2.592  15.028  0.00  0.00    +0.000 C 
ATOM     24  C   UNL     1      39.743  -1.580  14.348  0.00  0.00    +0.000 C 
ATOM     25  C   UNL     1      38.747  -0.860  15.153  0.00  0.00    +0.000 C 
ENDBRANCH  22  24
ENDBRANCH  21  22
ENDBRANCH  20  21
ENDBRANCH  18  20
ENDBRANCH  15  18
ENDBRANCH   1  16
BRANCH   4  26
ATOM     26  C   UNL     1      35.314   2.093  16.705  0.00  0.00    +0.000 C 
BRANCH  26  27
ATOM     27  C   UNL     1      35.538   0.784  17.331  0.00  0.00    +0.000 A 
ATOM     28  C   UNL     1      36.316   0.588  18.443  0.00  0.00    +0.000 A 
ATOM     29  C   UNL     1      36.471  -0.671  18.965  0.00  0.00    +0.000 A 
ATOM     30  C   UNL     1      35.853  -1.755  18.384  0.00  0.00    +0.000 A 
ATOM     31  C   UNL     1      35.064  -1.588  17.264  0.00  0.00    +0.000 A 
ATOM     32  C   UNL     1      34.932  -0.312  16.770  0.00  0.00    +0.000 A 
ENDBRANCH  26  27
ENDBRANCH   4  26
TORSDOF 8
ENDMDL
MODEL 8
REMARK VINA RESULT:      -7.4      2.942      8.357
REMARK  Name = 
REMARK  8 active torsions:
REMARK  status: ('A' for Active; 'I' for Inactive)
REMARK    1  A    between atoms: C_2  and  C_4
REMARK    2  A    between atoms: C_4  and  C_5
REMARK    3  A    between atoms: C_5  and  C_6
REMARK    4  A    between atoms: C_6  and  C_7
REMARK    5  A    between atoms: C_7  and  N_9
REMARK    6  A    between atoms: C_10  and  C_12
REMARK    7  A    between atoms: N_15  and  C_16
REMARK    8  A    between atoms: C_16  and  C_17
REMARK                            x       y       z     vdW  Elec       q    Type
REMARK                         _______ _______ _______ _____ _____    ______ ____
ROOT
ATOM      1  C   UNL     1      37.128   2.571  15.552  0.00  0.00    +0.000 A 
ATOM      2  C   UNL     1      36.627   2.895  14.308  0.00  0.00    +0.000 A 
ATOM      3  N   UNL     1      36.036   1.966  13.405  0.00  0.00    +0.000 NA
ATOM      4  N   UNL     1      36.814   4.217  14.152  0.00  0.00    +0.000 N 
ATOM      5  C   UNL     1      37.412   4.723  15.253  0.00  0.00    +0.000 A 
ATOM      6  N   UNL     1      37.815   5.956  15.610  0.00  0.00    +0.000 NA
ATOM      7  C   UNL     1      38.409   6.193  16.813  0.00  0.00    +0.000 A 
ATOM      8  C   UNL     1      38.818   7.461  17.170  0.00  0.00    +0.000 A 
ATOM      9  C   UNL     1      39.428   7.737  18.391  0.00  0.00    +0.000 A 
ATOM     10  C   UNL     1      39.631   6.710  19.282  0.00  0.00    +0.000 A 
ATOM     11  C   UNL     1      39.223   5.439  18.930  0.00  0.00    +0.000 A 
ATOM     12  C   UNL     1      38.615   5.166  17.712  0.00  0.00    +0.000 A 
ATOM     13  N   UNL     1      38.214   3.927  17.361  0.00  0.00    +0.000 NA
ATOM     14  C   UNL     1      37.630   3.712  16.168  0.00  0.00    +0.000 A 
ENDROOT
BRANCH   1  16
ATOM     15  N   UNL     1      36.353   0.906  17.221  0.00  0.00    +0.000 NA
ATOM     16  C   UNL     1      37.153   1.250  16.164  0.00  0.00    +0.000 C 
ATOM     17  O   UNL     1      37.954   0.386  15.687  0.00  0.00    +0.000 OA
BRANCH  15  18
ATOM     18  C   UNL     1      36.396  -0.519  17.867  0.00  0.00    +0.000 C 
ATOM     19  C   UNL     1      35.672  -0.076  19.280  0.00  0.00    +0.000 C 
BRANCH  18  20
ATOM     20  C   UNL     1      34.983  -1.036  17.189  0.00  0.00    +0.000 C 
BRANCH  20  21
ATOM     21  C   UNL     1      35.210  -2.478  16.874  0.00  0.00    +0.000 C 
BRANCH  21  22
ATOM     22  C   UNL     1      34.250  -3.104  15.940  0.00  0.00    +0.000 C 
BRANCH  22  24
ATOM     23  C   UNL     1      36.134  -4.081  14.589  0.00  0.00    +0.000 C 
ATOM     24  C   UNL     1      34.729  -4.136  15.031  0.00  0.00    +0.000 C 
ATOM     25  C   UNL     1      33.763  -4.806  14.150  0.00  0.00    +0.000 C 
ENDBRANCH  22  24
ENDBRANCH  21  22
ENDBRANCH  20  21
ENDBRANCH  18  20
ENDBRANCH  15  18
ENDBRANCH   1  16
BRANCH   4  26
ATOM     26  C   UNL     1      36.412   4.932  12.959  0.00  0.00    +0.000 C 
BRANCH  26  27
ATOM     27  C   UNL     1      35.643   6.153  13.230  0.00  0.00    +0.000 A 
ATOM     28  C   UNL     1      36.047   7.411  12.866  0.00  0.00    +0.000 A 
ATOM     29  C   UNL     1      35.265   8.500  13.159  0.00  0.00    +0.000 A 
ATOM     30  C   UNL     1      34.068   8.349  13.819  0.00  0.00    +0.000 A 
ATOM     31  C   UNL     1      33.635   7.095  14.197  0.00  0.00    +0.000 A 
ATOM     32  C   UNL     1      34.444   6.028  13.888  0.00  0.00    +0.000 A 
ENDBRANCH  26  27
ENDBRANCH   4  26
TORSDOF 8
ENDMDL
MODEL 9
REMARK VINA RESULT:      -7.3      2.243      2.650
REMARK  Name = 
REMARK  8 active torsions:
REMARK  status: ('A' for Active; 'I' for Inactive)
REMARK    1  A    between atoms: C_2  and  C_4
REMARK    2  A    between atoms: C_4  and  C_5
REMARK    3  A    between atoms: C_5  and  C_6
REMARK    4  A    between atoms: C_6  and  C_7
REMARK    5  A    between atoms: C_7  and  N_9
REMARK    6  A    between atoms: C_10  and  C_12
REMARK    7  A    between atoms: N_15  and  C_16
REMARK    8  A    between atoms: C_16  and  C_17
REMARK                            x       y       z     vdW  Elec       q    Type
REMARK                         _______ _______ _______ _____ _____    ______ ____
ROOT
ATOM      1  C   UNL     1      37.331   1.777  15.300  0.00  0.00    +0.000 A 
ATOM      2  C   UNL     1      36.593   0.993  16.163  0.00  0.00    +0.000 A 
ATOM      3  N   UNL     1      35.828   1.492  17.256  0.00  0.00    +0.000 NA
ATOM      4  N   UNL     1      36.753  -0.278  15.759  0.00  0.00    +0.000 N 
ATOM      5  C   UNL     1      37.562  -0.312  14.677  0.00  0.00    +0.000 A 
ATOM      6  N   UNL     1      38.035  -1.301  13.899  0.00  0.00    +0.000 NA
ATOM      7  C   UNL     1      38.859  -1.048  12.843  0.00  0.00    +0.000 A 
ATOM      8  C   UNL     1      39.339  -2.071  12.051  0.00  0.00    +0.000 A 
ATOM      9  C   UNL     1      40.182  -1.847  10.966  0.00  0.00    +0.000 A 
ATOM     10  C   UNL     1      40.553  -0.558  10.665  0.00  0.00    +0.000 A 
ATOM     11  C   UNL     1      40.075   0.469  11.455  0.00  0.00    +0.000 A 
ATOM     12  C   UNL     1      39.235   0.244  12.536  0.00  0.00    +0.000 A 
ATOM     13  N   UNL     1      38.765   1.241  13.312  0.00  0.00    +0.000 NA
ATOM     14  C   UNL     1      37.953   0.972  14.351  0.00  0.00    +0.000 A 
ENDROOT
BRANCH   1  16
ATOM     15  N   UNL     1      38.479   3.856  16.018  0.00  0.00    +0.000 NA
ATOM     16  C   UNL     1      37.470   3.226  15.340  0.00  0.00    +0.000 C 
ATOM     17  O   UNL     1      36.613   3.925  14.714  0.00  0.00    +0.000 OA
BRANCH  15  18
ATOM     18  C   UNL     1      38.611   5.415  16.052  0.00  0.00    +0.000 C 
ATOM     19  C   UNL     1      38.177   5.579  17.634  0.00  0.00    +0.000 C 
BRANCH  18  20
ATOM     20  C   UNL     1      40.226   5.424  16.390  0.00  0.00    +0.000 C 
BRANCH  20  21
ATOM     21  C   UNL     1      40.417   6.563  17.337  0.00  0.00    +0.000 C 
BRANCH  21  22
ATOM     22  C   UNL     1      41.559   6.455  18.270  0.00  0.00    +0.000 C 
BRANCH  22  24
ATOM     23  C   UNL     1      40.076   7.058  20.211  0.00  0.00    +0.000 C 
ATOM     24  C   UNL     1      41.291   6.399  19.700  0.00  0.00    +0.000 C 
ATOM     25  C   UNL     1      42.422   6.242  20.625  0.00  0.00    +0.000 C 
ENDBRANCH  22  24
ENDBRANCH  21  22
ENDBRANCH  20  21
ENDBRANCH  18  20
ENDBRANCH  15  18
ENDBRANCH   1  16
BRANCH   4  26
ATOM     26  C   UNL     1      36.125  -1.399  16.426  0.00  0.00    +0.000 C 
BRANCH  26  27
ATOM     27  C   UNL     1      36.991  -2.067  17.406  0.00  0.00    +0.000 A 
ATOM     28  C   UNL     1      37.884  -3.058  17.092  0.00  0.00    +0.000 A 
ATOM     29  C   UNL     1      38.657  -3.628  18.072  0.00  0.00    +0.000 A 
ATOM     30  C   UNL     1      38.548  -3.218  19.382  0.00  0.00    +0.000 A 
ATOM     31  C   UNL     1      37.657  -2.223  19.728  0.00  0.00    +0.000 A 
ATOM     32  C   UNL     1      36.900  -1.675  18.719  0.00  0.00    +0.000 A 
ENDBRANCH  26  27
ENDBRANCH   4  26
TORSDOF 8
ENDMDL
MODEL 10
REMARK VINA RESULT:      -7.3      2.224      6.600
REMARK  Name = 
REMARK  8 active torsions:
REMARK  status: ('A' for Active; 'I' for Inactive)
REMARK    1  A    between atoms: C_2  and  C_4
REMARK    2  A    between atoms: C_4  and  C_5
REMARK    3  A    between atoms: C_5  and  C_6
REMARK    4  A    between atoms: C_6  and  C_7
REMARK    5  A    between atoms: C_7  and  N_9
REMARK    6  A    between atoms: C_10  and  C_12
REMARK    7  A    between atoms: N_15  and  C_16
REMARK    8  A    between atoms: C_16  and  C_17
REMARK                            x       y       z     vdW  Elec       q    Type
REMARK                         _______ _______ _______ _____ _____    ______ ____
ROOT
ATOM      1  C   UNL     1      39.477   1.305  14.077  0.00  0.00    +0.000 A 
ATOM      2  C   UNL     1      39.534   2.682  14.138  0.00  0.00    +0.000 A 
ATOM      3  N   UNL     1      40.548   3.478  13.532  0.00  0.00    +0.000 NA
ATOM      4  N   UNL     1      38.471   3.079  14.857  0.00  0.00    +0.000 N 
ATOM      5  C   UNL     1      37.757   1.998  15.246  0.00  0.00    +0.000 A 
ATOM      6  N   UNL     1      36.633   1.835  15.967  0.00  0.00    +0.000 NA
ATOM      7  C   UNL     1      36.118   0.599  16.217  0.00  0.00    +0.000 A 
ATOM      8  C   UNL     1      34.965   0.442  16.957  0.00  0.00    +0.000 A 
ATOM      9  C   UNL     1      34.413  -0.807  17.230  0.00  0.00    +0.000 A 
ATOM     10  C   UNL     1      35.036  -1.932  16.745  0.00  0.00    +0.000 A 
ATOM     11  C   UNL     1      36.190  -1.780  16.003  0.00  0.00    +0.000 A 
ATOM     12  C   UNL     1      36.739  -0.534  15.731  0.00  0.00    +0.000 A 
ATOM     13  N   UNL     1      37.867  -0.379  15.008  0.00  0.00    +0.000 NA
ATOM     14  C   UNL     1      38.361   0.850  14.772  0.00  0.00    +0.000 A 
ENDROOT
BRANCH   1  16
ATOM     15  N   UNL     1      41.583  -0.004  13.990  0.00  0.00    +0.000 NA
ATOM     16  C   UNL     1      40.420   0.422  13.406  0.00  0.00    +0.000 C 
ATOM     17  O   UNL     1      40.141   0.034  12.229  0.00  0.00    +0.000 OA
BRANCH  15  18
ATOM     18  C   UNL     1      42.586  -0.952  13.251  0.00  0.00    +0.000 C 
ATOM     19  C   UNL     1      43.779   0.173  13.088  0.00  0.00    +0.000 C 
BRANCH  18  20
ATOM     20  C   UNL     1      43.237  -1.588  14.629  0.00  0.00    +0.000 C 
BRANCH  20  21
ATOM     21  C   UNL     1      44.695  -1.728  14.338  0.00  0.00    +0.000 C 
BRANCH  21  22
ATOM     22  C   UNL     1      45.588  -1.840  15.511  0.00  0.00    +0.000 C 
BRANCH  22  24
ATOM     23  C   UNL     1      45.552  -0.121  17.347  0.00  0.00    +0.000 C 
ATOM     24  C   UNL     1      46.137  -0.622  16.091  0.00  0.00    +0.000 C 
ATOM     25  C   UNL     1      46.787   0.353  15.205  0.00  0.00    +0.000 C 
ENDBRANCH  22  24
ENDBRANCH  21  22
ENDBRANCH  20  21
ENDBRANCH  18  20
ENDBRANCH  15  18
ENDBRANCH   1  16
BRANCH   4  26
ATOM     26  C   UNL     1      38.188   4.470  15.139  0.00  0.00    +0.000 C 
BRANCH  26  27
ATOM     27  C   UNL     1      38.872   4.984  16.333  0.00  0.00    +0.000 A 
ATOM     28  C   UNL     1      38.429   4.788  17.615  0.00  0.00    +0.000 A 
ATOM     29  C   UNL     1      39.131   5.304  18.675  0.00  0.00    +0.000 A 
ATOM     30  C   UNL     1      40.286   6.024  18.471  0.00  0.00    +0.000 A 
ATOM     31  C   UNL     1      40.756   6.238  17.191  0.00  0.00    +0.000 A 
ATOM     32  C   UNL     1      40.026   5.706  16.154  0.00  0.00    +0.000 A 
ENDBRANCH  26  27
ENDBRANCH   4  26
TORSDOF 8
ENDMDL
