MODEL 1
REMARK VINA RESULT:      -7.0      0.000      0.000
REMARK  Name = 
REMARK  4 active torsions:
REMARK  status: ('A' for Active; 'I' for Inactive)
REMARK    1  A    between atoms: C_4  and  O_5
REMARK    2  A    between atoms: O_5  and  C_6
REMARK    3  A    between atoms: C_6  and  N_7
REMARK    4  A    between atoms: C_16  and  C_17
REMARK                            x       y       z     vdW  Elec       q    Type
REMARK                         _______ _______ _______ _____ _____    ______ ____
ROOT
ATOM      1  C   UNL     1      16.236  10.664  31.668  0.00  0.00    +0.000 C 
ATOM      2  C   UNL     1      15.662  11.517  32.756  0.00  0.00    +0.000 A 
ATOM      3  C   UNL     1      15.935  11.279  34.090  0.00  0.00    +0.000 A 
ATOM      4  C   UNL     1      15.403  12.068  35.083  0.00  0.00    +0.000 A 
ATOM      5  C   UNL     1      14.587  13.104  34.678  0.00  0.00    +0.000 A 
ATOM      6  C   UNL     1      14.301  13.359  33.353  0.00  0.00    +0.000 A 
ATOM      7  C   UNL     1      14.838  12.566  32.371  0.00  0.00    +0.000 A 
ENDROOT
BRANCH   7   8
ATOM      8  C   UNL     1      14.569  12.789  30.908  0.00  0.00    +0.000 C 
ATOM      9  C   UNL     1      13.282  13.575  30.828  0.00  0.00    +0.000 C 
ATOM     10  C   UNL     1      15.689  13.697  30.409  0.00  0.00    +0.000 C 
ENDBRANCH   7   8
BRANCH   4  11
ATOM     11  O   UNL     1      15.662  11.847  36.422  0.00  0.00    +0.000 OA
BRANCH  11  12
ATOM     12  C   UNL     1      16.099  10.604  36.897  0.00  0.00    +0.000 C 
BRANCH  12  13
ATOM     13  N   UNL     1      17.529  10.529  37.116  0.00  0.00    +0.000 N 
ATOM     14  N   UNL     1      18.296  11.208  37.953  0.00  0.00    +0.000 NA
ATOM     15  C   UNL     1      19.576  10.837  37.846  0.00  0.00    +0.000 A 
ATOM     16  N   UNL     1      20.720  11.300  38.544  0.00  0.00    +0.000 NA
ATOM     17  C   UNL     1      19.607   9.862  36.879  0.00  0.00    +0.000 A 
ATOM     18  C   UNL     1      18.318   9.671  36.422  0.00  0.00    +0.000 A 
ATOM     19  C   UNL     1      17.911   8.702  35.370  0.00  0.00    +0.000 C 
ENDBRANCH  12  13
ENDBRANCH  11  12
ENDBRANCH   4  11
TORSDOF 4
ENDMDL
MODEL 2
REMARK VINA RESULT:      -6.0     17.996     20.036
REMARK  Name = 
REMARK  4 active torsions:
REMARK  status: ('A' for Active; 'I' for Inactive)
REMARK    1  A    between atoms: C_4  and  O_5
REMARK    2  A    between atoms: O_5  and  C_6
REMARK    3  A    between atoms: C_6  and  N_7
REMARK    4  A    between atoms: C_16  and  C_17
REMARK                            x       y       z     vdW  Elec       q    Type
REMARK                         _______ _______ _______ _____ _____    ______ ____
ROOT
ATOM      1  C   UNL     1      30.720  22.142  27.405  0.00  0.00    +0.000 C 
ATOM      2  C   UNL     1      29.288  22.576  27.353  0.00  0.00    +0.000 A 
ATOM      3  C   UNL     1      28.496  22.341  26.245  0.00  0.00    +0.000 A 
ATOM      4  C   UNL     1      27.181  22.743  26.205  0.00  0.00    +0.000 A 
ATOM      5  C   UNL     1      26.699  23.389  27.324  0.00  0.00    +0.000 A 
ATOM      6  C   UNL     1      27.472  23.634  28.439  0.00  0.00    +0.000 A 
ATOM      7  C   UNL     1      28.782  23.228  28.469  0.00  0.00    +0.000 A 
ENDROOT
BRANCH   7   8
ATOM      8  C   UNL     1      29.679  23.462  29.653  0.00  0.00    +0.000 C 
ATOM      9  C   UNL     1      29.536  24.922  30.013  0.00  0.00    +0.000 C 
ATOM     10  C   UNL     1      29.083  22.650  30.798  0.00  0.00    +0.000 C 
ENDBRANCH   7   8
BRANCH   4  11
ATOM     11  O   UNL     1      26.371  22.519  25.107  0.00  0.00    +0.000 OA
BRANCH  11  12
ATOM     12  C   UNL     1      25.985  23.556  24.249  0.00  0.00    +0.000 C 
BRANCH  12  13
ATOM     13  N   UNL     1      27.074  24.109  23.470  0.00  0.00    +0.000 N 
ATOM     14  N   UNL     1      27.731  23.594  22.443  0.00  0.00    +0.000 NA
ATOM     15  C   UNL     1      28.674  24.432  22.003  0.00  0.00    +0.000 A 
ATOM     16  N   UNL     1      29.599  24.285  20.938  0.00  0.00    +0.000 NA
ATOM     17  C   UNL     1      28.600  25.543  22.808  0.00  0.00    +0.000 A 
ATOM     18  C   UNL     1      27.592  25.335  23.730  0.00  0.00    +0.000 A 
ATOM     19  C   UNL     1      27.183  26.295  24.789  0.00  0.00    +0.000 C 
ENDBRANCH  12  13
ENDBRANCH  11  12
ENDBRANCH   4  11
TORSDOF 4
ENDMDL
MODEL 3
REMARK VINA RESULT:      -6.0     18.503     20.553
REMARK  Name = 
REMARK  4 active torsions:
REMARK  status: ('A' for Active; 'I' for Inactive)
REMARK    1  A    between atoms: C_4  and  O_5
REMARK    2  A    between atoms: O_5  and  C_6
REMARK    3  A    between atoms: C_6  and  N_7
REMARK    4  A    between atoms: C_16  and  C_17
REMARK                            x       y       z     vdW  Elec       q    Type
REMARK                         _______ _______ _______ _____ _____    ______ ____
ROOT
ATOM      1  C   UNL     1      29.329  23.162  30.343  0.00  0.00    +0.000 C 
ATOM      2  C   UNL     1      29.488  22.834  28.891  0.00  0.00    +0.000 A 
ATOM      3  C   UNL     1      28.400  22.738  28.043  0.00  0.00    +0.000 A 
ATOM      4  C   UNL     1      28.555  22.435  26.709  0.00  0.00    +0.000 A 
ATOM      5  C   UNL     1      29.846  22.235  26.267  0.00  0.00    +0.000 A 
ATOM      6  C   UNL     1      30.945  22.325  27.096  0.00  0.00    +0.000 A 
ATOM      7  C   UNL     1      30.779  22.628  28.424  0.00  0.00    +0.000 A 
ENDROOT
BRANCH   7   8
ATOM      8  C   UNL     1      31.932  22.743  29.382  0.00  0.00    +0.000 C 
ATOM      9  C   UNL     1      32.618  21.398  29.385  0.00  0.00    +0.000 C 
ATOM     10  C   UNL     1      32.898  23.745  28.757  0.00  0.00    +0.000 C 
ENDBRANCH   7   8
BRANCH   4  11
ATOM     11  O   UNL     1      27.482  22.334  25.844  0.00  0.00    +0.000 OA
BRANCH  11  12
ATOM     12  C   UNL     1      26.963  23.449  25.175  0.00  0.00    +0.000 C 
BRANCH  12  13
ATOM     13  N   UNL     1      27.860  24.009  24.184  0.00  0.00    +0.000 N 
ATOM     14  N   UNL     1      28.152  23.583  22.966  0.00  0.00    +0.000 NA
ATOM     15  C   UNL     1      29.034  24.391  22.369  0.00  0.00    +0.000 A 
ATOM     16  N   UNL     1      29.614  24.311  21.078  0.00  0.00    +0.000 NA
ATOM     17  C   UNL     1      29.308  25.386  23.276  0.00  0.00    +0.000 A 
ATOM     18  C   UNL     1      28.568  25.142  24.416  0.00  0.00    +0.000 A 
ATOM     19  C   UNL     1      28.573  25.983  25.643  0.00  0.00    +0.000 C 
ENDBRANCH  12  13
ENDBRANCH  11  12
ENDBRANCH   4  11
TORSDOF 4
ENDMDL
MODEL 4
REMARK VINA RESULT:      -6.0      1.583      1.939
REMARK  Name = 
REMARK  4 active torsions:
REMARK  status: ('A' for Active; 'I' for Inactive)
REMARK    1  A    between atoms: C_4  and  O_5
REMARK    2  A    between atoms: O_5  and  C_6
REMARK    3  A    between atoms: C_6  and  N_7
REMARK    4  A    between atoms: C_16  and  C_17
REMARK                            x       y       z     vdW  Elec       q    Type
REMARK                         _______ _______ _______ _____ _____    ______ ____
ROOT
ATOM      1  C   UNL     1      15.935  10.639  31.022  0.00  0.00    +0.000 C 
ATOM      2  C   UNL     1      15.746  11.169  32.409  0.00  0.00    +0.000 A 
ATOM      3  C   UNL     1      16.309  10.548  33.509  0.00  0.00    +0.000 A 
ATOM      4  C   UNL     1      16.131  11.041  34.781  0.00  0.00    +0.000 A 
ATOM      5  C   UNL     1      15.364  12.182  34.899  0.00  0.00    +0.000 A 
ATOM      6  C   UNL     1      14.792  12.816  33.815  0.00  0.00    +0.000 A 
ATOM      7  C   UNL     1      14.978  12.316  32.552  0.00  0.00    +0.000 A 
ENDROOT
BRANCH   7   8
ATOM      8  C   UNL     1      14.385  12.958  31.328  0.00  0.00    +0.000 C 
ATOM      9  C   UNL     1      13.428  14.016  31.823  0.00  0.00    +0.000 C 
ATOM     10  C   UNL     1      15.536  13.677  30.631  0.00  0.00    +0.000 C 
ENDBRANCH   7   8
BRANCH   4  11
ATOM     11  O   UNL     1      16.684  10.437  35.894  0.00  0.00    +0.000 OA
BRANCH  11  12
ATOM     12  C   UNL     1      17.197  11.183  36.962  0.00  0.00    +0.000 C 
BRANCH  12  13
ATOM     13  N   UNL     1      17.845  10.381  37.980  0.00  0.00    +0.000 N 
ATOM     14  N   UNL     1      19.093   9.950  38.055  0.00  0.00    +0.000 NA
ATOM     15  C   UNL     1      19.292   9.233  39.165  0.00  0.00    +0.000 A 
ATOM     16  N   UNL     1      20.465   8.591  39.637  0.00  0.00    +0.000 NA
ATOM     17  C   UNL     1      18.088   9.217  39.826  0.00  0.00    +0.000 A 
ATOM     18  C   UNL     1      17.180   9.939  39.077  0.00  0.00    +0.000 A 
ATOM     19  C   UNL     1      15.755  10.168  39.437  0.00  0.00    +0.000 C 
ENDBRANCH  12  13
ENDBRANCH  11  12
ENDBRANCH   4  11
TORSDOF 4
ENDMDL
MODEL 5
REMARK VINA RESULT:      -5.9     21.091     23.213
REMARK  Name = 
REMARK  4 active torsions:
REMARK  status: ('A' for Active; 'I' for Inactive)
REMARK    1  A    between atoms: C_4  and  O_5
REMARK    2  A    between atoms: O_5  and  C_6
REMARK    3  A    between atoms: C_6  and  N_7
REMARK    4  A    between atoms: C_16  and  C_17
REMARK                            x       y       z     vdW  Elec       q    Type
REMARK                         _______ _______ _______ _____ _____    ______ ____
ROOT
ATOM      1  C   UNL     1      24.322  -9.410  21.187  0.00  0.00    +0.000 C 
ATOM      2  C   UNL     1      24.159  -8.367  22.248  0.00  0.00    +0.000 A 
ATOM      3  C   UNL     1      22.913  -7.898  22.623  0.00  0.00    +0.000 A 
ATOM      4  C   UNL     1      22.772  -6.939  23.599  0.00  0.00    +0.000 A 
ATOM      5  C   UNL     1      23.933  -6.474  24.181  0.00  0.00    +0.000 A 
ATOM      6  C   UNL     1      25.185  -6.928  23.822  0.00  0.00    +0.000 A 
ATOM      7  C   UNL     1      25.314  -7.885  22.848  0.00  0.00    +0.000 A 
ENDROOT
BRANCH   7   8
ATOM      8  C   UNL     1      26.648  -8.424  22.410  0.00  0.00    +0.000 C 
ATOM      9  C   UNL     1      27.561  -7.232  22.261  0.00  0.00    +0.000 C 
ATOM     10  C   UNL     1      27.170  -9.253  23.579  0.00  0.00    +0.000 C 
ENDBRANCH   7   8
BRANCH   4  11
ATOM     11  O   UNL     1      21.537  -6.455  23.988  0.00  0.00    +0.000 OA
BRANCH  11  12
ATOM     12  C   UNL     1      21.153  -6.404  25.334  0.00  0.00    +0.000 C 
BRANCH  12  13
ATOM     13  N   UNL     1      19.828  -6.931  25.586  0.00  0.00    +0.000 N 
ATOM     14  N   UNL     1      19.312  -8.112  25.285  0.00  0.00    +0.000 NA
ATOM     15  C   UNL     1      18.044  -8.205  25.695  0.00  0.00    +0.000 A 
ATOM     16  N   UNL     1      17.126  -9.279  25.580  0.00  0.00    +0.000 NA
ATOM     17  C   UNL     1      17.750  -7.003  26.292  0.00  0.00    +0.000 A 
ATOM     18  C   UNL     1      18.874  -6.204  26.221  0.00  0.00    +0.000 A 
ATOM     19  C   UNL     1      18.982  -4.819  26.750  0.00  0.00    +0.000 C 
ENDBRANCH  12  13
ENDBRANCH  11  12
ENDBRANCH   4  11
TORSDOF 4
ENDMDL
MODEL 6
REMARK VINA RESULT:      -5.8     21.430     23.632
REMARK  Name = 
REMARK  4 active torsions:
REMARK  status: ('A' for Active; 'I' for Inactive)
REMARK    1  A    between atoms: C_4  and  O_5
REMARK    2  A    between atoms: O_5  and  C_6
REMARK    3  A    between atoms: C_6  and  N_7
REMARK    4  A    between atoms: C_16  and  C_17
REMARK                            x       y       z     vdW  Elec       q    Type
REMARK                         _______ _______ _______ _____ _____    ______ ____
ROOT
ATOM      1  C   UNL     1      32.215  27.273  25.537  0.00  0.00    +0.000 C 
ATOM      2  C   UNL     1      31.836  25.891  25.105  0.00  0.00    +0.000 A 
ATOM      3  C   UNL     1      30.540  25.570  24.745  0.00  0.00    +0.000 A 
ATOM      4  C   UNL     1      30.200  24.297  24.349  0.00  0.00    +0.000 A 
ATOM      5  C   UNL     1      31.217  23.364  24.331  0.00  0.00    +0.000 A 
ATOM      6  C   UNL     1      32.515  23.663  24.687  0.00  0.00    +0.000 A 
ATOM      7  C   UNL     1      32.843  24.936  25.079  0.00  0.00    +0.000 A 
ENDROOT
BRANCH   7   8
ATOM      8  C   UNL     1      34.238  25.329  25.479  0.00  0.00    +0.000 C 
ATOM      9  C   UNL     1      34.552  24.563  26.741  0.00  0.00    +0.000 C 
ATOM     10  C   UNL     1      35.155  24.795  24.382  0.00  0.00    +0.000 C 
ENDBRANCH   7   8
BRANCH   4  11
ATOM     11  O   UNL     1      28.912  23.954  23.986  0.00  0.00    +0.000 OA
BRANCH  11  12
ATOM     12  C   UNL     1      28.561  23.702  22.653  0.00  0.00    +0.000 C 
BRANCH  12  13
ATOM     13  N   UNL     1      28.817  24.813  21.760  0.00  0.00    +0.000 N 
ATOM     14  N   UNL     1      29.651  24.905  20.736  0.00  0.00    +0.000 NA
ATOM     15  C   UNL     1      29.586  26.111  20.166  0.00  0.00    +0.000 A 
ATOM     16  N   UNL     1      30.297  26.634  19.056  0.00  0.00    +0.000 NA
ATOM     17  C   UNL     1      28.649  26.818  20.880  0.00  0.00    +0.000 A 
ATOM     18  C   UNL     1      28.169  25.998  21.882  0.00  0.00    +0.000 A 
ATOM     19  C   UNL     1      27.137  26.376  22.885  0.00  0.00    +0.000 C 
ENDBRANCH  12  13
ENDBRANCH  11  12
ENDBRANCH   4  11
TORSDOF 4
ENDMDL
MODEL 7
REMARK VINA RESULT:      -5.8     18.154     20.176
REMARK  Name = 
REMARK  4 active torsions:
REMARK  status: ('A' for Active; 'I' for Inactive)
REMARK    1  A    between atoms: C_4  and  O_5
REMARK    2  A    between atoms: O_5  and  C_6
REMARK    3  A    between atoms: C_6  and  N_7
REMARK    4  A    between atoms: C_16  and  C_17
REMARK                            x       y       z     vdW  Elec       q    Type
REMARK                         _______ _______ _______ _____ _____    ______ ____
ROOT
ATOM      1  C   UNL     1      32.639  22.163  29.002  0.00  0.00    +0.000 C 
ATOM      2  C   UNL     1      31.175  22.384  28.781  0.00  0.00    +0.000 A 
ATOM      3  C   UNL     1      30.605  22.285  27.526  0.00  0.00    +0.000 A 
ATOM      4  C   UNL     1      29.258  22.490  27.331  0.00  0.00    +0.000 A 
ATOM      5  C   UNL     1      28.513  22.799  28.451  0.00  0.00    +0.000 A 
ATOM      6  C   UNL     1      29.061  22.903  29.711  0.00  0.00    +0.000 A 
ATOM      7  C   UNL     1      30.405  22.696  29.894  0.00  0.00    +0.000 A 
ENDROOT
BRANCH   7   8
ATOM      8  C   UNL     1      31.068  22.793  31.241  0.00  0.00    +0.000 C 
ATOM      9  C   UNL     1      30.681  24.138  31.808  0.00  0.00    +0.000 C 
ATOM     10  C   UNL     1      30.409  21.726  32.110  0.00  0.00    +0.000 C 
ENDBRANCH   7   8
BRANCH   4  11
ATOM     11  O   UNL     1      28.667  22.396  26.086  0.00  0.00    +0.000 OA
BRANCH  11  12
ATOM     12  C   UNL     1      27.843  23.410  25.579  0.00  0.00    +0.000 C 
BRANCH  12  13
ATOM     13  N   UNL     1      27.995  23.633  24.156  0.00  0.00    +0.000 N 
ATOM     14  N   UNL     1      29.076  23.931  23.454  0.00  0.00    +0.000 NA
ATOM     15  C   UNL     1      28.791  24.055  22.155  0.00  0.00    +0.000 A 
ATOM     16  N   UNL     1      29.638  24.364  21.061  0.00  0.00    +0.000 NA
ATOM     17  C   UNL     1      27.443  23.817  22.039  0.00  0.00    +0.000 A 
ATOM     18  C   UNL     1      26.946  23.553  23.301  0.00  0.00    +0.000 A 
ATOM     19  C   UNL     1      25.527  23.243  23.620  0.00  0.00    +0.000 C 
ENDBRANCH  12  13
ENDBRANCH  11  12
ENDBRANCH   4  11
TORSDOF 4
ENDMDL
MODEL 8
REMARK VINA RESULT:      -5.8     20.320     21.732
REMARK  Name = 
REMARK  4 active torsions:
REMARK  status: ('A' for Active; 'I' for Inactive)
REMARK    1  A    between atoms: C_4  and  O_5
REMARK    2  A    between atoms: O_5  and  C_6
REMARK    3  A    between atoms: C_6  and  N_7
REMARK    4  A    between atoms: C_16  and  C_17
REMARK                            x       y       z     vdW  Elec       q    Type
REMARK                         _______ _______ _______ _____ _____    ______ ____
ROOT
ATOM      1  C   UNL     1      28.159   3.949  15.952  0.00  0.00    +0.000 C 
ATOM      2  C   UNL     1      26.991   3.642  16.835  0.00  0.00    +0.000 A 
ATOM      3  C   UNL     1      26.369   2.408  16.818  0.00  0.00    +0.000 A 
ATOM      4  C   UNL     1      25.295   2.133  17.633  0.00  0.00    +0.000 A 
ATOM      5  C   UNL     1      24.876   3.151  18.465  0.00  0.00    +0.000 A 
ATOM      6  C   UNL     1      25.481   4.390  18.498  0.00  0.00    +0.000 A 
ATOM      7  C   UNL     1      26.552   4.652  17.681  0.00  0.00    +0.000 A 
ENDROOT
BRANCH   7   8
ATOM      8  C   UNL     1      27.258   5.980  17.667  0.00  0.00    +0.000 C 
ATOM      9  C   UNL     1      26.198   7.023  17.411  0.00  0.00    +0.000 C 
ATOM     10  C   UNL     1      27.775   6.194  19.087  0.00  0.00    +0.000 C 
ENDBRANCH   7   8
BRANCH   4  11
ATOM     11  O   UNL     1      24.658   0.907  17.632  0.00  0.00    +0.000 OA
BRANCH  11  12
ATOM     12  C   UNL     1      23.787   0.527  16.603  0.00  0.00    +0.000 C 
BRANCH  12  13
ATOM     13  N   UNL     1      22.504   1.199  16.643  0.00  0.00    +0.000 N 
ATOM     14  N   UNL     1      21.478   1.023  17.459  0.00  0.00    +0.000 NA
ATOM     15  C   UNL     1      20.473   1.852  17.160  0.00  0.00    +0.000 A 
ATOM     16  N   UNL     1      19.201   1.999  17.768  0.00  0.00    +0.000 NA
ATOM     17  C   UNL     1      20.903   2.595  16.087  0.00  0.00    +0.000 A 
ATOM     18  C   UNL     1      22.180   2.181  15.765  0.00  0.00    +0.000 A 
ATOM     19  C   UNL     1      23.011   2.730  14.660  0.00  0.00    +0.000 C 
ENDBRANCH  12  13
ENDBRANCH  11  12
ENDBRANCH   4  11
TORSDOF 4
ENDMDL
MODEL 9
REMARK VINA RESULT:      -5.8     19.553     21.665
REMARK  Name = 
REMARK  4 active torsions:
REMARK  status: ('A' for Active; 'I' for Inactive)
REMARK    1  A    between atoms: C_4  and  O_5
REMARK    2  A    between atoms: O_5  and  C_6
REMARK    3  A    between atoms: C_6  and  N_7
REMARK    4  A    between atoms: C_16  and  C_17
REMARK                            x       y       z     vdW  Elec       q    Type
REMARK                         _______ _______ _______ _____ _____    ______ ____
ROOT
ATOM      1  C   UNL     1      32.996  24.404  28.050  0.00  0.00    +0.000 C 
ATOM      2  C   UNL     1      32.239  23.939  26.845  0.00  0.00    +0.000 A 
ATOM      3  C   UNL     1      31.037  23.264  26.955  0.00  0.00    +0.000 A 
ATOM      4  C   UNL     1      30.348  22.840  25.842  0.00  0.00    +0.000 A 
ATOM      5  C   UNL     1      30.918  23.123  24.618  0.00  0.00    +0.000 A 
ATOM      6  C   UNL     1      32.115  23.793  24.486  0.00  0.00    +0.000 A 
ATOM      7  C   UNL     1      32.794  24.212  25.602  0.00  0.00    +0.000 A 
ENDROOT
BRANCH   7   8
ATOM      8  C   UNL     1      34.103  24.949  25.529  0.00  0.00    +0.000 C 
ATOM      9  C   UNL     1      34.918  24.264  24.459  0.00  0.00    +0.000 C 
ATOM     10  C   UNL     1      33.769  26.348  25.021  0.00  0.00    +0.000 C 
ENDBRANCH   7   8
BRANCH   4  11
ATOM     11  O   UNL     1      29.146  22.164  25.929  0.00  0.00    +0.000 OA
BRANCH  11  12
ATOM     12  C   UNL     1      27.923  22.839  26.039  0.00  0.00    +0.000 C 
BRANCH  12  13
ATOM     13  N   UNL     1      27.442  23.388  24.788  0.00  0.00    +0.000 N 
ATOM     14  N   UNL     1      26.882  22.781  23.754  0.00  0.00    +0.000 NA
ATOM     15  C   UNL     1      26.578  23.652  22.788  0.00  0.00    +0.000 A 
ATOM     16  N   UNL     1      25.974  23.437  21.523  0.00  0.00    +0.000 NA
ATOM     17  C   UNL     1      26.973  24.884  23.251  0.00  0.00    +0.000 A 
ATOM     18  C   UNL     1      27.516  24.713  24.509  0.00  0.00    +0.000 A 
ATOM     19  C   UNL     1      28.067  25.798  25.364  0.00  0.00    +0.000 C 
ENDBRANCH  12  13
ENDBRANCH  11  12
ENDBRANCH   4  11
TORSDOF 4
ENDMDL
MODEL 10
REMARK VINA RESULT:      -5.8     17.546     19.722
REMARK  Name = 
REMARK  4 active torsions:
REMARK  status: ('A' for Active; 'I' for Inactive)
REMARK    1  A    between atoms: C_4  and  O_5
REMARK    2  A    between atoms: O_5  and  C_6
REMARK    3  A    between atoms: C_6  and  N_7
REMARK    4  A    between atoms: C_16  and  C_17
REMARK                            x       y       z     vdW  Elec       q    Type
REMARK                         _______ _______ _______ _____ _____    ______ ____
ROOT
ATOM      1  C   UNL     1      24.640  25.142  27.582  0.00  0.00    +0.000 C 
ATOM      2  C   UNL     1      25.668  24.205  27.029  0.00  0.00    +0.000 A 
ATOM      3  C   UNL     1      25.784  23.969  25.672  0.00  0.00    +0.000 A 
ATOM      4  C   UNL     1      26.732  23.106  25.172  0.00  0.00    +0.000 A 
ATOM      5  C   UNL     1      27.556  22.492  26.093  0.00  0.00    +0.000 A 
ATOM      6  C   UNL     1      27.457  22.713  27.451  0.00  0.00    +0.000 A 
ATOM      7  C   UNL     1      26.508  23.576  27.938  0.00  0.00    +0.000 A 
ENDROOT
BRANCH   7   8
ATOM      8  C   UNL     1      26.347  23.862  29.406  0.00  0.00    +0.000 C 
ATOM      9  C   UNL     1      26.327  22.523  30.101  0.00  0.00    +0.000 C 
ATOM     10  C   UNL     1      27.623  24.579  29.836  0.00  0.00    +0.000 C 
ENDBRANCH   7   8
BRANCH   4  11
ATOM     11  O   UNL     1      26.865  22.855  23.819  0.00  0.00    +0.000 OA
BRANCH  11  12
ATOM     12  C   UNL     1      27.606  23.697  22.980  0.00  0.00    +0.000 C 
BRANCH  12  13
ATOM     13  N   UNL     1      28.903  24.062  23.512  0.00  0.00    +0.000 N 
ATOM     14  N   UNL     1      30.013  23.349  23.607  0.00  0.00    +0.000 NA
ATOM     15  C   UNL     1      30.999  24.061  24.163  0.00  0.00    +0.000 A 
ATOM     16  N   UNL     1      32.337  23.693  24.451  0.00  0.00    +0.000 NA
ATOM     17  C   UNL     1      30.467  25.299  24.431  0.00  0.00    +0.000 A 
ATOM     18  C   UNL     1      29.149  25.296  24.020  0.00  0.00    +0.000 A 
ATOM     19  C   UNL     1      28.210  26.443  24.130  0.00  0.00    +0.000 C 
ENDBRANCH  12  13
ENDBRANCH  11  12
ENDBRANCH   4  11
TORSDOF 4
ENDMDL
