MODEL 1
REMARK VINA RESULT:      -6.8      0.000      0.000
REMARK  Name = 
REMARK  3 active torsions:
REMARK  status: ('A' for Active; 'I' for Inactive)
REMARK    1  A    between atoms: C_2  and  C_12
REMARK    2  A    between atoms: N_3  and  C_4
REMARK    3  A    between atoms: C_14  and  N_15
REMARK                            x       y       z     vdW  Elec       q    Type
REMARK                         _______ _______ _______ _____ _____    ______ ____
ROOT
ATOM      1  O   UNL     1      18.552  11.222  38.174  0.00  0.00    +0.000 OA
ATOM      2  C   UNL     1      17.485  10.586  37.844  0.00  0.00    +0.000 C 
ATOM      3  N   UNL     1      17.120   9.548  38.746  0.00  0.00    +0.000 NA
ENDROOT
BRANCH   3   4
ATOM      4  C   UNL     1      17.876   9.239  39.912  0.00  0.00    +0.000 C 
ATOM      5  C   UNL     1      17.343   9.625  41.219  0.00  0.00    +0.000 C 
ATOM      6  C   UNL     1      16.215   8.768  41.735  0.00  0.00    +0.000 C 
ATOM      7  C   UNL     1      16.268   7.334  41.270  0.00  0.00    +0.000 C 
ATOM      8  C   UNL     1      17.190   6.604  42.241  0.00  0.00    +0.000 C 
ATOM      9  C   UNL     1      18.620   6.838  41.766  0.00  0.00    +0.000 C 
ATOM     10  C   UNL     1      18.556   6.847  40.253  0.00  0.00    +0.000 C 
ATOM     11  C   UNL     1      18.908   8.229  39.784  0.00  0.00    +0.000 C 
ENDBRANCH   3   4
BRANCH   2  12
ATOM     12  C   UNL     1      16.779  10.964  36.633  0.00  0.00    +0.000 A 
ATOM     13  C   UNL     1      15.698  11.830  36.657  0.00  0.00    +0.000 A 
ATOM     14  C   UNL     1      14.991  12.181  35.543  0.00  0.00    +0.000 A 
ATOM     15  C   UNL     1      15.388  11.635  34.326  0.00  0.00    +0.000 A 
ATOM     16  C   UNL     1      16.464  10.759  34.233  0.00  0.00    +0.000 A 
ATOM     17  C   UNL     1      17.142  10.438  35.381  0.00  0.00    +0.000 A 
ATOM     18 CL   UNL     1      18.524   9.351  35.381  0.00  0.00    +0.000 Cl
BRANCH  14  19
ATOM     19  N   UNL     1      13.862  13.050  35.567  0.00  0.00    +0.000 N 
ATOM     20  O   UNL     1      13.019  12.939  36.505  0.00  0.00    +0.000 OA
ATOM     21  O   UNL     1      13.643  14.022  34.629  0.00  0.00    +0.000 OA
ENDBRANCH  14  19
ENDBRANCH   2  12
TORSDOF 3
ENDMDL
MODEL 2
REMARK VINA RESULT:      -6.4      3.909      8.100
REMARK  Name = 
REMARK  3 active torsions:
REMARK  status: ('A' for Active; 'I' for Inactive)
REMARK    1  A    between atoms: C_2  and  C_12
REMARK    2  A    between atoms: N_3  and  C_4
REMARK    3  A    between atoms: C_14  and  N_15
REMARK                            x       y       z     vdW  Elec       q    Type
REMARK                         _______ _______ _______ _____ _____    ______ ____
ROOT
ATOM      1  O   UNL     1      19.512   8.835  40.441  0.00  0.00    +0.000 OA
ATOM      2  C   UNL     1      18.808   7.909  39.895  0.00  0.00    +0.000 C 
ATOM      3  N   UNL     1      18.188   8.289  38.672  0.00  0.00    +0.000 NA
ENDROOT
BRANCH   3   4
ATOM      4  C   UNL     1      18.333   9.587  38.105  0.00  0.00    +0.000 C 
ATOM      5  C   UNL     1      19.318   9.784  37.042  0.00  0.00    +0.000 C 
ATOM      6  C   UNL     1      18.925   9.248  35.689  0.00  0.00    +0.000 C 
ATOM      7  C   UNL     1      17.439   9.255  35.431  0.00  0.00    +0.000 C 
ATOM      8  C   UNL     1      17.103  10.649  34.912  0.00  0.00    +0.000 C 
ATOM      9  C   UNL     1      16.922  11.552  36.128  0.00  0.00    +0.000 C 
ATOM     10  C   UNL     1      16.271  10.689  37.189  0.00  0.00    +0.000 C 
ATOM     11  C   UNL     1      17.250  10.527  38.317  0.00  0.00    +0.000 C 
ENDBRANCH   3   4
BRANCH   2  12
ATOM     12  C   UNL     1      18.709   6.615  40.546  0.00  0.00    +0.000 A 
ATOM     13  C   UNL     1      19.480   5.535  40.148  0.00  0.00    +0.000 A 
ATOM     14  C   UNL     1      19.391   4.297  40.716  0.00  0.00    +0.000 A 
ATOM     15  C   UNL     1      18.474   4.124  41.748  0.00  0.00    +0.000 A 
ATOM     16  C   UNL     1      17.669   5.167  42.195  0.00  0.00    +0.000 A 
ATOM     17  C   UNL     1      17.798   6.391  41.592  0.00  0.00    +0.000 A 
ATOM     18 CL   UNL     1      16.842   7.782  42.083  0.00  0.00    +0.000 Cl
BRANCH  14  19
ATOM     19  N   UNL     1      20.163   3.178  40.291  0.00  0.00    +0.000 N 
ATOM     20  O   UNL     1      19.635   2.027  40.297  0.00  0.00    +0.000 OA
ATOM     21  O   UNL     1      21.456   3.280  39.856  0.00  0.00    +0.000 OA
ENDBRANCH  14  19
ENDBRANCH   2  12
TORSDOF 3
ENDMDL
MODEL 3
REMARK VINA RESULT:      -6.2     21.024     23.450
REMARK  Name = 
REMARK  3 active torsions:
REMARK  status: ('A' for Active; 'I' for Inactive)
REMARK    1  A    between atoms: C_2  and  C_12
REMARK    2  A    between atoms: N_3  and  C_4
REMARK    3  A    between atoms: C_14  and  N_15
REMARK                            x       y       z     vdW  Elec       q    Type
REMARK                         _______ _______ _______ _____ _____    ______ ____
ROOT
ATOM      1  O   UNL     1      32.214  -4.844  33.748  0.00  0.00    +0.000 OA
ATOM      2  C   UNL     1      33.292  -4.266  33.352  0.00  0.00    +0.000 C 
ATOM      3  N   UNL     1      33.937  -4.914  32.263  0.00  0.00    +0.000 NA
ENDROOT
BRANCH   3   4
ATOM      4  C   UNL     1      33.433  -6.104  31.665  0.00  0.00    +0.000 C 
ATOM      5  C   UNL     1      32.435  -5.989  30.603  0.00  0.00    +0.000 C 
ATOM      6  C   UNL     1      32.965  -5.553  29.261  0.00  0.00    +0.000 C 
ATOM      7  C   UNL     1      34.390  -5.973  28.996  0.00  0.00    +0.000 C 
ATOM      8  C   UNL     1      34.320  -7.392  28.442  0.00  0.00    +0.000 C 
ATOM      9  C   UNL     1      34.237  -8.338  29.635  0.00  0.00    +0.000 C 
ATOM     10  C   UNL     1      35.102  -7.720  30.713  0.00  0.00    +0.000 C 
ATOM     11  C   UNL     1      34.207  -7.316  31.849  0.00  0.00    +0.000 C 
ENDBRANCH   3   4
BRANCH   2  12
ATOM     12  C   UNL     1      33.736  -3.058  34.024  0.00  0.00    +0.000 A 
ATOM     13  C   UNL     1      33.581  -1.805  33.454  0.00  0.00    +0.000 A 
ATOM     14  C   UNL     1      34.016  -0.652  34.042  0.00  0.00    +0.000 A 
ATOM     15  C   UNL     1      34.646  -0.755  35.278  0.00  0.00    +0.000 A 
ATOM     16  C   UNL     1      34.835  -1.982  35.904  0.00  0.00    +0.000 A 
ATOM     17  C   UNL     1      34.379  -3.111  35.273  0.00  0.00    +0.000 A 
ATOM     18 CL   UNL     1      34.552  -4.713  35.975  0.00  0.00    +0.000 Cl
BRANCH  14  19
ATOM     19  N   UNL     1      33.882   0.635  33.446  0.00  0.00    +0.000 N 
ATOM     20  O   UNL     1      34.123   0.771  32.211  0.00  0.00    +0.000 OA
ATOM     21  O   UNL     1      33.487   1.745  34.142  0.00  0.00    +0.000 OA
ENDBRANCH  14  19
ENDBRANCH   2  12
TORSDOF 3
ENDMDL
MODEL 4
REMARK VINA RESULT:      -5.9     19.446     22.264
REMARK  Name = 
REMARK  3 active torsions:
REMARK  status: ('A' for Active; 'I' for Inactive)
REMARK    1  A    between atoms: C_2  and  C_12
REMARK    2  A    between atoms: N_3  and  C_4
REMARK    3  A    between atoms: C_14  and  N_15
REMARK                            x       y       z     vdW  Elec       q    Type
REMARK                         _______ _______ _______ _____ _____    ______ ____
ROOT
ATOM      1  O   UNL     1      25.500  23.332  25.507  0.00  0.00    +0.000 OA
ATOM      2  C   UNL     1      26.456  23.889  26.162  0.00  0.00    +0.000 C 
ATOM      3  N   UNL     1      27.442  24.507  25.344  0.00  0.00    +0.000 NA
ENDROOT
BRANCH   3   4
ATOM      4  C   UNL     1      27.377  24.504  23.921  0.00  0.00    +0.000 C 
ATOM      5  C   UNL     1      26.771  25.648  23.242  0.00  0.00    +0.000 C 
ATOM      6  C   UNL     1      27.620  26.893  23.190  0.00  0.00    +0.000 C 
ATOM      7  C   UNL     1      29.104  26.626  23.165  0.00  0.00    +0.000 C 
ATOM      8  C   UNL     1      29.470  26.385  21.704  0.00  0.00    +0.000 C 
ATOM      9  C   UNL     1      29.175  24.920  21.401  0.00  0.00    +0.000 C 
ATOM     10  C   UNL     1      29.523  24.159  22.664  0.00  0.00    +0.000 C 
ATOM     11  C   UNL     1      28.253  23.584  23.221  0.00  0.00    +0.000 C 
ENDBRANCH   3   4
BRANCH   2  12
ATOM     12  C   UNL     1      26.445  23.839  27.612  0.00  0.00    +0.000 A 
ATOM     13  C   UNL     1      25.652  24.687  28.368  0.00  0.00    +0.000 A 
ATOM     14  C   UNL     1      25.641  24.690  29.733  0.00  0.00    +0.000 A 
ATOM     15  C   UNL     1      26.474  23.789  30.388  0.00  0.00    +0.000 A 
ATOM     16  C   UNL     1      27.297  22.911  29.689  0.00  0.00    +0.000 A 
ATOM     17  C   UNL     1      27.270  22.947  28.319  0.00  0.00    +0.000 A 
ATOM     18 CL   UNL     1      28.257  21.877  27.334  0.00  0.00    +0.000 Cl
BRANCH  14  19
ATOM     19  N   UNL     1      24.846  25.579  30.513  0.00  0.00    +0.000 N 
ATOM     20  O   UNL     1      24.096  26.413  29.925  0.00  0.00    +0.000 OA
ATOM     21  O   UNL     1      24.837  25.572  31.881  0.00  0.00    +0.000 OA
ENDBRANCH  14  19
ENDBRANCH   2  12
TORSDOF 3
ENDMDL
MODEL 5
REMARK VINA RESULT:      -5.9     19.793     21.014
REMARK  Name = 
REMARK  3 active torsions:
REMARK  status: ('A' for Active; 'I' for Inactive)
REMARK    1  A    between atoms: C_2  and  C_12
REMARK    2  A    between atoms: N_3  and  C_4
REMARK    3  A    between atoms: C_14  and  N_15
REMARK                            x       y       z     vdW  Elec       q    Type
REMARK                         _______ _______ _______ _____ _____    ______ ____
ROOT
ATOM      1  O   UNL     1      24.980  27.185  26.666  0.00  0.00    +0.000 OA
ATOM      2  C   UNL     1      24.536  25.984  26.770  0.00  0.00    +0.000 C 
ATOM      3  N   UNL     1      23.254  25.885  27.379  0.00  0.00    +0.000 NA
ENDROOT
BRANCH   3   4
ATOM      4  C   UNL     1      22.528  27.022  27.837  0.00  0.00    +0.000 C 
ATOM      5  C   UNL     1      21.369  27.473  27.067  0.00  0.00    +0.000 C 
ATOM      6  C   UNL     1      20.127  26.632  27.217  0.00  0.00    +0.000 C 
ATOM      7  C   UNL     1      19.998  25.956  28.560  0.00  0.00    +0.000 C 
ATOM      8  C   UNL     1      19.350  26.976  29.490  0.00  0.00    +0.000 C 
ATOM      9  C   UNL     1      20.463  27.874  30.020  0.00  0.00    +0.000 C 
ATOM     10  C   UNL     1      21.670  26.976  30.196  0.00  0.00    +0.000 C 
ATOM     11  C   UNL     1      22.721  27.418  29.218  0.00  0.00    +0.000 C 
ENDBRANCH   3   4
BRANCH   2  12
ATOM     12  C   UNL     1      25.346  24.883  26.282  0.00  0.00    +0.000 A 
ATOM     13  C   UNL     1      25.453  24.596  24.931  0.00  0.00    +0.000 A 
ATOM     14  C   UNL     1      26.179  23.550  24.439  0.00  0.00    +0.000 A 
ATOM     15  C   UNL     1      26.842  22.737  25.352  0.00  0.00    +0.000 A 
ATOM     16  C   UNL     1      26.775  22.968  26.722  0.00  0.00    +0.000 A 
ATOM     17  C   UNL     1      26.033  24.032  27.166  0.00  0.00    +0.000 A 
ATOM     18 CL   UNL     1      25.887  24.427  28.873  0.00  0.00    +0.000 Cl
BRANCH  14  19
ATOM     19  N   UNL     1      26.270  23.237  23.052  0.00  0.00    +0.000 N 
ATOM     20  O   UNL     1      27.374  23.400  22.454  0.00  0.00    +0.000 OA
ATOM     21  O   UNL     1      25.219  22.750  22.323  0.00  0.00    +0.000 OA
ENDBRANCH  14  19
ENDBRANCH   2  12
TORSDOF 3
ENDMDL
MODEL 6
REMARK VINA RESULT:      -5.8     20.012     22.873
REMARK  Name = 
REMARK  3 active torsions:
REMARK  status: ('A' for Active; 'I' for Inactive)
REMARK    1  A    between atoms: C_2  and  C_12
REMARK    2  A    between atoms: N_3  and  C_4
REMARK    3  A    between atoms: C_14  and  N_15
REMARK                            x       y       z     vdW  Elec       q    Type
REMARK                         _______ _______ _______ _____ _____    ______ ____
ROOT
ATOM      1  O   UNL     1      26.285  23.245  25.033  0.00  0.00    +0.000 OA
ATOM      2  C   UNL     1      27.372  23.685  25.560  0.00  0.00    +0.000 C 
ATOM      3  N   UNL     1      28.106  24.575  24.728  0.00  0.00    +0.000 NA
ENDROOT
BRANCH   3   4
ATOM      4  C   UNL     1      27.675  24.942  23.421  0.00  0.00    +0.000 C 
ATOM      5  C   UNL     1      26.975  26.214  23.242  0.00  0.00    +0.000 C 
ATOM      6  C   UNL     1      27.846  27.443  23.288  0.00  0.00    +0.000 C 
ATOM      7  C   UNL     1      29.257  27.217  22.805  0.00  0.00    +0.000 C 
ATOM      8  C   UNL     1      29.218  27.372  21.288  0.00  0.00    +0.000 C 
ATOM      9  C   UNL     1      28.778  26.032  20.709  0.00  0.00    +0.000 C 
ATOM     10  C   UNL     1      29.400  24.974  21.597  0.00  0.00    +0.000 C 
ATOM     11  C   UNL     1      28.288  24.252  22.303  0.00  0.00    +0.000 C 
ENDBRANCH   3   4
BRANCH   2  12
ATOM     12  C   UNL     1      27.739  23.254  26.896  0.00  0.00    +0.000 A 
ATOM     13  C   UNL     1      26.823  23.232  27.935  0.00  0.00    +0.000 A 
ATOM     14  C   UNL     1      27.140  22.864  29.211  0.00  0.00    +0.000 A 
ATOM     15  C   UNL     1      28.456  22.492  29.468  0.00  0.00    +0.000 A 
ATOM     16  C   UNL     1      29.425  22.493  28.470  0.00  0.00    +0.000 A 
ATOM     17  C   UNL     1      29.055  22.871  27.205  0.00  0.00    +0.000 A 
ATOM     18 CL   UNL     1      30.193  22.898  25.865  0.00  0.00    +0.000 Cl
BRANCH  14  19
ATOM     19  N   UNL     1      26.206  22.866  30.287  0.00  0.00    +0.000 N 
ATOM     20  O   UNL     1      25.722  23.968  30.681  0.00  0.00    +0.000 OA
ATOM     21  O   UNL     1      25.786  21.727  30.917  0.00  0.00    +0.000 OA
ENDBRANCH  14  19
ENDBRANCH   2  12
TORSDOF 3
ENDMDL
MODEL 7
REMARK VINA RESULT:      -5.7     22.534     23.898
REMARK  Name = 
REMARK  3 active torsions:
REMARK  status: ('A' for Active; 'I' for Inactive)
REMARK    1  A    between atoms: C_2  and  C_12
REMARK    2  A    between atoms: N_3  and  C_4
REMARK    3  A    between atoms: C_14  and  N_15
REMARK                            x       y       z     vdW  Elec       q    Type
REMARK                         _______ _______ _______ _____ _____    ______ ____
ROOT
ATOM      1  O   UNL     1      24.545   3.426  14.839  0.00  0.00    +0.000 OA
ATOM      2  C   UNL     1      24.517   3.228  16.109  0.00  0.00    +0.000 C 
ATOM      3  N   UNL     1      25.517   3.934  16.833  0.00  0.00    +0.000 NA
ENDROOT
BRANCH   3   4
ATOM      4  C   UNL     1      26.470   4.785  16.203  0.00  0.00    +0.000 C 
ATOM      5  C   UNL     1      26.141   6.198  16.026  0.00  0.00    +0.000 C 
ATOM      6  C   UNL     1      26.226   7.043  17.271  0.00  0.00    +0.000 C 
ATOM      7  C   UNL     1      27.250   6.566  18.271  0.00  0.00    +0.000 C 
ATOM      8  C   UNL     1      28.581   7.172  17.839  0.00  0.00    +0.000 C 
ATOM      9  C   UNL     1      29.165   6.259  16.766  0.00  0.00    +0.000 C 
ATOM     10  C   UNL     1      28.785   4.850  17.172  0.00  0.00    +0.000 C 
ATOM     11  C   UNL     1      27.838   4.311  16.138  0.00  0.00    +0.000 C 
ENDBRANCH   3   4
BRANCH   2  12
ATOM     12  C   UNL     1      23.514   2.339  16.666  0.00  0.00    +0.000 A 
ATOM     13  C   UNL     1      22.245   2.783  16.996  0.00  0.00    +0.000 A 
ATOM     14  C   UNL     1      21.288   1.984  17.552  0.00  0.00    +0.000 A 
ATOM     15  C   UNL     1      21.617   0.654  17.793  0.00  0.00    +0.000 A 
ATOM     16  C   UNL     1      22.874   0.143  17.486  0.00  0.00    +0.000 A 
ATOM     17  C   UNL     1      23.800   0.987  16.929  0.00  0.00    +0.000 A 
ATOM     18 CL   UNL     1      25.415   0.450  16.489  0.00  0.00    +0.000 Cl
BRANCH  14  19
ATOM     19  N   UNL     1      19.990   2.444  17.917  0.00  0.00    +0.000 N 
ATOM     20  O   UNL     1      18.974   1.785  17.547  0.00  0.00    +0.000 OA
ATOM     21  O   UNL     1      19.778   3.567  18.670  0.00  0.00    +0.000 OA
ENDBRANCH  14  19
ENDBRANCH   2  12
TORSDOF 3
ENDMDL
MODEL 8
REMARK VINA RESULT:      -5.7     19.484     21.884
REMARK  Name = 
REMARK  3 active torsions:
REMARK  status: ('A' for Active; 'I' for Inactive)
REMARK    1  A    between atoms: C_2  and  C_12
REMARK    2  A    between atoms: N_3  and  C_4
REMARK    3  A    between atoms: C_14  and  N_15
REMARK                            x       y       z     vdW  Elec       q    Type
REMARK                         _______ _______ _______ _____ _____    ______ ____
ROOT
ATOM      1  O   UNL     1      28.060  21.605  27.096  0.00  0.00    +0.000 OA
ATOM      2  C   UNL     1      28.307  22.840  27.352  0.00  0.00    +0.000 C 
ATOM      3  N   UNL     1      28.379  23.673  26.201  0.00  0.00    +0.000 NA
ENDROOT
BRANCH   3   4
ATOM      4  C   UNL     1      28.199  23.177  24.878  0.00  0.00    +0.000 C 
ATOM      5  C   UNL     1      26.861  23.219  24.288  0.00  0.00    +0.000 C 
ATOM      6  C   UNL     1      26.399  24.579  23.830  0.00  0.00    +0.000 C 
ATOM      7  C   UNL     1      27.515  25.490  23.382  0.00  0.00    +0.000 C 
ATOM      8  C   UNL     1      27.779  25.152  21.918  0.00  0.00    +0.000 C 
ATOM      9  C   UNL     1      28.718  23.950  21.896  0.00  0.00    +0.000 C 
ATOM     10  C   UNL     1      29.655  24.136  23.072  0.00  0.00    +0.000 C 
ATOM     11  C   UNL     1      29.385  23.035  24.057  0.00  0.00    +0.000 C 
ENDBRANCH   3   4
BRANCH   2  12
ATOM     12  C   UNL     1      28.483  23.258  28.731  0.00  0.00    +0.000 A 
ATOM     13  C   UNL     1      27.434  23.762  29.483  0.00  0.00    +0.000 A 
ATOM     14  C   UNL     1      27.571  24.194  30.770  0.00  0.00    +0.000 A 
ATOM     15  C   UNL     1      28.835  24.118  31.347  0.00  0.00    +0.000 A 
ATOM     16  C   UNL     1      29.930  23.623  30.647  0.00  0.00    +0.000 A 
ATOM     17  C   UNL     1      29.741  23.202  29.357  0.00  0.00    +0.000 A 
ATOM     18 CL   UNL     1      31.049  22.547  28.382  0.00  0.00    +0.000 Cl
BRANCH  14  19
ATOM     19  N   UNL     1      26.500  24.738  31.537  0.00  0.00    +0.000 N 
ATOM     20  O   UNL     1      25.357  24.855  31.004  0.00  0.00    +0.000 OA
ATOM     21  O   UNL     1      26.636  25.131  32.840  0.00  0.00    +0.000 OA
ENDBRANCH  14  19
ENDBRANCH   2  12
TORSDOF 3
ENDMDL
MODEL 9
REMARK VINA RESULT:      -5.7     22.678     24.286
REMARK  Name = 
REMARK  3 active torsions:
REMARK  status: ('A' for Active; 'I' for Inactive)
REMARK    1  A    between atoms: C_2  and  C_12
REMARK    2  A    between atoms: N_3  and  C_4
REMARK    3  A    between atoms: C_14  and  N_15
REMARK                            x       y       z     vdW  Elec       q    Type
REMARK                         _______ _______ _______ _____ _____    ______ ____
ROOT
ATOM      1  O   UNL     1      24.419   2.075  15.147  0.00  0.00    +0.000 OA
ATOM      2  C   UNL     1      23.586   3.010  15.438  0.00  0.00    +0.000 C 
ATOM      3  N   UNL     1      24.170   4.131  16.089  0.00  0.00    +0.000 NA
ENDROOT
BRANCH   3   4
ATOM      4  C   UNL     1      25.558   4.208  16.396  0.00  0.00    +0.000 C 
ATOM      5  C   UNL     1      26.416   5.053  15.565  0.00  0.00    +0.000 C 
ATOM      6  C   UNL     1      26.292   6.536  15.806  0.00  0.00    +0.000 C 
ATOM      7  C   UNL     1      25.916   6.901  17.221  0.00  0.00    +0.000 C 
ATOM      8  C   UNL     1      27.219   6.941  18.011  0.00  0.00    +0.000 C 
ATOM      9  C   UNL     1      27.533   5.510  18.436  0.00  0.00    +0.000 C 
ATOM     10  C   UNL     1      26.194   4.865  18.733  0.00  0.00    +0.000 C 
ATOM     11  C   UNL     1      25.969   3.782  17.719  0.00  0.00    +0.000 C 
ENDBRANCH   3   4
BRANCH   2  12
ATOM     12  C   UNL     1      22.185   2.845  15.094  0.00  0.00    +0.000 A 
ATOM     13  C   UNL     1      21.275   2.289  15.978  0.00  0.00    +0.000 A 
ATOM     14  C   UNL     1      19.959   2.090  15.676  0.00  0.00    +0.000 A 
ATOM     15  C   UNL     1      19.521   2.469  14.411  0.00  0.00    +0.000 A 
ATOM     16  C   UNL     1      20.383   3.031  13.476  0.00  0.00    +0.000 A 
ATOM     17  C   UNL     1      21.696   3.211  13.828  0.00  0.00    +0.000 A 
ATOM     18 CL   UNL     1      22.871   3.923  12.732  0.00  0.00    +0.000 Cl
BRANCH  14  19
ATOM     19  N   UNL     1      19.026   1.494  16.573  0.00  0.00    +0.000 N 
ATOM     20  O   UNL     1      18.916   1.959  17.746  0.00  0.00    +0.000 OA
ATOM     21  O   UNL     1      18.220   0.444  16.229  0.00  0.00    +0.000 OA
ENDBRANCH  14  19
ENDBRANCH   2  12
TORSDOF 3
ENDMDL
MODEL 10
REMARK VINA RESULT:      -5.6     20.943     23.169
REMARK  Name = 
REMARK  3 active torsions:
REMARK  status: ('A' for Active; 'I' for Inactive)
REMARK    1  A    between atoms: C_2  and  C_12
REMARK    2  A    between atoms: N_3  and  C_4
REMARK    3  A    between atoms: C_14  and  N_15
REMARK                            x       y       z     vdW  Elec       q    Type
REMARK                         _______ _______ _______ _____ _____    ______ ____
ROOT
ATOM      1  O   UNL     1      26.487  27.101  25.812  0.00  0.00    +0.000 OA
ATOM      2  C   UNL     1      25.934  26.181  25.104  0.00  0.00    +0.000 C 
ATOM      3  N   UNL     1      24.516  26.134  25.211  0.00  0.00    +0.000 NA
ENDROOT
BRANCH   3   4
ATOM      4  C   UNL     1      23.775  27.027  26.036  0.00  0.00    +0.000 C 
ATOM      5  C   UNL     1      23.214  28.237  25.436  0.00  0.00    +0.000 C 
ATOM      6  C   UNL     1      21.990  28.027  24.581  0.00  0.00    +0.000 C 
ATOM      7  C   UNL     1      21.135  26.859  25.005  0.00  0.00    +0.000 C 
ATOM      8  C   UNL     1      20.210  27.382  26.099  0.00  0.00    +0.000 C 
ATOM      9  C   UNL     1      20.986  27.324  27.411  0.00  0.00    +0.000 C 
ATOM     10  C   UNL     1      21.843  26.078  27.328  0.00  0.00    +0.000 C 
ATOM     11  C   UNL     1      23.281  26.508  27.296  0.00  0.00    +0.000 C 
ENDBRANCH   3   4
BRANCH   2  12
ATOM     12  C   UNL     1      26.767  25.310  24.296  0.00  0.00    +0.000 A 
ATOM     13  C   UNL     1      27.434  25.771  23.172  0.00  0.00    +0.000 A 
ATOM     14  C   UNL     1      28.199  24.973  22.371  0.00  0.00    +0.000 A 
ATOM     15  C   UNL     1      28.309  23.629  22.713  0.00  0.00    +0.000 A 
ATOM     16  C   UNL     1      27.665  23.102  23.827  0.00  0.00    +0.000 A 
ATOM     17  C   UNL     1      26.908  23.944  24.599  0.00  0.00    +0.000 A 
ATOM     18 CL   UNL     1      26.060  23.391  26.037  0.00  0.00    +0.000 Cl
BRANCH  14  19
ATOM     19  N   UNL     1      28.864  25.438  21.200  0.00  0.00    +0.000 N 
ATOM     20  O   UNL     1      29.702  24.683  20.625  0.00  0.00    +0.000 OA
ATOM     21  O   UNL     1      28.632  26.667  20.645  0.00  0.00    +0.000 OA
ENDBRANCH  14  19
ENDBRANCH   2  12
TORSDOF 3
ENDMDL
