MODEL 1
REMARK VINA RESULT:      -6.2      0.000      0.000
REMARK  Name = 
REMARK  2 active torsions:
REMARK  status: ('A' for Active; 'I' for Inactive)
REMARK    1  A    between atoms: N_11  and  C_12
REMARK    2  A    between atoms: C_12  and  C_13
REMARK                            x       y       z     vdW  Elec       q    Type
REMARK                         _______ _______ _______ _____ _____    ______ ____
ROOT
ATOM      1  C   UNL     1      29.417  29.062  20.322  0.00  0.00    +0.000 C 
ATOM      2  C   UNL     1      28.748  29.332  21.622  0.00  0.00    +0.000 C 
ATOM      3  C   UNL     1      27.292  29.130  21.663  0.00  0.00    +0.000 C 
ATOM      4  C   UNL     1      26.814  27.847  22.230  0.00  0.00    +0.000 C 
ATOM      5  C   UNL     1      27.957  27.021  22.746  0.00  0.00    +0.000 C 
ATOM      6  C   UNL     1      28.735  27.932  23.704  0.00  0.00    +0.000 C 
ATOM      7  C   UNL     1      29.510  28.888  22.828  0.00  0.00    +0.000 C 
ATOM      8  N   UNL     1      28.883  26.655  21.700  0.00  0.00    +0.000 NA
ATOM      9  C   UNL     1      28.990  25.247  21.704  0.00  0.00    +0.000 C 
ATOM     10  O   UNL     1      29.707  24.548  20.908  0.00  0.00    +0.000 OA
ATOM     11  N   UNL     1      28.182  24.697  22.725  0.00  0.00    +0.000 N 
ATOM     12  C   UNL     1      27.545  25.777  23.389  0.00  0.00    +0.000 C 
ATOM     13  O   UNL     1      26.758  25.705  24.365  0.00  0.00    +0.000 OA
ENDROOT
BRANCH  11  14
ATOM     14  C   UNL     1      28.020  23.267  23.053  0.00  0.00    +0.000 C 
BRANCH  14  15
ATOM     15  C   UNL     1      28.796  22.959  24.289  0.00  0.00    +0.000 A 
ATOM     16  C   UNL     1      30.173  22.929  24.227  0.00  0.00    +0.000 A 
ATOM     17  C   UNL     1      30.975  22.655  25.313  0.00  0.00    +0.000 A 
ATOM     18  C   UNL     1      30.383  22.396  26.526  0.00  0.00    +0.000 A 
ATOM     19  C   UNL     1      29.008  22.425  26.591  0.00  0.00    +0.000 A 
ATOM     20  C   UNL     1      28.213  22.703  25.491  0.00  0.00    +0.000 A 
ATOM     21  F   UNL     1      26.863  22.729  25.565  0.00  0.00    +0.000 F 
ENDBRANCH  14  15
ENDBRANCH  11  14
TORSDOF 2
ENDMDL
MODEL 2
REMARK VINA RESULT:      -6.0      3.828      5.949
REMARK  Name = 
REMARK  2 active torsions:
REMARK  status: ('A' for Active; 'I' for Inactive)
REMARK    1  A    between atoms: N_11  and  C_12
REMARK    2  A    between atoms: C_12  and  C_13
REMARK                            x       y       z     vdW  Elec       q    Type
REMARK                         _______ _______ _______ _____ _____    ______ ____
ROOT
ATOM      1  C   UNL     1      32.119  25.448  25.323  0.00  0.00    +0.000 C 
ATOM      2  C   UNL     1      32.123  24.001  25.664  0.00  0.00    +0.000 C 
ATOM      3  C   UNL     1      31.925  23.663  27.082  0.00  0.00    +0.000 C 
ATOM      4  C   UNL     1      30.557  23.263  27.486  0.00  0.00    +0.000 C 
ATOM      5  C   UNL     1      29.636  23.201  26.301  0.00  0.00    +0.000 C 
ATOM      6  C   UNL     1      30.329  22.290  25.279  0.00  0.00    +0.000 C 
ATOM      7  C   UNL     1      31.439  23.117  24.674  0.00  0.00    +0.000 C 
ATOM      8  N   UNL     1      29.485  24.484  25.657  0.00  0.00    +0.000 NA
ATOM      9  C   UNL     1      28.106  24.782  25.627  0.00  0.00    +0.000 C 
ATOM     10  O   UNL     1      27.579  25.844  25.147  0.00  0.00    +0.000 OA
ATOM     11  N   UNL     1      27.364  23.730  26.210  0.00  0.00    +0.000 N 
ATOM     12  C   UNL     1      28.290  22.737  26.622  0.00  0.00    +0.000 C 
ATOM     13  O   UNL     1      28.026  21.638  27.170  0.00  0.00    +0.000 OA
ENDROOT
BRANCH  11  14
ATOM     14  C   UNL     1      25.898  23.661  26.369  0.00  0.00    +0.000 C 
BRANCH  14  15
ATOM     15  C   UNL     1      25.502  24.437  27.580  0.00  0.00    +0.000 A 
ATOM     16  C   UNL     1      26.006  24.066  28.809  0.00  0.00    +0.000 A 
ATOM     17  C   UNL     1      25.700  24.719  29.983  0.00  0.00    +0.000 A 
ATOM     18  C   UNL     1      24.849  25.797  29.939  0.00  0.00    +0.000 A 
ATOM     19  C   UNL     1      24.343  26.170  28.713  0.00  0.00    +0.000 A 
ATOM     20  C   UNL     1      24.660  25.504  27.541  0.00  0.00    +0.000 A 
ATOM     21  F   UNL     1      24.159  25.878  26.341  0.00  0.00    +0.000 F 
ENDBRANCH  14  15
ENDBRANCH  11  14
TORSDOF 2
ENDMDL
MODEL 3
REMARK VINA RESULT:      -6.0      2.889      4.293
REMARK  Name = 
REMARK  2 active torsions:
REMARK  status: ('A' for Active; 'I' for Inactive)
REMARK    1  A    between atoms: N_11  and  C_12
REMARK    2  A    between atoms: C_12  and  C_13
REMARK                            x       y       z     vdW  Elec       q    Type
REMARK                         _______ _______ _______ _____ _____    ______ ____
ROOT
ATOM      1  C   UNL     1      29.434  26.442  22.469  0.00  0.00    +0.000 C 
ATOM      2  C   UNL     1      27.969  26.196  22.406  0.00  0.00    +0.000 C 
ATOM      3  C   UNL     1      27.547  24.924  21.801  0.00  0.00    +0.000 C 
ATOM      4  C   UNL     1      27.206  23.824  22.734  0.00  0.00    +0.000 C 
ATOM      5  C   UNL     1      27.284  24.279  24.163  0.00  0.00    +0.000 C 
ATOM      6  C   UNL     1      26.405  25.533  24.252  0.00  0.00    +0.000 C 
ATOM      7  C   UNL     1      27.201  26.643  23.606  0.00  0.00    +0.000 C 
ATOM      8  N   UNL     1      28.616  24.696  24.533  0.00  0.00    +0.000 NA
ATOM      9  C   UNL     1      29.000  23.932  25.656  0.00  0.00    +0.000 C 
ATOM     10  O   UNL     1      30.124  24.005  26.263  0.00  0.00    +0.000 OA
ATOM     11  N   UNL     1      27.959  23.054  26.033  0.00  0.00    +0.000 N 
ATOM     12  C   UNL     1      26.884  23.262  25.130  0.00  0.00    +0.000 C 
ATOM     13  O   UNL     1      25.768  22.685  25.139  0.00  0.00    +0.000 OA
ENDROOT
BRANCH  11  14
ATOM     14  C   UNL     1      27.971  22.094  27.154  0.00  0.00    +0.000 C 
BRANCH  14  15
ATOM     15  C   UNL     1      27.664  22.820  28.420  0.00  0.00    +0.000 A 
ATOM     16  C   UNL     1      26.382  23.276  28.640  0.00  0.00    +0.000 A 
ATOM     17  C   UNL     1      26.002  23.955  29.776  0.00  0.00    +0.000 A 
ATOM     18  C   UNL     1      26.942  24.197  30.749  0.00  0.00    +0.000 A 
ATOM     19  C   UNL     1      28.225  23.743  30.533  0.00  0.00    +0.000 A 
ATOM     20  C   UNL     1      28.593  23.061  29.386  0.00  0.00    +0.000 A 
ATOM     21  F   UNL     1      29.855  22.618  29.182  0.00  0.00    +0.000 F 
ENDBRANCH  14  15
ENDBRANCH  11  14
TORSDOF 2
ENDMDL
MODEL 4
REMARK VINA RESULT:      -5.9      2.053      3.234
REMARK  Name = 
REMARK  2 active torsions:
REMARK  status: ('A' for Active; 'I' for Inactive)
REMARK    1  A    between atoms: N_11  and  C_12
REMARK    2  A    between atoms: C_12  and  C_13
REMARK                            x       y       z     vdW  Elec       q    Type
REMARK                         _______ _______ _______ _____ _____    ______ ____
ROOT
ATOM      1  C   UNL     1      27.690  28.959  22.666  0.00  0.00    +0.000 C 
ATOM      2  C   UNL     1      28.269  27.902  21.795  0.00  0.00    +0.000 C 
ATOM      3  C   UNL     1      29.444  27.191  22.324  0.00  0.00    +0.000 C 
ATOM      4  C   UNL     1      29.197  25.870  22.948  0.00  0.00    +0.000 C 
ATOM      5  C   UNL     1      27.753  25.474  22.832  0.00  0.00    +0.000 C 
ATOM      6  C   UNL     1      27.405  25.591  21.342  0.00  0.00    +0.000 C 
ATOM      7  C   UNL     1      27.269  27.069  21.063  0.00  0.00    +0.000 C 
ATOM      8  N   UNL     1      26.877  26.393  23.521  0.00  0.00    +0.000 NA
ATOM      9  C   UNL     1      26.118  25.640  24.442  0.00  0.00    +0.000 C 
ATOM     10  O   UNL     1      25.242  26.107  25.249  0.00  0.00    +0.000 OA
ATOM     11  N   UNL     1      26.460  24.271  24.358  0.00  0.00    +0.000 N 
ATOM     12  C   UNL     1      27.459  24.146  23.359  0.00  0.00    +0.000 C 
ATOM     13  O   UNL     1      28.014  23.087  22.974  0.00  0.00    +0.000 OA
ENDROOT
BRANCH  11  14
ATOM     14  C   UNL     1      25.892  23.165  25.153  0.00  0.00    +0.000 C 
BRANCH  14  15
ATOM     15  C   UNL     1      26.634  23.060  26.443  0.00  0.00    +0.000 A 
ATOM     16  C   UNL     1      27.843  22.397  26.469  0.00  0.00    +0.000 A 
ATOM     17  C   UNL     1      28.602  22.249  27.609  0.00  0.00    +0.000 A 
ATOM     18  C   UNL     1      28.140  22.784  28.787  0.00  0.00    +0.000 A 
ATOM     19  C   UNL     1      26.932  23.446  28.765  0.00  0.00    +0.000 A 
ATOM     20  C   UNL     1      26.180  23.589  27.611  0.00  0.00    +0.000 A 
ATOM     21  F   UNL     1      24.995  24.242  27.598  0.00  0.00    +0.000 F 
ENDBRANCH  14  15
ENDBRANCH  11  14
TORSDOF 2
ENDMDL
MODEL 5
REMARK VINA RESULT:      -5.9      0.949      2.310
REMARK  Name = 
REMARK  2 active torsions:
REMARK  status: ('A' for Active; 'I' for Inactive)
REMARK    1  A    between atoms: N_11  and  C_12
REMARK    2  A    between atoms: C_12  and  C_13
REMARK                            x       y       z     vdW  Elec       q    Type
REMARK                         _______ _______ _______ _____ _____    ______ ____
ROOT
ATOM      1  C   UNL     1      26.784  29.521  23.166  0.00  0.00    +0.000 C 
ATOM      2  C   UNL     1      27.474  29.232  21.881  0.00  0.00    +0.000 C 
ATOM      3  C   UNL     1      28.932  29.056  21.949  0.00  0.00    +0.000 C 
ATOM      4  C   UNL     1      29.433  27.662  21.978  0.00  0.00    +0.000 C 
ATOM      5  C   UNL     1      28.309  26.676  21.841  0.00  0.00    +0.000 C 
ATOM      6  C   UNL     1      27.541  27.089  20.579  0.00  0.00    +0.000 C 
ATOM      7  C   UNL     1      26.740  28.311  20.963  0.00  0.00    +0.000 C 
ATOM      8  N   UNL     1      27.366  26.767  22.932  0.00  0.00    +0.000 NA
ATOM      9  C   UNL     1      27.273  25.486  23.517  0.00  0.00    +0.000 C 
ATOM     10  O   UNL     1      26.548  25.172  24.523  0.00  0.00    +0.000 OA
ATOM     11  N   UNL     1      28.106  24.572  22.832  0.00  0.00    +0.000 N 
ATOM     12  C   UNL     1      28.745  25.284  21.785  0.00  0.00    +0.000 C 
ATOM     13  O   UNL     1      29.551  24.823  20.939  0.00  0.00    +0.000 OA
ENDROOT
BRANCH  11  14
ATOM     14  C   UNL     1      28.288  23.139  23.137  0.00  0.00    +0.000 C 
BRANCH  14  15
ATOM     15  C   UNL     1      29.189  23.002  24.318  0.00  0.00    +0.000 A 
ATOM     16  C   UNL     1      30.532  23.277  24.174  0.00  0.00    +0.000 A 
ATOM     17  C   UNL     1      31.441  23.181  25.204  0.00  0.00    +0.000 A 
ATOM     18  C   UNL     1      30.998  22.790  26.444  0.00  0.00    +0.000 A 
ATOM     19  C   UNL     1      29.657  22.514  26.592  0.00  0.00    +0.000 A 
ATOM     20  C   UNL     1      28.753  22.616  25.548  0.00  0.00    +0.000 A 
ATOM     21  F   UNL     1      27.437  22.343  25.702  0.00  0.00    +0.000 F 
ENDBRANCH  14  15
ENDBRANCH  11  14
TORSDOF 2
ENDMDL
MODEL 6
REMARK VINA RESULT:      -5.8      1.741      2.599
REMARK  Name = 
REMARK  2 active torsions:
REMARK  status: ('A' for Active; 'I' for Inactive)
REMARK    1  A    between atoms: N_11  and  C_12
REMARK    2  A    between atoms: C_12  and  C_13
REMARK                            x       y       z     vdW  Elec       q    Type
REMARK                         _______ _______ _______ _____ _____    ______ ____
ROOT
ATOM      1  C   UNL     1      29.442  28.640  22.358  0.00  0.00    +0.000 C 
ATOM      2  C   UNL     1      28.310  27.800  21.887  0.00  0.00    +0.000 C 
ATOM      3  C   UNL     1      28.594  26.887  20.770  0.00  0.00    +0.000 C 
ATOM      4  C   UNL     1      28.869  25.473  21.120  0.00  0.00    +0.000 C 
ATOM      5  C   UNL     1      28.712  25.236  22.594  0.00  0.00    +0.000 C 
ATOM      6  C   UNL     1      27.316  25.759  22.956  0.00  0.00    +0.000 C 
ATOM      7  C   UNL     1      27.429  27.266  22.968  0.00  0.00    +0.000 C 
ATOM      8  N   UNL     1      29.646  26.013  23.376  0.00  0.00    +0.000 NA
ATOM      9  C   UNL     1      30.374  25.111  24.182  0.00  0.00    +0.000 C 
ATOM     10  O   UNL     1      31.306  25.423  25.000  0.00  0.00    +0.000 OA
ATOM     11  N   UNL     1      29.930  23.788  23.961  0.00  0.00    +0.000 N 
ATOM     12  C   UNL     1      28.895  23.845  22.993  0.00  0.00    +0.000 C 
ATOM     13  O   UNL     1      28.231  22.880  22.539  0.00  0.00    +0.000 OA
ENDROOT
BRANCH  11  14
ATOM     14  C   UNL     1      30.439  22.563  24.609  0.00  0.00    +0.000 C 
BRANCH  14  15
ATOM     15  C   UNL     1      30.081  22.593  26.057  0.00  0.00    +0.000 A 
ATOM     16  C   UNL     1      31.083  22.727  26.994  0.00  0.00    +0.000 A 
ATOM     17  C   UNL     1      30.853  22.766  28.351  0.00  0.00    +0.000 A 
ATOM     18  C   UNL     1      29.561  22.665  28.807  0.00  0.00    +0.000 A 
ATOM     19  C   UNL     1      28.556  22.530  27.874  0.00  0.00    +0.000 A 
ATOM     20  C   UNL     1      28.802  22.494  26.512  0.00  0.00    +0.000 A 
ATOM     21  F   UNL     1      27.810  22.362  25.602  0.00  0.00    +0.000 F 
ENDBRANCH  14  15
ENDBRANCH  11  14
TORSDOF 2
ENDMDL
MODEL 7
REMARK VINA RESULT:      -5.7      3.243      6.677
REMARK  Name = 
REMARK  2 active torsions:
REMARK  status: ('A' for Active; 'I' for Inactive)
REMARK    1  A    between atoms: N_11  and  C_12
REMARK    2  A    between atoms: C_12  and  C_13
REMARK                            x       y       z     vdW  Elec       q    Type
REMARK                         _______ _______ _______ _____ _____    ______ ____
ROOT
ATOM      1  C   UNL     1      29.953  22.938  30.384  0.00  0.00    +0.000 C 
ATOM      2  C   UNL     1      28.555  23.311  30.725  0.00  0.00    +0.000 C 
ATOM      3  C   UNL     1      28.151  24.689  30.408  0.00  0.00    +0.000 C 
ATOM      4  C   UNL     1      27.389  24.888  29.153  0.00  0.00    +0.000 C 
ATOM      5  C   UNL     1      27.101  23.578  28.478  0.00  0.00    +0.000 C 
ATOM      6  C   UNL     1      26.430  22.698  29.541  0.00  0.00    +0.000 C 
ATOM      7  C   UNL     1      27.537  22.250  30.467  0.00  0.00    +0.000 C 
ATOM      8  N   UNL     1      28.308  22.886  28.089  0.00  0.00    +0.000 NA
ATOM      9  C   UNL     1      28.222  22.636  26.702  0.00  0.00    +0.000 C 
ATOM     10  O   UNL     1      29.111  22.055  25.989  0.00  0.00    +0.000 OA
ATOM     11  N   UNL     1      26.999  23.124  26.190  0.00  0.00    +0.000 N 
ATOM     12  C   UNL     1      26.286  23.698  27.274  0.00  0.00    +0.000 C 
ATOM     13  O   UNL     1      25.146  24.226  27.235  0.00  0.00    +0.000 OA
ENDROOT
BRANCH  11  14
ATOM     14  C   UNL     1      26.533  23.057  24.791  0.00  0.00    +0.000 C 
BRANCH  14  15
ATOM     15  C   UNL     1      27.179  24.152  24.010  0.00  0.00    +0.000 A 
ATOM     16  C   UNL     1      26.714  25.442  24.151  0.00  0.00    +0.000 A 
ATOM     17  C   UNL     1      27.244  26.518  23.474  0.00  0.00    +0.000 A 
ATOM     18  C   UNL     1      28.291  26.306  22.609  0.00  0.00    +0.000 A 
ATOM     19  C   UNL     1      28.758  25.018  22.465  0.00  0.00    +0.000 A 
ATOM     20  C   UNL     1      28.215  23.946  23.153  0.00  0.00    +0.000 A 
ATOM     21  F   UNL     1      28.681  22.684  23.006  0.00  0.00    +0.000 F 
ENDBRANCH  14  15
ENDBRANCH  11  14
TORSDOF 2
ENDMDL
MODEL 8
REMARK VINA RESULT:      -5.7      4.225      6.080
REMARK  Name = 
REMARK  2 active torsions:
REMARK  status: ('A' for Active; 'I' for Inactive)
REMARK    1  A    between atoms: N_11  and  C_12
REMARK    2  A    between atoms: C_12  and  C_13
REMARK                            x       y       z     vdW  Elec       q    Type
REMARK                         _______ _______ _______ _____ _____    ______ ____
ROOT
ATOM      1  C   UNL     1      23.862  26.463  28.870  0.00  0.00    +0.000 C 
ATOM      2  C   UNL     1      25.079  26.533  29.720  0.00  0.00    +0.000 C 
ATOM      3  C   UNL     1      25.249  25.457  30.707  0.00  0.00    +0.000 C 
ATOM      4  C   UNL     1      26.159  24.348  30.333  0.00  0.00    +0.000 C 
ATOM      5  C   UNL     1      26.812  24.604  29.005  0.00  0.00    +0.000 C 
ATOM      6  C   UNL     1      27.454  25.994  29.115  0.00  0.00    +0.000 C 
ATOM      7  C   UNL     1      26.317  26.984  29.015  0.00  0.00    +0.000 C 
ATOM      8  N   UNL     1      25.851  24.691  27.930  0.00  0.00    +0.000 NA
ATOM      9  C   UNL     1      26.219  23.736  26.958  0.00  0.00    +0.000 C 
ATOM     10  O   UNL     1      25.597  23.503  25.864  0.00  0.00    +0.000 OA
ATOM     11  N   UNL     1      27.389  23.054  27.358  0.00  0.00    +0.000 N 
ATOM     12  C   UNL     1      27.780  23.585  28.614  0.00  0.00    +0.000 C 
ATOM     13  O   UNL     1      28.781  23.253  29.297  0.00  0.00    +0.000 OA
ENDROOT
BRANCH  11  14
ATOM     14  C   UNL     1      28.090  21.986  26.618  0.00  0.00    +0.000 C 
BRANCH  14  15
ATOM     15  C   UNL     1      29.171  22.594  25.790  0.00  0.00    +0.000 A 
ATOM     16  C   UNL     1      30.435  22.724  26.325  0.00  0.00    +0.000 A 
ATOM     17  C   UNL     1      31.496  23.271  25.640  0.00  0.00    +0.000 A 
ATOM     18  C   UNL     1      31.298  23.717  24.355  0.00  0.00    +0.000 A 
ATOM     19  C   UNL     1      30.036  23.590  23.817  0.00  0.00    +0.000 A 
ATOM     20  C   UNL     1      28.977  23.036  24.518  0.00  0.00    +0.000 A 
ATOM     21  F   UNL     1      27.741  22.915  23.981  0.00  0.00    +0.000 F 
ENDBRANCH  14  15
ENDBRANCH  11  14
TORSDOF 2
ENDMDL
MODEL 9
REMARK VINA RESULT:      -5.7      1.872      2.543
REMARK  Name = 
REMARK  2 active torsions:
REMARK  status: ('A' for Active; 'I' for Inactive)
REMARK    1  A    between atoms: N_11  and  C_12
REMARK    2  A    between atoms: C_12  and  C_13
REMARK                            x       y       z     vdW  Elec       q    Type
REMARK                         _______ _______ _______ _____ _____    ______ ____
ROOT
ATOM      1  C   UNL     1      29.589  27.829  17.585  0.00  0.00    +0.000 C 
ATOM      2  C   UNL     1      29.236  28.920  18.530  0.00  0.00    +0.000 C 
ATOM      3  C   UNL     1      27.815  29.042  18.885  0.00  0.00    +0.000 C 
ATOM      4  C   UNL     1      27.396  28.441  20.174  0.00  0.00    +0.000 C 
ATOM      5  C   UNL     1      28.572  27.883  20.922  0.00  0.00    +0.000 C 
ATOM      6  C   UNL     1      29.592  29.026  21.012  0.00  0.00    +0.000 C 
ATOM      7  C   UNL     1      30.214  29.135  19.639  0.00  0.00    +0.000 C 
ATOM      8  N   UNL     1      29.226  26.818  20.197  0.00  0.00    +0.000 NA
ATOM      9  C   UNL     1      29.247  25.686  21.040  0.00  0.00    +0.000 C 
ATOM     10  O   UNL     1      29.731  24.540  20.742  0.00  0.00    +0.000 OA
ATOM     11  N   UNL     1      28.649  25.988  22.284  0.00  0.00    +0.000 N 
ATOM     12  C   UNL     1      28.237  27.345  22.236  0.00  0.00    +0.000 C 
ATOM     13  O   UNL     1      27.678  27.998  23.152  0.00  0.00    +0.000 OA
ENDROOT
BRANCH  11  14
ATOM     14  C   UNL     1      28.478  25.075  23.430  0.00  0.00    +0.000 C 
BRANCH  14  15
ATOM     15  C   UNL     1      29.821  24.706  23.965  0.00  0.00    +0.000 A 
ATOM     16  C   UNL     1      30.669  25.704  24.395  0.00  0.00    +0.000 A 
ATOM     17  C   UNL     1      31.926  25.463  24.904  0.00  0.00    +0.000 A 
ATOM     18  C   UNL     1      32.369  24.166  24.991  0.00  0.00    +0.000 A 
ATOM     19  C   UNL     1      31.525  23.166  24.561  0.00  0.00    +0.000 A 
ATOM     20  C   UNL     1      30.262  23.422  24.052  0.00  0.00    +0.000 A 
ATOM     21  F   UNL     1      29.439  22.434  23.633  0.00  0.00    +0.000 F 
ENDBRANCH  14  15
ENDBRANCH  11  14
TORSDOF 2
ENDMDL
MODEL 10
REMARK VINA RESULT:      -5.7      4.237      5.708
REMARK  Name = 
REMARK  2 active torsions:
REMARK  status: ('A' for Active; 'I' for Inactive)
REMARK    1  A    between atoms: N_11  and  C_12
REMARK    2  A    between atoms: C_12  and  C_13
REMARK                            x       y       z     vdW  Elec       q    Type
REMARK                         _______ _______ _______ _____ _____    ______ ____
ROOT
ATOM      1  C   UNL     1      34.781  26.545  27.049  0.00  0.00    +0.000 C 
ATOM      2  C   UNL     1      34.230  26.545  25.669  0.00  0.00    +0.000 C 
ATOM      3  C   UNL     1      34.671  25.453  24.789  0.00  0.00    +0.000 C 
ATOM      4  C   UNL     1      33.749  24.303  24.642  0.00  0.00    +0.000 C 
ATOM      5  C   UNL     1      32.465  24.537  25.384  0.00  0.00    +0.000 C 
ATOM      6  C   UNL     1      31.936  25.890  24.891  0.00  0.00    +0.000 C 
ATOM      7  C   UNL     1      32.793  26.938  25.563  0.00  0.00    +0.000 C 
ATOM      8  N   UNL     1      32.673  24.681  26.806  0.00  0.00    +0.000 NA
ATOM      9  C   UNL     1      31.867  23.718  27.451  0.00  0.00    +0.000 C 
ATOM     10  O   UNL     1      31.794  23.527  28.714  0.00  0.00    +0.000 OA
ATOM     11  N   UNL     1      31.136  22.973  26.498  0.00  0.00    +0.000 N 
ATOM     12  C   UNL     1      31.481  23.472  25.216  0.00  0.00    +0.000 C 
ATOM     13  O   UNL     1      31.032  23.084  24.108  0.00  0.00    +0.000 OA
ENDROOT
BRANCH  11  14
ATOM     14  C   UNL     1      30.185  21.877  26.770  0.00  0.00    +0.000 C 
BRANCH  14  15
ATOM     15  C   UNL     1      28.817  22.448  26.932  0.00  0.00    +0.000 A 
ATOM     16  C   UNL     1      28.050  22.683  25.810  0.00  0.00    +0.000 A 
ATOM     17  C   UNL     1      26.777  23.207  25.857  0.00  0.00    +0.000 A 
ATOM     18  C   UNL     1      26.232  23.515  27.080  0.00  0.00    +0.000 A 
ATOM     19  C   UNL     1      26.995  23.281  28.203  0.00  0.00    +0.000 A 
ATOM     20  C   UNL     1      28.274  22.754  28.141  0.00  0.00    +0.000 A 
ATOM     21  F   UNL     1      29.016  22.527  29.250  0.00  0.00    +0.000 F 
ENDBRANCH  14  15
ENDBRANCH  11  14
TORSDOF 2
ENDMDL
