MODEL 1
REMARK VINA RESULT:      -6.9      0.000      0.000
REMARK  Name = 
REMARK  4 active torsions:
REMARK  status: ('A' for Active; 'I' for Inactive)
REMARK    1  A    between atoms: C_2  and  S_3
REMARK    2  A    between atoms: S_3  and  C_4
REMARK    3  A    between atoms: N_9  and  C_10
REMARK    4  A    between atoms: C_10  and  C_11
REMARK                            x       y       z     vdW  Elec       q    Type
REMARK                         _______ _______ _______ _____ _____    ______ ____
ROOT
ATOM      1  C   UNL     1      16.400  11.818  36.955  0.00  0.00    +0.000 C 
ENDROOT
BRANCH   1   2
ATOM      2  C   UNL     1      15.505  11.182  37.923  0.00  0.00    +0.000 A 
ATOM      3  C   UNL     1      16.048  10.507  38.990  0.00  0.00    +0.000 A 
ATOM      4  C   UNL     1      15.294   9.876  39.954  0.00  0.00    +0.000 A 
ATOM      5  C   UNL     1      13.921   9.927  39.842  0.00  0.00    +0.000 A 
ATOM      6  C   UNL     1      13.355  10.598  38.779  0.00  0.00    +0.000 A 
ATOM      7  C   UNL     1      11.970  10.609  38.726  0.00  0.00    +0.000 A 
ATOM      8  C   UNL     1      11.342  11.260  37.696  0.00  0.00    +0.000 A 
ATOM      9  C   UNL     1      12.127  11.879  36.751  0.00  0.00    +0.000 A 
ATOM     10  C   UNL     1      13.498  11.885  36.774  0.00  0.00    +0.000 A 
ATOM     11  C   UNL     1      14.134  11.226  37.818  0.00  0.00    +0.000 A 
ENDBRANCH   1   2
BRANCH   1  17
ATOM     12  C   UNL     1      16.586  10.900  34.705  0.00  0.00    +0.000 A 
ATOM     13  N   UNL     1      17.354  10.025  34.072  0.00  0.00    +0.000 NA
ATOM     14  N   UNL     1      18.240   9.549  34.942  0.00  0.00    +0.000 NA
ATOM     15  C   UNL     1      18.060  10.103  36.133  0.00  0.00    +0.000 A 
ATOM     16  N   UNL     1      18.784   9.881  37.337  0.00  0.00    +0.000 NA
ATOM     17  N   UNL     1      17.015  10.961  35.999  0.00  0.00    +0.000 N 
BRANCH  12  18
ATOM     18  S   UNL     1      15.244  11.809  33.956  0.00  0.00    +0.000 S 
BRANCH  18  20
ATOM     19  C   UNL     1      14.582  12.926  31.589  0.00  0.00    +0.000 C 
ATOM     20  C   UNL     1      15.465  11.814  32.155  0.00  0.00    +0.000 C 
ENDBRANCH  18  20
ENDBRANCH  12  18
ENDBRANCH   1  17
TORSDOF 4
ENDMDL
MODEL 2
REMARK VINA RESULT:      -6.6      2.654      5.252
REMARK  Name = 
REMARK  4 active torsions:
REMARK  status: ('A' for Active; 'I' for Inactive)
REMARK    1  A    between atoms: C_2  and  S_3
REMARK    2  A    between atoms: S_3  and  C_4
REMARK    3  A    between atoms: N_9  and  C_10
REMARK    4  A    between atoms: C_10  and  C_11
REMARK                            x       y       z     vdW  Elec       q    Type
REMARK                         _______ _______ _______ _____ _____    ______ ____
ROOT
ATOM      1  C   UNL     1      16.446  10.689  37.148  0.00  0.00    +0.000 C 
ENDROOT
BRANCH   1   2
ATOM      2  C   UNL     1      17.707  11.213  37.676  0.00  0.00    +0.000 A 
ATOM      3  C   UNL     1      18.051  12.517  37.409  0.00  0.00    +0.000 A 
ATOM      4  C   UNL     1      19.213  13.104  37.858  0.00  0.00    +0.000 A 
ATOM      5  C   UNL     1      20.075  12.342  38.617  0.00  0.00    +0.000 A 
ATOM      6  C   UNL     1      19.750  11.031  38.897  0.00  0.00    +0.000 A 
ATOM      7  C   UNL     1      20.660  10.322  39.664  0.00  0.00    +0.000 A 
ATOM      8  C   UNL     1      20.398   9.014  39.980  0.00  0.00    +0.000 A 
ATOM      9  C   UNL     1      19.228   8.461  39.514  0.00  0.00    +0.000 A 
ATOM     10  C   UNL     1      18.308   9.135  38.753  0.00  0.00    +0.000 A 
ATOM     11  C   UNL     1      18.574  10.460  38.433  0.00  0.00    +0.000 A 
ENDBRANCH   1   2
BRANCH   1  17
ATOM     12  C   UNL     1      15.023  11.806  35.515  0.00  0.00    +0.000 A 
ATOM     13  N   UNL     1      14.994  11.970  34.201  0.00  0.00    +0.000 NA
ATOM     14  N   UNL     1      16.042  11.334  33.683  0.00  0.00    +0.000 NA
ATOM     15  C   UNL     1      16.751  10.759  34.644  0.00  0.00    +0.000 A 
ATOM     16  N   UNL     1      17.940   9.986  34.531  0.00  0.00    +0.000 NA
ATOM     17  N   UNL     1      16.118  11.048  35.811  0.00  0.00    +0.000 N 
BRANCH  12  18
ATOM     18  S   UNL     1      13.820  12.475  36.653  0.00  0.00    +0.000 S 
BRANCH  18  20
ATOM     19  C   UNL     1      11.342  11.565  37.218  0.00  0.00    +0.000 C 
ATOM     20  C   UNL     1      12.802  11.120  37.303  0.00  0.00    +0.000 C 
ENDBRANCH  18  20
ENDBRANCH  12  18
ENDBRANCH   1  17
TORSDOF 4
ENDMDL
MODEL 3
REMARK VINA RESULT:      -6.6     19.137     20.868
REMARK  Name = 
REMARK  4 active torsions:
REMARK  status: ('A' for Active; 'I' for Inactive)
REMARK    1  A    between atoms: C_2  and  S_3
REMARK    2  A    between atoms: S_3  and  C_4
REMARK    3  A    between atoms: N_9  and  C_10
REMARK    4  A    between atoms: C_10  and  C_11
REMARK                            x       y       z     vdW  Elec       q    Type
REMARK                         _______ _______ _______ _____ _____    ______ ____
ROOT
ATOM      1  C   UNL     1      26.769  22.950  25.215  0.00  0.00    +0.000 C 
ENDROOT
BRANCH   1   2
ATOM      2  C   UNL     1      26.102  23.788  26.213  0.00  0.00    +0.000 A 
ATOM      3  C   UNL     1      25.220  24.754  25.791  0.00  0.00    +0.000 A 
ATOM      4  C   UNL     1      24.542  25.592  26.648  0.00  0.00    +0.000 A 
ATOM      5  C   UNL     1      24.761  25.453  28.001  0.00  0.00    +0.000 A 
ATOM      6  C   UNL     1      25.642  24.490  28.448  0.00  0.00    +0.000 A 
ATOM      7  C   UNL     1      25.815  24.404  29.820  0.00  0.00    +0.000 A 
ATOM      8  C   UNL     1      26.676  23.468  30.331  0.00  0.00    +0.000 A 
ATOM      9  C   UNL     1      27.336  22.648  29.446  0.00  0.00    +0.000 A 
ATOM     10  C   UNL     1      27.187  22.709  28.083  0.00  0.00    +0.000 A 
ATOM     11  C   UNL     1      26.314  23.657  27.566  0.00  0.00    +0.000 A 
ENDBRANCH   1   2
BRANCH   1  17
ATOM     12  C   UNL     1      28.218  24.390  23.886  0.00  0.00    +0.000 A 
ATOM     13  N   UNL     1      28.281  24.816  22.634  0.00  0.00    +0.000 NA
ATOM     14  N   UNL     1      27.256  24.292  21.968  0.00  0.00    +0.000 NA
ATOM     15  C   UNL     1      26.528  23.529  22.771  0.00  0.00    +0.000 A 
ATOM     16  N   UNL     1      25.353  22.786  22.468  0.00  0.00    +0.000 NA
ATOM     17  N   UNL     1      27.124  23.581  23.990  0.00  0.00    +0.000 N 
BRANCH  12  18
ATOM     18  S   UNL     1      29.380  24.823  25.171  0.00  0.00    +0.000 S 
BRANCH  18  20
ATOM     19  C   UNL     1      30.669  22.497  24.708  0.00  0.00    +0.000 C 
ATOM     20  C   UNL     1      30.960  23.991  24.846  0.00  0.00    +0.000 C 
ENDBRANCH  18  20
ENDBRANCH  12  18
ENDBRANCH   1  17
TORSDOF 4
ENDMDL
MODEL 4
REMARK VINA RESULT:      -6.5     18.973     21.525
REMARK  Name = 
REMARK  4 active torsions:
REMARK  status: ('A' for Active; 'I' for Inactive)
REMARK    1  A    between atoms: C_2  and  S_3
REMARK    2  A    between atoms: S_3  and  C_4
REMARK    3  A    between atoms: N_9  and  C_10
REMARK    4  A    between atoms: C_10  and  C_11
REMARK                            x       y       z     vdW  Elec       q    Type
REMARK                         _______ _______ _______ _____ _____    ______ ____
ROOT
ATOM      1  C   UNL     1      27.631  24.614  24.627  0.00  0.00    +0.000 C 
ENDROOT
BRANCH   1   2
ATOM      2  C   UNL     1      28.268  23.718  25.593  0.00  0.00    +0.000 A 
ATOM      3  C   UNL     1      29.449  23.102  25.255  0.00  0.00    +0.000 A 
ATOM      4  C   UNL     1      30.127  22.243  26.091  0.00  0.00    +0.000 A 
ATOM      5  C   UNL     1      29.590  21.990  27.335  0.00  0.00    +0.000 A 
ATOM      6  C   UNL     1      28.405  22.596  27.696  0.00  0.00    +0.000 A 
ATOM      7  C   UNL     1      27.921  22.297  28.959  0.00  0.00    +0.000 A 
ATOM      8  C   UNL     1      26.748  22.867  29.382  0.00  0.00    +0.000 A 
ATOM      9  C   UNL     1      26.099  23.720  28.520  0.00  0.00    +0.000 A 
ATOM     10  C   UNL     1      26.551  24.035  27.264  0.00  0.00    +0.000 A 
ATOM     11  C   UNL     1      27.739  23.458  26.837  0.00  0.00    +0.000 A 
ENDBRANCH   1   2
BRANCH   1  17
ATOM     12  C   UNL     1      27.500  24.003  22.271  0.00  0.00    +0.000 A 
ATOM     13  N   UNL     1      26.659  23.353  21.481  0.00  0.00    +0.000 NA
ATOM     14  N   UNL     1      25.628  22.948  22.219  0.00  0.00    +0.000 NA
ATOM     15  C   UNL     1      25.788  23.328  23.479  0.00  0.00    +0.000 A 
ATOM     16  N   UNL     1      24.929  23.105  24.591  0.00  0.00    +0.000 NA
ATOM     17  N   UNL     1      26.969  23.997  23.528  0.00  0.00    +0.000 N 
BRANCH  12  18
ATOM     18  S   UNL     1      29.038  24.738  21.740  0.00  0.00    +0.000 S 
BRANCH  18  20
ATOM     19  C   UNL     1      29.643  26.812  20.120  0.00  0.00    +0.000 C 
ATOM     20  C   UNL     1      28.747  26.478  21.313  0.00  0.00    +0.000 C 
ENDBRANCH  18  20
ENDBRANCH  12  18
ENDBRANCH   1  17
TORSDOF 4
ENDMDL
MODEL 5
REMARK VINA RESULT:      -6.4     18.291     20.869
REMARK  Name = 
REMARK  4 active torsions:
REMARK  status: ('A' for Active; 'I' for Inactive)
REMARK    1  A    between atoms: C_2  and  S_3
REMARK    2  A    between atoms: S_3  and  C_4
REMARK    3  A    between atoms: N_9  and  C_10
REMARK    4  A    between atoms: C_10  and  C_11
REMARK                            x       y       z     vdW  Elec       q    Type
REMARK                         _______ _______ _______ _____ _____    ______ ____
ROOT
ATOM      1  C   UNL     1      27.889  22.192  27.931  0.00  0.00    +0.000 C 
ENDROOT
BRANCH   1   2
ATOM      2  C   UNL     1      29.286  22.629  27.906  0.00  0.00    +0.000 A 
ATOM      3  C   UNL     1      29.937  22.851  29.096  0.00  0.00    +0.000 A 
ATOM      4  C   UNL     1      31.248  23.264  29.181  0.00  0.00    +0.000 A 
ATOM      5  C   UNL     1      31.944  23.462  28.008  0.00  0.00    +0.000 A 
ATOM      6  C   UNL     1      31.311  23.245  26.802  0.00  0.00    +0.000 A 
ATOM      7  C   UNL     1      32.067  23.464  25.662  0.00  0.00    +0.000 A 
ATOM      8  C   UNL     1      31.500  23.267  24.430  0.00  0.00    +0.000 A 
ATOM      9  C   UNL     1      30.188  22.855  24.384  0.00  0.00    +0.000 A 
ATOM     10  C   UNL     1      29.413  22.631  25.492  0.00  0.00    +0.000 A 
ATOM     11  C   UNL     1      29.989  22.831  26.740  0.00  0.00    +0.000 A 
ENDBRANCH   1   2
BRANCH   1  17
ATOM     12  C   UNL     1      26.484  24.130  28.384  0.00  0.00    +0.000 A 
ATOM     13  N   UNL     1      25.706  24.559  29.366  0.00  0.00    +0.000 NA
ATOM     14  N   UNL     1      25.738  23.655  30.342  0.00  0.00    +0.000 NA
ATOM     15  C   UNL     1      26.526  22.643  30.006  0.00  0.00    +0.000 A 
ATOM     16  N   UNL     1      26.839  21.473  30.752  0.00  0.00    +0.000 NA
ATOM     17  N   UNL     1      27.007  22.930  28.768  0.00  0.00    +0.000 N 
BRANCH  12  18
ATOM     18  S   UNL     1      26.766  25.003  26.852  0.00  0.00    +0.000 S 
BRANCH  18  20
ATOM     19  C   UNL     1      25.817  23.138  25.145  0.00  0.00    +0.000 C 
ATOM     20  C   UNL     1      25.479  24.538  25.660  0.00  0.00    +0.000 C 
ENDBRANCH  18  20
ENDBRANCH  12  18
ENDBRANCH   1  17
TORSDOF 4
ENDMDL
MODEL 6
REMARK VINA RESULT:      -6.4      3.101      5.687
REMARK  Name = 
REMARK  4 active torsions:
REMARK  status: ('A' for Active; 'I' for Inactive)
REMARK    1  A    between atoms: C_2  and  S_3
REMARK    2  A    between atoms: S_3  and  C_4
REMARK    3  A    between atoms: N_9  and  C_10
REMARK    4  A    between atoms: C_10  and  C_11
REMARK                            x       y       z     vdW  Elec       q    Type
REMARK                         _______ _______ _______ _____ _____    ______ ____
ROOT
ATOM      1  C   UNL     1      18.270   9.392  37.574  0.00  0.00    +0.000 C 
ENDROOT
BRANCH   1   2
ATOM      2  C   UNL     1      17.143  10.210  37.122  0.00  0.00    +0.000 A 
ATOM      3  C   UNL     1      16.272  10.721  38.055  0.00  0.00    +0.000 A 
ATOM      4  C   UNL     1      15.184  11.500  37.733  0.00  0.00    +0.000 A 
ATOM      5  C   UNL     1      14.959  11.784  36.403  0.00  0.00    +0.000 A 
ATOM      6  C   UNL     1      15.819  11.282  35.450  0.00  0.00    +0.000 A 
ATOM      7  C   UNL     1      15.535  11.605  34.133  0.00  0.00    +0.000 A 
ATOM      8  C   UNL     1      16.351  11.140  33.135  0.00  0.00    +0.000 A 
ATOM      9  C   UNL     1      17.428  10.363  33.493  0.00  0.00    +0.000 A 
ATOM     10  C   UNL     1      17.737  10.026  34.786  0.00  0.00    +0.000 A 
ATOM     11  C   UNL     1      16.910  10.498  35.797  0.00  0.00    +0.000 A 
ENDBRANCH   1   2
BRANCH   1  17
ATOM     12  C   UNL     1      18.980   9.063  39.882  0.00  0.00    +0.000 A 
ATOM     13  N   UNL     1      19.672   9.733  40.791  0.00  0.00    +0.000 NA
ATOM     14  N   UNL     1      20.057  10.885  40.250  0.00  0.00    +0.000 NA
ATOM     15  C   UNL     1      19.624  10.974  39.000  0.00  0.00    +0.000 A 
ATOM     16  N   UNL     1      19.810  12.030  38.066  0.00  0.00    +0.000 NA
ATOM     17  N   UNL     1      18.939   9.827  38.752  0.00  0.00    +0.000 N 
BRANCH  12  18
ATOM     18  S   UNL     1      18.250   7.453  40.138  0.00  0.00    +0.000 S 
BRANCH  18  20
ATOM     19  C   UNL     1      16.202   8.912  41.122  0.00  0.00    +0.000 C 
ATOM     20  C   UNL     1      16.930   7.592  41.375  0.00  0.00    +0.000 C 
ENDBRANCH  18  20
ENDBRANCH  12  18
ENDBRANCH   1  17
TORSDOF 4
ENDMDL
MODEL 7
REMARK VINA RESULT:      -6.4     21.463     23.089
REMARK  Name = 
REMARK  4 active torsions:
REMARK  status: ('A' for Active; 'I' for Inactive)
REMARK    1  A    between atoms: C_2  and  S_3
REMARK    2  A    between atoms: S_3  and  C_4
REMARK    3  A    between atoms: N_9  and  C_10
REMARK    4  A    between atoms: C_10  and  C_11
REMARK                            x       y       z     vdW  Elec       q    Type
REMARK                         _______ _______ _______ _____ _____    ______ ____
ROOT
ATOM      1  C   UNL     1      21.820  -8.226  25.241  0.00  0.00    +0.000 C 
ENDROOT
BRANCH   1   2
ATOM      2  C   UNL     1      20.674  -7.479  25.763  0.00  0.00    +0.000 A 
ATOM      3  C   UNL     1      20.587  -6.130  25.514  0.00  0.00    +0.000 A 
ATOM      4  C   UNL     1      19.552  -5.339  25.960  0.00  0.00    +0.000 A 
ATOM      5  C   UNL     1      18.549  -5.935  26.695  0.00  0.00    +0.000 A 
ATOM      6  C   UNL     1      18.616  -7.287  26.957  0.00  0.00    +0.000 A 
ATOM      7  C   UNL     1      17.576  -7.822  27.702  0.00  0.00    +0.000 A 
ATOM      8  C   UNL     1      17.580  -9.160  27.998  0.00  0.00    +0.000 A 
ATOM      9  C   UNL     1      18.630  -9.919  27.536  0.00  0.00    +0.000 A 
ATOM     10  C   UNL     1      19.674  -9.421  26.799  0.00  0.00    +0.000 A 
ATOM     11  C   UNL     1      19.669  -8.065  26.499  0.00  0.00    +0.000 A 
ENDBRANCH   1   2
BRANCH   1  17
ATOM     12  C   UNL     1      22.978  -7.639  23.179  0.00  0.00    +0.000 A 
ATOM     13  N   UNL     1      22.833  -7.871  21.883  0.00  0.00    +0.000 NA
ATOM     14  N   UNL     1      21.752  -8.629  21.717  0.00  0.00    +0.000 NA
ATOM     15  C   UNL     1      21.191  -8.892  22.890  0.00  0.00    +0.000 A 
ATOM     16  N   UNL     1      20.027  -9.662  23.166  0.00  0.00    +0.000 NA
ATOM     17  N   UNL     1      21.956  -8.272  23.826  0.00  0.00    +0.000 N 
BRANCH  12  18
ATOM     18  S   UNL     1      24.289  -6.666  23.900  0.00  0.00    +0.000 S 
BRANCH  18  20
ATOM     19  C   UNL     1      25.986  -8.745  23.601  0.00  0.00    +0.000 C 
ATOM     20  C   UNL     1      25.883  -7.257  23.265  0.00  0.00    +0.000 C 
ENDBRANCH  18  20
ENDBRANCH  12  18
ENDBRANCH   1  17
TORSDOF 4
ENDMDL
MODEL 8
REMARK VINA RESULT:      -6.3      4.139      7.416
REMARK  Name = 
REMARK  4 active torsions:
REMARK  status: ('A' for Active; 'I' for Inactive)
REMARK    1  A    between atoms: C_2  and  S_3
REMARK    2  A    between atoms: S_3  and  C_4
REMARK    3  A    between atoms: N_9  and  C_10
REMARK    4  A    between atoms: C_10  and  C_11
REMARK                            x       y       z     vdW  Elec       q    Type
REMARK                         _______ _______ _______ _____ _____    ______ ____
ROOT
ATOM      1  C   UNL     1      19.917   9.807  37.200  0.00  0.00    +0.000 C 
ENDROOT
BRANCH   1   2
ATOM      2  C   UNL     1      20.981  10.744  37.564  0.00  0.00    +0.000 A 
ATOM      3  C   UNL     1      20.669  11.844  38.328  0.00  0.00    +0.000 A 
ATOM      4  C   UNL     1      21.594  12.784  38.723  0.00  0.00    +0.000 A 
ATOM      5  C   UNL     1      22.905  12.609  38.331  0.00  0.00    +0.000 A 
ATOM      6  C   UNL     1      23.241  11.514  37.565  0.00  0.00    +0.000 A 
ATOM      7  C   UNL     1      24.574  11.400  37.205  0.00  0.00    +0.000 A 
ATOM      8  C   UNL     1      24.977  10.333  36.444  0.00  0.00    +0.000 A 
ATOM      9  C   UNL     1      24.025   9.415  36.068  0.00  0.00    +0.000 A 
ATOM     10  C   UNL     1      22.698   9.499  36.406  0.00  0.00    +0.000 A 
ATOM     11  C   UNL     1      22.291  10.579  37.177  0.00  0.00    +0.000 A 
ENDBRANCH   1   2
BRANCH   1  17
ATOM     12  C   UNL     1      17.631  10.326  37.866  0.00  0.00    +0.000 A 
ATOM     13  N   UNL     1      16.824  10.040  38.875  0.00  0.00    +0.000 NA
ATOM     14  N   UNL     1      17.487   9.261  39.726  0.00  0.00    +0.000 NA
ATOM     15  C   UNL     1      18.716   9.036  39.281  0.00  0.00    +0.000 A 
ATOM     16  N   UNL     1      19.749   8.262  39.877  0.00  0.00    +0.000 NA
ATOM     17  N   UNL     1      18.823   9.705  38.104  0.00  0.00    +0.000 N 
BRANCH  12  18
ATOM     18  S   UNL     1      17.194  11.347  36.467  0.00  0.00    +0.000 S 
BRANCH  18  20
ATOM     19  C   UNL     1      17.630  10.351  33.995  0.00  0.00    +0.000 C 
ATOM     20  C   UNL     1      16.598  10.284  35.122  0.00  0.00    +0.000 C 
ENDBRANCH  18  20
ENDBRANCH  12  18
ENDBRANCH   1  17
TORSDOF 4
ENDMDL
MODEL 9
REMARK VINA RESULT:      -6.2      3.682      5.492
REMARK  Name = 
REMARK  4 active torsions:
REMARK  status: ('A' for Active; 'I' for Inactive)
REMARK    1  A    between atoms: C_2  and  S_3
REMARK    2  A    between atoms: S_3  and  C_4
REMARK    3  A    between atoms: N_9  and  C_10
REMARK    4  A    between atoms: C_10  and  C_11
REMARK                            x       y       z     vdW  Elec       q    Type
REMARK                         _______ _______ _______ _____ _____    ______ ____
ROOT
ATOM      1  C   UNL     1      18.558   8.873  38.758  0.00  0.00    +0.000 C 
ENDROOT
BRANCH   1   2
ATOM      2  C   UNL     1      17.732   8.549  39.923  0.00  0.00    +0.000 A 
ATOM      3  C   UNL     1      16.808   9.467  40.362  0.00  0.00    +0.000 A 
ATOM      4  C   UNL     1      15.985   9.259  41.446  0.00  0.00    +0.000 A 
ATOM      5  C   UNL     1      16.094   8.064  42.125  0.00  0.00    +0.000 A 
ATOM      6  C   UNL     1      17.015   7.129  41.702  0.00  0.00    +0.000 A 
ATOM      7  C   UNL     1      17.073   5.950  42.430  0.00  0.00    +0.000 A 
ATOM      8  C   UNL     1      17.966   4.977  42.063  0.00  0.00    +0.000 A 
ATOM      9  C   UNL     1      18.773   5.220  40.976  0.00  0.00    +0.000 A 
ATOM     10  C   UNL     1      18.740   6.374  40.236  0.00  0.00    +0.000 A 
ATOM     11  C   UNL     1      17.835   7.360  40.608  0.00  0.00    +0.000 A 
ENDBRANCH   1   2
BRANCH   1  17
ATOM     12  C   UNL     1      18.188  10.993  37.614  0.00  0.00    +0.000 A 
ATOM     13  N   UNL     1      18.676  12.222  37.664  0.00  0.00    +0.000 NA
ATOM     14  N   UNL     1      19.617  12.255  38.603  0.00  0.00    +0.000 NA
ATOM     15  C   UNL     1      19.747  11.061  39.165  0.00  0.00    +0.000 A 
ATOM     16  N   UNL     1      20.631  10.659  40.205  0.00  0.00    +0.000 NA
ATOM     17  N   UNL     1      18.848  10.250  38.549  0.00  0.00    +0.000 N 
BRANCH  12  18
ATOM     18  S   UNL     1      16.897  10.452  36.505  0.00  0.00    +0.000 S 
BRANCH  18  20
ATOM     19  C   UNL     1      17.468  10.215  33.877  0.00  0.00    +0.000 C 
ATOM     20  C   UNL     1      17.633   9.444  35.187  0.00  0.00    +0.000 C 
ENDBRANCH  18  20
ENDBRANCH  12  18
ENDBRANCH   1  17
TORSDOF 4
ENDMDL
MODEL 10
REMARK VINA RESULT:      -6.2     20.809     22.175
REMARK  Name = 
REMARK  4 active torsions:
REMARK  status: ('A' for Active; 'I' for Inactive)
REMARK    1  A    between atoms: C_2  and  S_3
REMARK    2  A    between atoms: S_3  and  C_4
REMARK    3  A    between atoms: N_9  and  C_10
REMARK    4  A    between atoms: C_10  and  C_11
REMARK                            x       y       z     vdW  Elec       q    Type
REMARK                         _______ _______ _______ _____ _____    ______ ____
ROOT
ATOM      1  C   UNL     1      33.434   0.051  36.141  0.00  0.00    +0.000 C 
ENDROOT
BRANCH   1   2
ATOM      2  C   UNL     1      33.599   1.034  35.068  0.00  0.00    +0.000 A 
ATOM      3  C   UNL     1      33.518   0.615  33.761  0.00  0.00    +0.000 A 
ATOM      4  C   UNL     1      33.658   1.459  32.683  0.00  0.00    +0.000 A 
ATOM      5  C   UNL     1      33.892   2.795  32.929  0.00  0.00    +0.000 A 
ATOM      6  C   UNL     1      33.977   3.237  34.232  0.00  0.00    +0.000 A 
ATOM      7  C   UNL     1      34.214   4.591  34.409  0.00  0.00    +0.000 A 
ATOM      8  C   UNL     1      34.309   5.097  35.679  0.00  0.00    +0.000 A 
ATOM      9  C   UNL     1      34.164   4.225  36.732  0.00  0.00    +0.000 A 
ATOM     10  C   UNL     1      33.930   2.881  36.592  0.00  0.00    +0.000 A 
ATOM     11  C   UNL     1      33.833   2.369  35.304  0.00  0.00    +0.000 A 
ENDBRANCH   1   2
BRANCH   1  17
ATOM     12  C   UNL     1      34.079  -2.251  35.665  0.00  0.00    +0.000 A 
ATOM     13  N   UNL     1      35.145  -3.017  35.838  0.00  0.00    +0.000 NA
ATOM     14  N   UNL     1      36.084  -2.290  36.437  0.00  0.00    +0.000 NA
ATOM     15  C   UNL     1      35.642  -1.059  36.656  0.00  0.00    +0.000 A 
ATOM     16  N   UNL     1      36.317   0.034  37.267  0.00  0.00    +0.000 NA
ATOM     17  N   UNL     1      34.372  -1.019  36.173  0.00  0.00    +0.000 N 
BRANCH  12  18
ATOM     18  S   UNL     1      32.555  -2.781  34.900  0.00  0.00    +0.000 S 
BRANCH  18  20
ATOM     19  C   UNL     1      33.555  -4.046  32.735  0.00  0.00    +0.000 C 
ATOM     20  C   UNL     1      32.837  -4.358  34.048  0.00  0.00    +0.000 C 
ENDBRANCH  18  20
ENDBRANCH  12  18
ENDBRANCH   1  17
TORSDOF 4
ENDMDL
