MODEL 1
REMARK VINA RESULT:      -7.0      0.000      0.000
REMARK  Name = 
REMARK  5 active torsions:
REMARK  status: ('A' for Active; 'I' for Inactive)
REMARK    1  A    between atoms: C_2  and  C_3
REMARK    2  A    between atoms: C_3  and  C_6
REMARK    3  A    between atoms: C_9  and  O_10
REMARK    4  A    between atoms: O_10  and  C_11
REMARK    5  A    between atoms: C_11  and  N_12
REMARK                            x       y       z     vdW  Elec       q    Type
REMARK                         _______ _______ _______ _____ _____    ______ ____
ROOT
ATOM      1  C   UNL     1      17.868  10.228  37.622  0.00  0.00    +0.000 A 
ATOM      2  C   UNL     1      17.418  11.541  37.448  0.00  0.00    +0.000 A 
ATOM      3  C   UNL     1      17.034  11.964  36.177  0.00  0.00    +0.000 A 
ATOM      4  C   UNL     1      17.072  11.171  35.081  0.00  0.00    +0.000 A 
ATOM      5  C   UNL     1      17.526   9.848  35.254  0.00  0.00    +0.000 A 
ATOM      6  C   UNL     1      17.906   9.429  36.515  0.00  0.00    +0.000 A 
ENDROOT
BRANCH   1   7
ATOM      7  C   UNL     1      18.278   9.772  38.972  0.00  0.00    +0.000 C 
ATOM      8  C   UNL     1      19.399  10.648  39.547  0.00  0.00    +0.000 C 
ATOM      9  C   UNL     1      18.798   8.357  38.951  0.00  0.00    +0.000 C 
BRANCH   7  11
ATOM     10  C   UNL     1      16.871   8.550  40.580  0.00  0.00    +0.000 C 
ATOM     11  C   UNL     1      17.127   9.877  39.941  0.00  0.00    +0.000 C 
ENDBRANCH   7  11
ENDBRANCH   1   7
BRANCH   4  12
ATOM     12  O   UNL     1      16.697  11.560  33.801  0.00  0.00    +0.000 OA
BRANCH  12  13
ATOM     13  C   UNL     1      15.409  11.272  33.311  0.00  0.00    +0.000 C 
BRANCH  13  14
ATOM     14  N   UNL     1      14.669  12.506  33.035  0.00  0.00    +0.000 N 
ATOM     15  N   UNL     1      14.198  13.239  34.020  0.00  0.00    +0.000 NA
ATOM     16  C   UNL     1      13.571  14.296  33.526  0.00  0.00    +0.000 A 
ATOM     17  N   UNL     1      12.933  15.309  34.293  0.00  0.00    +0.000 NA
ATOM     18  C   UNL     1      13.654  14.219  32.153  0.00  0.00    +0.000 A 
ATOM     19  C   UNL     1      14.355  13.077  31.881  0.00  0.00    +0.000 A 
ATOM     20  C   UNL     1      14.733  12.524  30.545  0.00  0.00    +0.000 C 
ENDBRANCH  13  14
ENDBRANCH  12  13
ENDBRANCH   4  12
TORSDOF 5
ENDMDL
MODEL 2
REMARK VINA RESULT:      -6.2     18.709     20.012
REMARK  Name = 
REMARK  5 active torsions:
REMARK  status: ('A' for Active; 'I' for Inactive)
REMARK    1  A    between atoms: C_2  and  C_3
REMARK    2  A    between atoms: C_3  and  C_6
REMARK    3  A    between atoms: C_9  and  O_10
REMARK    4  A    between atoms: O_10  and  C_11
REMARK    5  A    between atoms: C_11  and  N_12
REMARK                            x       y       z     vdW  Elec       q    Type
REMARK                         _______ _______ _______ _____ _____    ______ ____
ROOT
ATOM      1  C   UNL     1      27.095  22.970  28.398  0.00  0.00    +0.000 A 
ATOM      2  C   UNL     1      26.168  23.664  27.612  0.00  0.00    +0.000 A 
ATOM      3  C   UNL     1      26.342  23.698  26.230  0.00  0.00    +0.000 A 
ATOM      4  C   UNL     1      27.370  23.093  25.589  0.00  0.00    +0.000 A 
ATOM      5  C   UNL     1      28.304  22.395  26.379  0.00  0.00    +0.000 A 
ATOM      6  C   UNL     1      28.132  22.361  27.750  0.00  0.00    +0.000 A 
ENDROOT
BRANCH   1   7
ATOM      7  C   UNL     1      26.915  22.930  29.869  0.00  0.00    +0.000 C 
ATOM      8  C   UNL     1      28.247  23.127  30.605  0.00  0.00    +0.000 C 
ATOM      9  C   UNL     1      26.355  21.608  30.329  0.00  0.00    +0.000 C 
BRANCH   7  11
ATOM     10  C   UNL     1      26.747  24.937  31.283  0.00  0.00    +0.000 C 
ATOM     11  C   UNL     1      26.016  24.051  30.326  0.00  0.00    +0.000 C 
ENDBRANCH   7  11
ENDBRANCH   1   7
BRANCH   4  12
ATOM     12  O   UNL     1      27.572  23.108  24.215  0.00  0.00    +0.000 OA
BRANCH  12  13
ATOM     13  C   UNL     1      28.876  23.090  23.682  0.00  0.00    +0.000 C 
BRANCH  13  14
ATOM     14  N   UNL     1      29.122  24.284  22.869  0.00  0.00    +0.000 N 
ATOM     15  N   UNL     1      29.311  24.184  21.572  0.00  0.00    +0.000 NA
ATOM     16  C   UNL     1      29.514  25.388  21.059  0.00  0.00    +0.000 A 
ATOM     17  N   UNL     1      29.755  25.670  19.686  0.00  0.00    +0.000 NA
ATOM     18  C   UNL     1      29.449  26.293  22.095  0.00  0.00    +0.000 A 
ATOM     19  C   UNL     1      29.200  25.559  23.222  0.00  0.00    +0.000 A 
ATOM     20  C   UNL     1      29.031  26.051  24.623  0.00  0.00    +0.000 C 
ENDBRANCH  13  14
ENDBRANCH  12  13
ENDBRANCH   4  12
TORSDOF 5
ENDMDL
MODEL 3
REMARK VINA RESULT:      -6.2      3.777      4.863
REMARK  Name = 
REMARK  5 active torsions:
REMARK  status: ('A' for Active; 'I' for Inactive)
REMARK    1  A    between atoms: C_2  and  C_3
REMARK    2  A    between atoms: C_3  and  C_6
REMARK    3  A    between atoms: C_9  and  O_10
REMARK    4  A    between atoms: O_10  and  C_11
REMARK    5  A    between atoms: C_11  and  N_12
REMARK                            x       y       z     vdW  Elec       q    Type
REMARK                         _______ _______ _______ _____ _____    ______ ____
ROOT
ATOM      1  C   UNL     1      21.526  10.532  37.373  0.00  0.00    +0.000 A 
ATOM      2  C   UNL     1      21.011  11.506  38.235  0.00  0.00    +0.000 A 
ATOM      3  C   UNL     1      19.631  11.661  38.337  0.00  0.00    +0.000 A 
ATOM      4  C   UNL     1      18.740  10.916  37.640  0.00  0.00    +0.000 A 
ATOM      5  C   UNL     1      19.257   9.935  36.770  0.00  0.00    +0.000 A 
ATOM      6  C   UNL     1      20.626   9.781  36.670  0.00  0.00    +0.000 A 
ENDROOT
BRANCH   1   7
ATOM      7  C   UNL     1      22.994  10.362  37.260  0.00  0.00    +0.000 C 
ATOM      8  C   UNL     1      23.746  11.600  37.769  0.00  0.00    +0.000 C 
ATOM      9  C   UNL     1      23.426  10.148  35.831  0.00  0.00    +0.000 C 
BRANCH   7  11
ATOM     10  C   UNL     1      24.946   9.053  37.992  0.00  0.00    +0.000 C 
ATOM     11  C   UNL     1      23.463   9.209  38.112  0.00  0.00    +0.000 C 
ENDBRANCH   7  11
ENDBRANCH   1   7
BRANCH   4  12
ATOM     12  O   UNL     1      17.359  11.044  37.718  0.00  0.00    +0.000 OA
BRANCH  12  13
ATOM     13  C   UNL     1      16.664  11.877  36.819  0.00  0.00    +0.000 C 
BRANCH  13  14
ATOM     14  N   UNL     1      15.217  11.752  37.009  0.00  0.00    +0.000 N 
ATOM     15  N   UNL     1      14.730  11.038  37.999  0.00  0.00    +0.000 NA
ATOM     16  C   UNL     1      13.407  11.073  37.965  0.00  0.00    +0.000 A 
ATOM     17  N   UNL     1      12.539  10.415  38.879  0.00  0.00    +0.000 NA
ATOM     18  C   UNL     1      13.045  11.854  36.889  0.00  0.00    +0.000 A 
ATOM     19  C   UNL     1      14.214  12.265  36.311  0.00  0.00    +0.000 A 
ATOM     20  C   UNL     1      14.391  13.139  35.111  0.00  0.00    +0.000 C 
ENDBRANCH  13  14
ENDBRANCH  12  13
ENDBRANCH   4  12
TORSDOF 5
ENDMDL
MODEL 4
REMARK VINA RESULT:      -6.1     19.325     22.010
REMARK  Name = 
REMARK  5 active torsions:
REMARK  status: ('A' for Active; 'I' for Inactive)
REMARK    1  A    between atoms: C_2  and  C_3
REMARK    2  A    between atoms: C_3  and  C_6
REMARK    3  A    between atoms: C_9  and  O_10
REMARK    4  A    between atoms: O_10  and  C_11
REMARK    5  A    between atoms: C_11  and  N_12
REMARK                            x       y       z     vdW  Elec       q    Type
REMARK                         _______ _______ _______ _____ _____    ______ ____
ROOT
ATOM      1  C   UNL     1      33.753   3.199  34.532  0.00  0.00    +0.000 A 
ATOM      2  C   UNL     1      33.795   2.853  33.177  0.00  0.00    +0.000 A 
ATOM      3  C   UNL     1      33.791   1.507  32.820  0.00  0.00    +0.000 A 
ATOM      4  C   UNL     1      33.750   0.494  33.717  0.00  0.00    +0.000 A 
ATOM      5  C   UNL     1      33.709   0.841  35.083  0.00  0.00    +0.000 A 
ATOM      6  C   UNL     1      33.712   2.176  35.437  0.00  0.00    +0.000 A 
ENDROOT
BRANCH   1   7
ATOM      7  C   UNL     1      33.757   4.630  34.919  0.00  0.00    +0.000 C 
ATOM      8  C   UNL     1      33.461   4.811  36.414  0.00  0.00    +0.000 C 
ATOM      9  C   UNL     1      32.710   5.415  34.169  0.00  0.00    +0.000 C 
BRANCH   7  11
ATOM     10  C   UNL     1      35.231   6.535  35.425  0.00  0.00    +0.000 C 
ATOM     11  C   UNL     1      35.116   5.240  34.686  0.00  0.00    +0.000 C 
ENDBRANCH   7  11
ENDBRANCH   1   7
BRANCH   4  12
ATOM     12  O   UNL     1      33.745  -0.857  33.396  0.00  0.00    +0.000 OA
BRANCH  12  13
ATOM     13  C   UNL     1      33.318  -1.817  34.334  0.00  0.00    +0.000 C 
BRANCH  13  14
ATOM     14  N   UNL     1      33.712  -3.164  33.915  0.00  0.00    +0.000 N 
ATOM     15  N   UNL     1      33.520  -3.563  32.677  0.00  0.00    +0.000 NA
ATOM     16  C   UNL     1      33.950  -4.808  32.539  0.00  0.00    +0.000 A 
ATOM     17  N   UNL     1      33.904  -5.569  31.340  0.00  0.00    +0.000 NA
ATOM     18  C   UNL     1      34.439  -5.212  33.763  0.00  0.00    +0.000 A 
ATOM     19  C   UNL     1      34.272  -4.147  34.605  0.00  0.00    +0.000 A 
ATOM     20  C   UNL     1      34.640  -4.050  36.051  0.00  0.00    +0.000 C 
ENDBRANCH  13  14
ENDBRANCH  12  13
ENDBRANCH   4  12
TORSDOF 5
ENDMDL
MODEL 5
REMARK VINA RESULT:      -6.0     20.956     22.208
REMARK  Name = 
REMARK  5 active torsions:
REMARK  status: ('A' for Active; 'I' for Inactive)
REMARK    1  A    between atoms: C_2  and  C_3
REMARK    2  A    between atoms: C_3  and  C_6
REMARK    3  A    between atoms: C_9  and  O_10
REMARK    4  A    between atoms: O_10  and  C_11
REMARK    5  A    between atoms: C_11  and  N_12
REMARK                            x       y       z     vdW  Elec       q    Type
REMARK                         _______ _______ _______ _____ _____    ______ ____
ROOT
ATOM      1  C   UNL     1      26.184   4.258  17.696  0.00  0.00    +0.000 A 
ATOM      2  C   UNL     1      26.567   3.222  16.836  0.00  0.00    +0.000 A 
ATOM      3  C   UNL     1      25.891   2.006  16.896  0.00  0.00    +0.000 A 
ATOM      4  C   UNL     1      24.870   1.758  17.750  0.00  0.00    +0.000 A 
ATOM      5  C   UNL     1      24.484   2.800  18.617  0.00  0.00    +0.000 A 
ATOM      6  C   UNL     1      25.154   4.006  18.557  0.00  0.00    +0.000 A 
ENDROOT
BRANCH   1   7
ATOM      7  C   UNL     1      26.900   5.555  17.637  0.00  0.00    +0.000 C 
ATOM      8  C   UNL     1      25.929   6.726  17.435  0.00  0.00    +0.000 C 
ATOM      9  C   UNL     1      27.881   5.602  16.493  0.00  0.00    +0.000 C 
BRANCH   7  11
ATOM     10  C   UNL     1      27.946   7.281  19.045  0.00  0.00    +0.000 C 
ATOM     11  C   UNL     1      27.617   5.827  18.935  0.00  0.00    +0.000 C 
ENDBRANCH   7  11
ENDBRANCH   1   7
BRANCH   4  12
ATOM     12  O   UNL     1      24.175   0.559  17.836  0.00  0.00    +0.000 OA
BRANCH  12  13
ATOM     13  C   UNL     1      23.429   0.081  16.741  0.00  0.00    +0.000 C 
BRANCH  13  14
ATOM     14  N   UNL     1      22.243   0.912  16.517  0.00  0.00    +0.000 N 
ATOM     15  N   UNL     1      21.276   0.952  17.407  0.00  0.00    +0.000 NA
ATOM     16  C   UNL     1      20.318   1.764  16.986  0.00  0.00    +0.000 A 
ATOM     17  N   UNL     1      19.115   2.053  17.686  0.00  0.00    +0.000 NA
ATOM     18  C   UNL     1      20.709   2.260  15.762  0.00  0.00    +0.000 A 
ATOM     19  C   UNL     1      21.929   1.701  15.500  0.00  0.00    +0.000 A 
ATOM     20  C   UNL     1      22.799   1.907  14.302  0.00  0.00    +0.000 C 
ENDBRANCH  13  14
ENDBRANCH  12  13
ENDBRANCH   4  12
TORSDOF 5
ENDMDL
MODEL 6
REMARK VINA RESULT:      -5.9     20.936     22.028
REMARK  Name = 
REMARK  5 active torsions:
REMARK  status: ('A' for Active; 'I' for Inactive)
REMARK    1  A    between atoms: C_2  and  C_3
REMARK    2  A    between atoms: C_3  and  C_6
REMARK    3  A    between atoms: C_9  and  O_10
REMARK    4  A    between atoms: O_10  and  C_11
REMARK    5  A    between atoms: C_11  and  N_12
REMARK                            x       y       z     vdW  Elec       q    Type
REMARK                         _______ _______ _______ _____ _____    ______ ____
ROOT
ATOM      1  C   UNL     1      25.738   4.454  17.726  0.00  0.00    +0.000 A 
ATOM      2  C   UNL     1      25.959   3.108  17.413  0.00  0.00    +0.000 A 
ATOM      3  C   UNL     1      24.912   2.199  17.549  0.00  0.00    +0.000 A 
ATOM      4  C   UNL     1      23.673   2.542  17.975  0.00  0.00    +0.000 A 
ATOM      5  C   UNL     1      23.450   3.897  18.292  0.00  0.00    +0.000 A 
ATOM      6  C   UNL     1      24.488   4.798  18.156  0.00  0.00    +0.000 A 
ENDROOT
BRANCH   1   7
ATOM      7  C   UNL     1      26.848   5.426  17.582  0.00  0.00    +0.000 C 
ATOM      8  C   UNL     1      26.363   6.750  16.975  0.00  0.00    +0.000 C 
ATOM      9  C   UNL     1      27.935   4.905  16.677  0.00  0.00    +0.000 C 
BRANCH   7  11
ATOM     10  C   UNL     1      27.854   7.207  18.951  0.00  0.00    +0.000 C 
ATOM     11  C   UNL     1      27.429   5.773  18.929  0.00  0.00    +0.000 C 
ENDBRANCH   7  11
ENDBRANCH   1   7
BRANCH   4  12
ATOM     12  O   UNL     1      22.609   1.662  18.123  0.00  0.00    +0.000 OA
BRANCH  12  13
ATOM     13  C   UNL     1      22.123   0.931  17.022  0.00  0.00    +0.000 C 
BRANCH  13  14
ATOM     14  N   UNL     1      21.313   1.784  16.148  0.00  0.00    +0.000 N 
ATOM     15  N   UNL     1      21.822   2.286  15.044  0.00  0.00    +0.000 NA
ATOM     16  C   UNL     1      20.907   3.019  14.427  0.00  0.00    +0.000 A 
ATOM     17  N   UNL     1      21.097   3.718  13.204  0.00  0.00    +0.000 NA
ATOM     18  C   UNL     1      19.761   2.974  15.190  0.00  0.00    +0.000 A 
ATOM     19  C   UNL     1      20.056   2.184  16.267  0.00  0.00    +0.000 A 
ATOM     20  C   UNL     1      19.161   1.803  17.403  0.00  0.00    +0.000 C 
ENDBRANCH  13  14
ENDBRANCH  12  13
ENDBRANCH   4  12
TORSDOF 5
ENDMDL
MODEL 7
REMARK VINA RESULT:      -5.8     18.758     20.168
REMARK  Name = 
REMARK  5 active torsions:
REMARK  status: ('A' for Active; 'I' for Inactive)
REMARK    1  A    between atoms: C_2  and  C_3
REMARK    2  A    between atoms: C_3  and  C_6
REMARK    3  A    between atoms: C_9  and  O_10
REMARK    4  A    between atoms: O_10  and  C_11
REMARK    5  A    between atoms: C_11  and  N_12
REMARK                            x       y       z     vdW  Elec       q    Type
REMARK                         _______ _______ _______ _____ _____    ______ ____
ROOT
ATOM      1  C   UNL     1      33.663   1.147  34.754  0.00  0.00    +0.000 A 
ATOM      2  C   UNL     1      33.448   1.864  33.572  0.00  0.00    +0.000 A 
ATOM      3  C   UNL     1      33.543   3.253  33.594  0.00  0.00    +0.000 A 
ATOM      4  C   UNL     1      33.831   3.967  34.708  0.00  0.00    +0.000 A 
ATOM      5  C   UNL     1      34.045   3.246  35.901  0.00  0.00    +0.000 A 
ATOM      6  C   UNL     1      33.953   1.868  35.878  0.00  0.00    +0.000 A 
ENDROOT
BRANCH   1   7
ATOM      7  C   UNL     1      33.564  -0.332  34.737  0.00  0.00    +0.000 C 
ATOM      8  C   UNL     1      34.541  -0.974  35.732  0.00  0.00    +0.000 C 
ATOM      9  C   UNL     1      33.891  -0.899  33.379  0.00  0.00    +0.000 C 
BRANCH   7  11
ATOM     10  C   UNL     1      32.059  -2.261  35.005  0.00  0.00    +0.000 C 
ATOM     11  C   UNL     1      32.187  -0.779  35.157  0.00  0.00    +0.000 C 
ENDBRANCH   7  11
ENDBRANCH   1   7
BRANCH   4  12
ATOM     12  O   UNL     1      33.932   5.351  34.766  0.00  0.00    +0.000 OA
BRANCH  12  13
ATOM     13  C   UNL     1      33.818   6.028  35.995  0.00  0.00    +0.000 C 
BRANCH  13  14
ATOM     14  N   UNL     1      34.771   7.139  36.066  0.00  0.00    +0.000 N 
ATOM     15  N   UNL     1      34.359   8.382  35.951  0.00  0.00    +0.000 NA
ATOM     16  C   UNL     1      35.394   9.204  36.045  0.00  0.00    +0.000 A 
ATOM     17  N   UNL     1      35.332  10.622  35.965  0.00  0.00    +0.000 NA
ATOM     18  C   UNL     1      36.518   8.429  36.230  0.00  0.00    +0.000 A 
ATOM     19  C   UNL     1      36.085   7.132  36.239  0.00  0.00    +0.000 A 
ATOM     20  C   UNL     1      36.898   5.890  36.412  0.00  0.00    +0.000 C 
ENDBRANCH  13  14
ENDBRANCH  12  13
ENDBRANCH   4  12
TORSDOF 5
ENDMDL
MODEL 8
REMARK VINA RESULT:      -5.8     20.730     22.046
REMARK  Name = 
REMARK  5 active torsions:
REMARK  status: ('A' for Active; 'I' for Inactive)
REMARK    1  A    between atoms: C_2  and  C_3
REMARK    2  A    between atoms: C_3  and  C_6
REMARK    3  A    between atoms: C_9  and  O_10
REMARK    4  A    between atoms: O_10  and  C_11
REMARK    5  A    between atoms: C_11  and  N_12
REMARK                            x       y       z     vdW  Elec       q    Type
REMARK                         _______ _______ _______ _____ _____    ______ ____
ROOT
ATOM      1  C   UNL     1      32.925  24.259  25.530  0.00  0.00    +0.000 A 
ATOM      2  C   UNL     1      32.370  24.131  26.808  0.00  0.00    +0.000 A 
ATOM      3  C   UNL     1      31.153  23.472  26.957  0.00  0.00    +0.000 A 
ATOM      4  C   UNL     1      30.458  22.939  25.924  0.00  0.00    +0.000 A 
ATOM      5  C   UNL     1      31.014  23.068  24.635  0.00  0.00    +0.000 A 
ATOM      6  C   UNL     1      32.223  23.721  24.488  0.00  0.00    +0.000 A 
ENDROOT
BRANCH   1   7
ATOM      7  C   UNL     1      34.221  24.959  25.365  0.00  0.00    +0.000 C 
ATOM      8  C   UNL     1      34.023  26.458  25.103  0.00  0.00    +0.000 C 
ATOM      9  C   UNL     1      35.008  24.414  24.200  0.00  0.00    +0.000 C 
BRANCH   7  11
ATOM     10  C   UNL     1      36.314  24.123  26.354  0.00  0.00    +0.000 C 
ATOM     11  C   UNL     1      35.042  24.861  26.626  0.00  0.00    +0.000 C 
ENDBRANCH   7  11
ENDBRANCH   1   7
BRANCH   4  12
ATOM     12  O   UNL     1      29.242  22.277  26.037  0.00  0.00    +0.000 OA
BRANCH  12  13
ATOM     13  C   UNL     1      28.060  22.989  26.318  0.00  0.00    +0.000 C 
BRANCH  13  14
ATOM     14  N   UNL     1      27.457  23.502  25.085  0.00  0.00    +0.000 N 
ATOM     15  N   UNL     1      26.692  22.731  24.344  0.00  0.00    +0.000 NA
ATOM     16  C   UNL     1      26.267  23.410  23.289  0.00  0.00    +0.000 A 
ATOM     17  N   UNL     1      25.420  22.901  22.266  0.00  0.00    +0.000 NA
ATOM     18  C   UNL     1      26.798  24.679  23.375  0.00  0.00    +0.000 A 
ATOM     19  C   UNL     1      27.542  24.699  24.523  0.00  0.00    +0.000 A 
ATOM     20  C   UNL     1      28.327  25.836  25.092  0.00  0.00    +0.000 C 
ENDBRANCH  13  14
ENDBRANCH  12  13
ENDBRANCH   4  12
TORSDOF 5
ENDMDL
MODEL 9
REMARK VINA RESULT:      -5.8     19.488     21.982
REMARK  Name = 
REMARK  5 active torsions:
REMARK  status: ('A' for Active; 'I' for Inactive)
REMARK    1  A    between atoms: C_2  and  C_3
REMARK    2  A    between atoms: C_3  and  C_6
REMARK    3  A    between atoms: C_9  and  O_10
REMARK    4  A    between atoms: O_10  and  C_11
REMARK    5  A    between atoms: C_11  and  N_12
REMARK                            x       y       z     vdW  Elec       q    Type
REMARK                         _______ _______ _______ _____ _____    ______ ____
ROOT
ATOM      1  C   UNL     1      33.870   3.189  35.011  0.00  0.00    +0.000 A 
ATOM      2  C   UNL     1      33.905   2.154  35.952  0.00  0.00    +0.000 A 
ATOM      3  C   UNL     1      33.733   0.840  35.523  0.00  0.00    +0.000 A 
ATOM      4  C   UNL     1      33.526   0.496  34.229  0.00  0.00    +0.000 A 
ATOM      5  C   UNL     1      33.488   1.538  33.281  0.00  0.00    +0.000 A 
ATOM      6  C   UNL     1      33.661   2.840  33.707  0.00  0.00    +0.000 A 
ENDROOT
BRANCH   1   7
ATOM      7  C   UNL     1      34.054   4.589  35.462  0.00  0.00    +0.000 C 
ATOM      8  C   UNL     1      33.519   4.798  36.886  0.00  0.00    +0.000 C 
ATOM      9  C   UNL     1      33.322   5.564  34.575  0.00  0.00    +0.000 C 
BRANCH   7  11
ATOM     10  C   UNL     1      35.728   6.331  34.992  0.00  0.00    +0.000 C 
ATOM     11  C   UNL     1      35.519   4.944  35.511  0.00  0.00    +0.000 C 
ENDBRANCH   7  11
ENDBRANCH   1   7
BRANCH   4  12
ATOM     12  O   UNL     1      33.349  -0.802  33.767  0.00  0.00    +0.000 OA
BRANCH  12  13
ATOM     13  C   UNL     1      32.741  -1.777  34.582  0.00  0.00    +0.000 C 
BRANCH  13  14
ATOM     14  N   UNL     1      33.683  -2.856  34.892  0.00  0.00    +0.000 N 
ATOM     15  N   UNL     1      34.305  -2.889  36.050  0.00  0.00    +0.000 NA
ATOM     16  C   UNL     1      35.099  -3.948  36.097  0.00  0.00    +0.000 A 
ATOM     17  N   UNL     1      35.928  -4.309  37.194  0.00  0.00    +0.000 NA
ATOM     18  C   UNL     1      34.966  -4.615  34.899  0.00  0.00    +0.000 A 
ATOM     19  C   UNL     1      34.063  -3.896  34.165  0.00  0.00    +0.000 A 
ATOM     20  C   UNL     1      33.557  -4.185  32.789  0.00  0.00    +0.000 C 
ENDBRANCH  13  14
ENDBRANCH  12  13
ENDBRANCH   4  12
TORSDOF 5
ENDMDL
MODEL 10
REMARK VINA RESULT:      -5.7     20.124     21.029
REMARK  Name = 
REMARK  5 active torsions:
REMARK  status: ('A' for Active; 'I' for Inactive)
REMARK    1  A    between atoms: C_2  and  C_3
REMARK    2  A    between atoms: C_3  and  C_6
REMARK    3  A    between atoms: C_9  and  O_10
REMARK    4  A    between atoms: O_10  and  C_11
REMARK    5  A    between atoms: C_11  and  N_12
REMARK                            x       y       z     vdW  Elec       q    Type
REMARK                         _______ _______ _______ _____ _____    ______ ____
ROOT
ATOM      1  C   UNL     1      32.141  22.945  28.663  0.00  0.00    +0.000 A 
ATOM      2  C   UNL     1      32.743  23.858  27.790  0.00  0.00    +0.000 A 
ATOM      3  C   UNL     1      32.281  23.948  26.478  0.00  0.00    +0.000 A 
ATOM      4  C   UNL     1      31.270  23.192  25.987  0.00  0.00    +0.000 A 
ATOM      5  C   UNL     1      30.664  22.271  26.865  0.00  0.00    +0.000 A 
ATOM      6  C   UNL     1      31.122  22.183  28.166  0.00  0.00    +0.000 A 
ENDROOT
BRANCH   1   7
ATOM      7  C   UNL     1      32.628  22.846  30.060  0.00  0.00    +0.000 C 
ATOM      8  C   UNL     1      33.001  24.223  30.627  0.00  0.00    +0.000 C 
ATOM      9  C   UNL     1      33.861  21.984  30.163  0.00  0.00    +0.000 C 
BRANCH   7  11
ATOM     10  C   UNL     1      32.049  21.095  31.690  0.00  0.00    +0.000 C 
ATOM     11  C   UNL     1      31.549  22.302  30.962  0.00  0.00    +0.000 C 
ENDBRANCH   7  11
ENDBRANCH   1   7
BRANCH   4  12
ATOM     12  O   UNL     1      30.786  23.255  24.687  0.00  0.00    +0.000 OA
BRANCH  12  13
ATOM     13  C   UNL     1      29.477  22.832  24.387  0.00  0.00    +0.000 C 
BRANCH  13  14
ATOM     14  N   UNL     1      28.952  23.552  23.224  0.00  0.00    +0.000 N 
ATOM     15  N   UNL     1      29.768  24.088  22.344  0.00  0.00    +0.000 NA
ATOM     16  C   UNL     1      29.066  24.682  21.390  0.00  0.00    +0.000 A 
ATOM     17  N   UNL     1      29.610  25.369  20.271  0.00  0.00    +0.000 NA
ATOM     18  C   UNL     1      27.733  24.508  21.693  0.00  0.00    +0.000 A 
ATOM     19  C   UNL     1      27.701  23.789  22.856  0.00  0.00    +0.000 A 
ATOM     20  C   UNL     1      26.503  23.324  23.618  0.00  0.00    +0.000 C 
ENDBRANCH  13  14
ENDBRANCH  12  13
ENDBRANCH   4  12
TORSDOF 5
ENDMDL
