MODEL 1
REMARK VINA RESULT:      -8.6      0.000      0.000
REMARK  Name = 
REMARK  8 active torsions:
REMARK  status: ('A' for Active; 'I' for Inactive)
REMARK    1  A    between atoms: C_2  and  C_3
REMARK    2  A    between atoms: C_8  and  N_9
REMARK    3  A    between atoms: N_9  and  C_10
REMARK    4  A    between atoms: C_11  and  S_12
REMARK    5  A    between atoms: S_12  and  C_13
REMARK    6  A    between atoms: N_22  and  C_23
REMARK    7  A    between atoms: C_23  and  C_24
REMARK    8  A    between atoms: C_24  and  C_25
REMARK                            x       y       z     vdW  Elec       q    Type
REMARK                         _______ _______ _______ _____ _____    ______ ____
ROOT
ATOM      1  C   UNL     1      36.408   4.228  14.638  0.00  0.00    +0.000 C 
ATOM      2  C   UNL     1      37.610   3.745  14.844  0.00  0.00    +0.000 C 
ATOM      3  C   UNL     1      37.576   2.326  15.167  0.00  0.00    +0.000 C 
ATOM      4  O   UNL     1      38.577   1.607  15.412  0.00  0.00    +0.000 OA
ATOM      5  N   UNL     1      36.195   1.945  15.144  0.00  0.00    +0.000 N 
ATOM      6  C   UNL     1      35.487   3.111  14.821  0.00  0.00    +0.000 C 
ATOM      7  O   UNL     1      34.215   3.130  14.715  0.00  0.00    +0.000 OA
ENDROOT
BRANCH   1   8
ATOM      8  N   UNL     1      35.984   5.527  14.307  0.00  0.00    +0.000 NA
BRANCH   8  14
ATOM      9  C   UNL     1      34.318   6.745  13.128  0.00  0.00    +0.000 A 
ATOM     10  C   UNL     1      33.766   7.248  11.958  0.00  0.00    +0.000 A 
ATOM     11  C   UNL     1      34.417   6.986  10.779  0.00  0.00    +0.000 A 
ATOM     12  C   UNL     1      35.581   6.251  10.723  0.00  0.00    +0.000 A 
ATOM     13  C   UNL     1      36.092   5.768  11.926  0.00  0.00    +0.000 A 
ATOM     14  C   UNL     1      35.475   6.006  13.126  0.00  0.00    +0.000 A 
BRANCH   9  16
ATOM     15  C   UNL     1      33.730   8.510  14.737  0.00  0.00    +0.000 C 
ATOM     16  C   UNL     1      33.565   7.062  14.388  0.00  0.00    +0.000 C 
ENDBRANCH   9  16
ENDBRANCH   8  14
ENDBRANCH   1   8
BRANCH   2  17
ATOM     17  S   UNL     1      39.078   4.786  14.722  0.00  0.00    +0.000 S 
BRANCH  17  18
ATOM     18  C   UNL     1      39.598   5.328  16.352  0.00  0.00    +0.000 A 
ATOM     19  C   UNL     1      40.761   6.031  16.554  0.00  0.00    +0.000 A 
ATOM     20  C   UNL     1      41.199   6.466  17.787  0.00  0.00    +0.000 A 
ATOM     21  C   UNL     1      40.441   6.191  18.895  0.00  0.00    +0.000 A 
ATOM     22  C   UNL     1      40.898   6.654  20.242  0.00  0.00    +0.000 C 
ATOM     23  C   UNL     1      39.266   5.486  18.730  0.00  0.00    +0.000 A 
ATOM     24  C   UNL     1      38.837   5.054  17.484  0.00  0.00    +0.000 A 
ENDBRANCH  17  18
ENDBRANCH   2  17
BRANCH   5  25
ATOM     25  C   UNL     1      35.765   0.587  15.423  0.00  0.00    +0.000 C 
BRANCH  25  26
ATOM     26  C   UNL     1      35.497   0.350  16.869  0.00  0.00    +0.000 C 
BRANCH  26  27
ATOM     27  C   UNL     1      36.470  -0.592  17.476  0.00  0.00    +0.000 A 
ATOM     28  C   UNL     1      36.460  -0.778  18.844  0.00  0.00    +0.000 A 
ATOM     29  C   UNL     1      37.350  -1.647  19.462  0.00  0.00    +0.000 A 
ATOM     30  C   UNL     1      38.251  -2.328  18.697  0.00  0.00    +0.000 A 
ATOM     31  C   UNL     1      38.270  -2.147  17.316  0.00  0.00    +0.000 A 
ATOM     32  C   UNL     1      37.385  -1.286  16.719  0.00  0.00    +0.000 A 
ENDBRANCH  26  27
ENDBRANCH  25  26
ENDBRANCH   5  25
TORSDOF 8
ENDMDL
MODEL 2
REMARK VINA RESULT:      -8.5      2.527      5.874
REMARK  Name = 
REMARK  8 active torsions:
REMARK  status: ('A' for Active; 'I' for Inactive)
REMARK    1  A    between atoms: C_2  and  C_3
REMARK    2  A    between atoms: C_8  and  N_9
REMARK    3  A    between atoms: N_9  and  C_10
REMARK    4  A    between atoms: C_11  and  S_12
REMARK    5  A    between atoms: S_12  and  C_13
REMARK    6  A    between atoms: N_22  and  C_23
REMARK    7  A    between atoms: C_23  and  C_24
REMARK    8  A    between atoms: C_24  and  C_25
REMARK                            x       y       z     vdW  Elec       q    Type
REMARK                         _______ _______ _______ _____ _____    ______ ____
ROOT
ATOM      1  C   UNL     1      38.884   5.519  15.594  0.00  0.00    +0.000 C 
ATOM      2  C   UNL     1      38.051   6.448  15.190  0.00  0.00    +0.000 C 
ATOM      3  C   UNL     1      36.808   5.882  14.687  0.00  0.00    +0.000 C 
ATOM      4  O   UNL     1      35.835   6.537  14.236  0.00  0.00    +0.000 OA
ATOM      5  N   UNL     1      36.937   4.461  14.815  0.00  0.00    +0.000 N 
ATOM      6  C   UNL     1      38.207   4.245  15.369  0.00  0.00    +0.000 C 
ATOM      7  O   UNL     1      38.653   3.076  15.620  0.00  0.00    +0.000 OA
ENDROOT
BRANCH   1   8
ATOM      8  N   UNL     1      40.175   5.616  16.141  0.00  0.00    +0.000 NA
BRANCH   8  14
ATOM      9  C   UNL     1      41.811   6.495  17.624  0.00  0.00    +0.000 A 
ATOM     10  C   UNL     1      42.246   6.862  18.890  0.00  0.00    +0.000 A 
ATOM     11  C   UNL     1      41.382   6.685  19.941  0.00  0.00    +0.000 A 
ATOM     12  C   UNL     1      40.118   6.160  19.779  0.00  0.00    +0.000 A 
ATOM     13  C   UNL     1      39.731   5.807  18.488  0.00  0.00    +0.000 A 
ATOM     14  C   UNL     1      40.562   5.967  17.410  0.00  0.00    +0.000 A 
BRANCH   9  16
ATOM     15  C   UNL     1      44.166   6.943  17.075  0.00  0.00    +0.000 C 
ATOM     16  C   UNL     1      42.797   6.712  16.512  0.00  0.00    +0.000 C 
ENDBRANCH   9  16
ENDBRANCH   8  14
ENDBRANCH   1   8
BRANCH   2  17
ATOM     17  S   UNL     1      38.476   8.199  15.282  0.00  0.00    +0.000 S 
BRANCH  17  18
ATOM     18  C   UNL     1      38.520   8.743  16.992  0.00  0.00    +0.000 A 
ATOM     19  C   UNL     1      37.492   8.491  17.868  0.00  0.00    +0.000 A 
ATOM     20  C   UNL     1      37.483   8.891  19.188  0.00  0.00    +0.000 A 
ATOM     21  C   UNL     1      38.558   9.585  19.677  0.00  0.00    +0.000 A 
ATOM     22  C   UNL     1      38.569  10.027  21.107  0.00  0.00    +0.000 C 
ATOM     23  C   UNL     1      39.610   9.856  18.826  0.00  0.00    +0.000 A 
ATOM     24  C   UNL     1      39.606   9.449  17.500  0.00  0.00    +0.000 A 
ENDBRANCH  17  18
ENDBRANCH   2  17
BRANCH   5  25
ATOM     25  C   UNL     1      35.882   3.551  14.408  0.00  0.00    +0.000 C 
BRANCH  25  26
ATOM     26  C   UNL     1      35.055   3.075  15.553  0.00  0.00    +0.000 C 
BRANCH  26  27
ATOM     27  C   UNL     1      35.281   1.640  15.854  0.00  0.00    +0.000 A 
ATOM     28  C   UNL     1      36.012   0.876  14.967  0.00  0.00    +0.000 A 
ATOM     29  C   UNL     1      36.253  -0.473  15.202  0.00  0.00    +0.000 A 
ATOM     30  C   UNL     1      35.752  -1.048  16.333  0.00  0.00    +0.000 A 
ATOM     31  C   UNL     1      35.013  -0.286  17.234  0.00  0.00    +0.000 A 
ATOM     32  C   UNL     1      34.784   1.044  16.989  0.00  0.00    +0.000 A 
ENDBRANCH  26  27
ENDBRANCH  25  26
ENDBRANCH   5  25
TORSDOF 8
ENDMDL
MODEL 3
REMARK VINA RESULT:      -8.4      3.378      8.026
REMARK  Name = 
REMARK  8 active torsions:
REMARK  status: ('A' for Active; 'I' for Inactive)
REMARK    1  A    between atoms: C_2  and  C_3
REMARK    2  A    between atoms: C_8  and  N_9
REMARK    3  A    between atoms: N_9  and  C_10
REMARK    4  A    between atoms: C_11  and  S_12
REMARK    5  A    between atoms: S_12  and  C_13
REMARK    6  A    between atoms: N_22  and  C_23
REMARK    7  A    between atoms: C_23  and  C_24
REMARK    8  A    between atoms: C_24  and  C_25
REMARK                            x       y       z     vdW  Elec       q    Type
REMARK                         _______ _______ _______ _____ _____    ______ ____
ROOT
ATOM      1  C   UNL     1      38.307   1.774  14.580  0.00  0.00    +0.000 C 
ATOM      2  C   UNL     1      37.341   1.660  15.460  0.00  0.00    +0.000 C 
ATOM      3  C   UNL     1      37.184   2.871  16.253  0.00  0.00    +0.000 C 
ATOM      4  O   UNL     1      36.339   3.043  17.167  0.00  0.00    +0.000 OA
ATOM      5  N   UNL     1      38.173   3.791  15.775  0.00  0.00    +0.000 N 
ATOM      6  C   UNL     1      38.856   3.115  14.755  0.00  0.00    +0.000 C 
ATOM      7  O   UNL     1      39.815   3.650  14.104  0.00  0.00    +0.000 OA
ENDROOT
BRANCH   1   8
ATOM      8  N   UNL     1      38.794   0.863  13.627  0.00  0.00    +0.000 NA
BRANCH   8  14
ATOM      9  C   UNL     1      39.450  -1.416  13.471  0.00  0.00    +0.000 A 
ATOM     10  C   UNL     1      40.388  -2.432  13.590  0.00  0.00    +0.000 A 
ATOM     11  C   UNL     1      41.651  -2.092  14.007  0.00  0.00    +0.000 A 
ATOM     12  C   UNL     1      42.007  -0.795  14.307  0.00  0.00    +0.000 A 
ATOM     13  C   UNL     1      41.027   0.186  14.171  0.00  0.00    +0.000 A 
ATOM     14  C   UNL     1      39.755  -0.109  13.758  0.00  0.00    +0.000 A 
BRANCH   9  16
ATOM     15  C   UNL     1      37.843  -3.276  13.381  0.00  0.00    +0.000 C 
ATOM     16  C   UNL     1      38.086  -1.846  13.011  0.00  0.00    +0.000 C 
ENDBRANCH   9  16
ENDBRANCH   8  14
ENDBRANCH   1   8
BRANCH   2  17
ATOM     17  S   UNL     1      36.372   0.146  15.605  0.00  0.00    +0.000 S 
BRANCH  17  18
ATOM     18  C   UNL     1      37.042  -0.906  16.896  0.00  0.00    +0.000 A 
ATOM     19  C   UNL     1      38.078  -1.779  16.666  0.00  0.00    +0.000 A 
ATOM     20  C   UNL     1      38.622  -2.604  17.627  0.00  0.00    +0.000 A 
ATOM     21  C   UNL     1      38.113  -2.568  18.898  0.00  0.00    +0.000 A 
ATOM     22  C   UNL     1      38.690  -3.455  19.957  0.00  0.00    +0.000 C 
ATOM     23  C   UNL     1      37.072  -1.701  19.166  0.00  0.00    +0.000 A 
ATOM     24  C   UNL     1      36.533  -0.876  18.190  0.00  0.00    +0.000 A 
ENDBRANCH  17  18
ENDBRANCH   2  17
BRANCH   5  25
ATOM     25  C   UNL     1      38.322   5.122  16.335  0.00  0.00    +0.000 C 
BRANCH  25  26
ATOM     26  C   UNL     1      39.272   5.164  17.482  0.00  0.00    +0.000 C 
BRANCH  26  27
ATOM     27  C   UNL     1      38.969   6.270  18.425  0.00  0.00    +0.000 A 
ATOM     28  C   UNL     1      37.948   7.148  18.124  0.00  0.00    +0.000 A 
ATOM     29  C   UNL     1      37.624   8.200  18.972  0.00  0.00    +0.000 A 
ATOM     30  C   UNL     1      38.334   8.363  20.126  0.00  0.00    +0.000 A 
ATOM     31  C   UNL     1      39.366   7.482  20.439  0.00  0.00    +0.000 A 
ATOM     32  C   UNL     1      39.675   6.448  19.592  0.00  0.00    +0.000 A 
ENDBRANCH  26  27
ENDBRANCH  25  26
ENDBRANCH   5  25
TORSDOF 8
ENDMDL
MODEL 4
REMARK VINA RESULT:      -8.3      3.275      8.337
REMARK  Name = 
REMARK  8 active torsions:
REMARK  status: ('A' for Active; 'I' for Inactive)
REMARK    1  A    between atoms: C_2  and  C_3
REMARK    2  A    between atoms: C_8  and  N_9
REMARK    3  A    between atoms: N_9  and  C_10
REMARK    4  A    between atoms: C_11  and  S_12
REMARK    5  A    between atoms: S_12  and  C_13
REMARK    6  A    between atoms: N_22  and  C_23
REMARK    7  A    between atoms: C_23  and  C_24
REMARK    8  A    between atoms: C_24  and  C_25
REMARK                            x       y       z     vdW  Elec       q    Type
REMARK                         _______ _______ _______ _____ _____    ______ ____
ROOT
ATOM      1  C   UNL     1      36.673   0.781  15.872  0.00  0.00    +0.000 C 
ATOM      2  C   UNL     1      36.992   1.295  14.708  0.00  0.00    +0.000 C 
ATOM      3  C   UNL     1      37.286   2.718  14.805  0.00  0.00    +0.000 C 
ATOM      4  O   UNL     1      37.618   3.464  13.850  0.00  0.00    +0.000 OA
ATOM      5  N   UNL     1      37.117   3.066  16.185  0.00  0.00    +0.000 N 
ATOM      6  C   UNL     1      36.742   1.880  16.831  0.00  0.00    +0.000 C 
ATOM      7  O   UNL     1      36.509   1.829  18.085  0.00  0.00    +0.000 OA
ENDROOT
BRANCH   1   8
ATOM      8  N   UNL     1      36.321  -0.531  16.232  0.00  0.00    +0.000 NA
BRANCH   8  14
ATOM      9  C   UNL     1      36.734  -2.807  15.688  0.00  0.00    +0.000 A 
ATOM     10  C   UNL     1      37.497  -3.965  15.759  0.00  0.00    +0.000 A 
ATOM     11  C   UNL     1      38.656  -3.925  16.493  0.00  0.00    +0.000 A 
ATOM     12  C   UNL     1      39.075  -2.790  17.153  0.00  0.00    +0.000 A 
ATOM     13  C   UNL     1      38.272  -1.656  17.051  0.00  0.00    +0.000 A 
ATOM     14  C   UNL     1      37.108  -1.652  16.328  0.00  0.00    +0.000 A 
BRANCH   9  16
ATOM     15  C   UNL     1      34.634  -4.045  15.360  0.00  0.00    +0.000 C 
ATOM     16  C   UNL     1      35.479  -2.909  14.871  0.00  0.00    +0.000 C 
ENDBRANCH   9  16
ENDBRANCH   8  14
ENDBRANCH   1   8
BRANCH   2  17
ATOM     17  S   UNL     1      37.038   0.287  13.214  0.00  0.00    +0.000 S 
BRANCH  17  18
ATOM     18  C   UNL     1      38.497  -0.758  13.206  0.00  0.00    +0.000 A 
ATOM     19  C   UNL     1      38.553  -1.935  12.500  0.00  0.00    +0.000 A 
ATOM     20  C   UNL     1      39.652  -2.766  12.467  0.00  0.00    +0.000 A 
ATOM     21  C   UNL     1      40.770  -2.416  13.176  0.00  0.00    +0.000 A 
ATOM     22  C   UNL     1      41.974  -3.305  13.152  0.00  0.00    +0.000 C 
ATOM     23  C   UNL     1      40.751  -1.240  13.897  0.00  0.00    +0.000 A 
ATOM     24  C   UNL     1      39.639  -0.412  13.923  0.00  0.00    +0.000 A 
ENDBRANCH  17  18
ENDBRANCH   2  17
BRANCH   5  25
ATOM     25  C   UNL     1      37.325   4.419  16.669  0.00  0.00    +0.000 C 
BRANCH  25  26
ATOM     26  C   UNL     1      38.742   4.688  17.043  0.00  0.00    +0.000 C 
BRANCH  26  27
ATOM     27  C   UNL     1      38.862   5.750  18.072  0.00  0.00    +0.000 A 
ATOM     28  C   UNL     1      37.983   6.813  18.045  0.00  0.00    +0.000 A 
ATOM     29  C   UNL     1      38.052   7.834  18.985  0.00  0.00    +0.000 A 
ATOM     30  C   UNL     1      39.012   7.779  19.953  0.00  0.00    +0.000 A 
ATOM     31  C   UNL     1      39.904   6.711  19.990  0.00  0.00    +0.000 A 
ATOM     32  C   UNL     1      39.824   5.710  19.055  0.00  0.00    +0.000 A 
ENDBRANCH  26  27
ENDBRANCH  25  26
ENDBRANCH   5  25
TORSDOF 8
ENDMDL
MODEL 5
REMARK VINA RESULT:      -8.2      3.417      8.028
REMARK  Name = 
REMARK  8 active torsions:
REMARK  status: ('A' for Active; 'I' for Inactive)
REMARK    1  A    between atoms: C_2  and  C_3
REMARK    2  A    between atoms: C_8  and  N_9
REMARK    3  A    between atoms: N_9  and  C_10
REMARK    4  A    between atoms: C_11  and  S_12
REMARK    5  A    between atoms: S_12  and  C_13
REMARK    6  A    between atoms: N_22  and  C_23
REMARK    7  A    between atoms: C_23  and  C_24
REMARK    8  A    between atoms: C_24  and  C_25
REMARK                            x       y       z     vdW  Elec       q    Type
REMARK                         _______ _______ _______ _____ _____    ______ ____
ROOT
ATOM      1  C   UNL     1      38.435   2.284  14.375  0.00  0.00    +0.000 C 
ATOM      2  C   UNL     1      37.274   2.051  14.939  0.00  0.00    +0.000 C 
ATOM      3  C   UNL     1      36.943   3.058  15.937  0.00  0.00    +0.000 C 
ATOM      4  O   UNL     1      35.896   3.084  16.631  0.00  0.00    +0.000 OA
ATOM      5  N   UNL     1      38.040   3.979  15.952  0.00  0.00    +0.000 N 
ATOM      6  C   UNL     1      38.948   3.501  14.997  0.00  0.00    +0.000 C 
ATOM      7  O   UNL     1      40.053   4.091  14.749  0.00  0.00    +0.000 OA
ENDROOT
BRANCH   1   8
ATOM      8  N   UNL     1      39.131   1.578  13.379  0.00  0.00    +0.000 NA
BRANCH   8  14
ATOM      9  C   UNL     1      39.503  -0.530  12.346  0.00  0.00    +0.000 A 
ATOM     10  C   UNL     1      40.026  -1.815  12.339  0.00  0.00    +0.000 A 
ATOM     11  C   UNL     1      40.725  -2.228  13.445  0.00  0.00    +0.000 A 
ATOM     12  C   UNL     1      40.919  -1.419  14.543  0.00  0.00    +0.000 A 
ATOM     13  C   UNL     1      40.373  -0.137  14.499  0.00  0.00    +0.000 A 
ATOM     14  C   UNL     1      39.668   0.315  13.415  0.00  0.00    +0.000 A 
BRANCH   9  16
ATOM     15  C   UNL     1      39.703   0.153   9.991  0.00  0.00    +0.000 C 
ATOM     16  C   UNL     1      38.748  -0.131  11.110  0.00  0.00    +0.000 C 
ENDBRANCH   9  16
ENDBRANCH   8  14
ENDBRANCH   1   8
BRANCH   2  17
ATOM     17  S   UNL     1      36.269   0.628  14.472  0.00  0.00    +0.000 S 
BRANCH  17  18
ATOM     18  C   UNL     1      36.924  -0.871  15.212  0.00  0.00    +0.000 A 
ATOM     19  C   UNL     1      36.942  -2.071  14.544  0.00  0.00    +0.000 A 
ATOM     20  C   UNL     1      37.434  -3.245  15.073  0.00  0.00    +0.000 A 
ATOM     21  C   UNL     1      37.943  -3.237  16.345  0.00  0.00    +0.000 A 
ATOM     22  C   UNL     1      38.483  -4.500  16.938  0.00  0.00    +0.000 C 
ATOM     23  C   UNL     1      37.943  -2.048  17.046  0.00  0.00    +0.000 A 
ATOM     24  C   UNL     1      37.444  -0.874  16.502  0.00  0.00    +0.000 A 
ENDBRANCH  17  18
ENDBRANCH   2  17
BRANCH   5  25
ATOM     25  C   UNL     1      38.068   5.131  16.835  0.00  0.00    +0.000 C 
BRANCH  25  26
ATOM     26  C   UNL     1      38.742   4.848  18.134  0.00  0.00    +0.000 C 
BRANCH  26  27
ATOM     27  C   UNL     1      39.127   6.088  18.852  0.00  0.00    +0.000 A 
ATOM     28  C   UNL     1      40.308   6.111  19.566  0.00  0.00    +0.000 A 
ATOM     29  C   UNL     1      40.714   7.247  20.256  0.00  0.00    +0.000 A 
ATOM     30  C   UNL     1      39.924   8.359  20.224  0.00  0.00    +0.000 A 
ATOM     31  C   UNL     1      38.731   8.346  19.506  0.00  0.00    +0.000 A 
ATOM     32  C   UNL     1      38.343   7.218  18.830  0.00  0.00    +0.000 A 
ENDBRANCH  26  27
ENDBRANCH  25  26
ENDBRANCH   5  25
TORSDOF 8
ENDMDL
MODEL 6
REMARK VINA RESULT:      -8.0      2.960      8.162
REMARK  Name = 
REMARK  8 active torsions:
REMARK  status: ('A' for Active; 'I' for Inactive)
REMARK    1  A    between atoms: C_2  and  C_3
REMARK    2  A    between atoms: C_8  and  N_9
REMARK    3  A    between atoms: N_9  and  C_10
REMARK    4  A    between atoms: C_11  and  S_12
REMARK    5  A    between atoms: S_12  and  C_13
REMARK    6  A    between atoms: N_22  and  C_23
REMARK    7  A    between atoms: C_23  and  C_24
REMARK    8  A    between atoms: C_24  and  C_25
REMARK                            x       y       z     vdW  Elec       q    Type
REMARK                         _______ _______ _______ _____ _____    ______ ____
ROOT
ATOM      1  C   UNL     1      36.971   1.067  15.192  0.00  0.00    +0.000 C 
ATOM      2  C   UNL     1      37.361   1.361  13.975  0.00  0.00    +0.000 C 
ATOM      3  C   UNL     1      37.726   2.764  13.845  0.00  0.00    +0.000 C 
ATOM      4  O   UNL     1      38.133   3.321  12.795  0.00  0.00    +0.000 OA
ATOM      5  N   UNL     1      37.523   3.349  15.137  0.00  0.00    +0.000 N 
ATOM      6  C   UNL     1      37.062   2.309  15.955  0.00  0.00    +0.000 C 
ATOM      7  O   UNL     1      36.778   2.482  17.187  0.00  0.00    +0.000 OA
ENDROOT
BRANCH   1   8
ATOM      8  N   UNL     1      36.537  -0.147  15.750  0.00  0.00    +0.000 NA
BRANCH   8  14
ATOM      9  C   UNL     1      37.829  -1.425  17.281  0.00  0.00    +0.000 A 
ATOM     10  C   UNL     1      38.065  -1.953  18.543  0.00  0.00    +0.000 A 
ATOM     11  C   UNL     1      37.158  -1.674  19.535  0.00  0.00    +0.000 A 
ATOM     12  C   UNL     1      36.040  -0.899  19.317  0.00  0.00    +0.000 A 
ATOM     13  C   UNL     1      35.850  -0.393  18.032  0.00  0.00    +0.000 A 
ATOM     14  C   UNL     1      36.730  -0.647  17.014  0.00  0.00    +0.000 A 
BRANCH   9  16
ATOM     15  C   UNL     1      38.733  -3.202  15.841  0.00  0.00    +0.000 C 
ATOM     16  C   UNL     1      38.854  -1.763  16.237  0.00  0.00    +0.000 C 
ENDBRANCH   9  16
ENDBRANCH   8  14
ENDBRANCH   1   8
BRANCH   2  17
ATOM     17  S   UNL     1      37.409   0.112  12.674  0.00  0.00    +0.000 S 
BRANCH  17  18
ATOM     18  C   UNL     1      38.957  -0.795  12.734  0.00  0.00    +0.000 A 
ATOM     19  C   UNL     1      40.125  -0.224  13.178  0.00  0.00    +0.000 A 
ATOM     20  C   UNL     1      41.334  -0.882  13.240  0.00  0.00    +0.000 A 
ATOM     21  C   UNL     1      41.399  -2.190  12.840  0.00  0.00    +0.000 A 
ATOM     22  C   UNL     1      42.702  -2.924  12.900  0.00  0.00    +0.000 C 
ATOM     23  C   UNL     1      40.244  -2.798  12.388  0.00  0.00    +0.000 A 
ATOM     24  C   UNL     1      39.034  -2.124  12.330  0.00  0.00    +0.000 A 
ENDBRANCH  17  18
ENDBRANCH   2  17
BRANCH   5  25
ATOM     25  C   UNL     1      37.784   4.753  15.397  0.00  0.00    +0.000 C 
BRANCH  25  26
ATOM     26  C   UNL     1      39.238   5.075  15.434  0.00  0.00    +0.000 C 
BRANCH  26  27
ATOM     27  C   UNL     1      39.685   5.517  16.778  0.00  0.00    +0.000 A 
ATOM     28  C   UNL     1      40.924   6.110  16.913  0.00  0.00    +0.000 A 
ATOM     29  C   UNL     1      41.389   6.541  18.149  0.00  0.00    +0.000 A 
ATOM     30  C   UNL     1      40.601   6.371  19.249  0.00  0.00    +0.000 A 
ATOM     31  C   UNL     1      39.349   5.775  19.124  0.00  0.00    +0.000 A 
ATOM     32  C   UNL     1      38.903   5.354  17.898  0.00  0.00    +0.000 A 
ENDBRANCH  26  27
ENDBRANCH  25  26
ENDBRANCH   5  25
TORSDOF 8
ENDMDL
MODEL 7
REMARK VINA RESULT:      -8.0      3.356      7.460
REMARK  Name = 
REMARK  8 active torsions:
REMARK  status: ('A' for Active; 'I' for Inactive)
REMARK    1  A    between atoms: C_2  and  C_3
REMARK    2  A    between atoms: C_8  and  N_9
REMARK    3  A    between atoms: N_9  and  C_10
REMARK    4  A    between atoms: C_11  and  S_12
REMARK    5  A    between atoms: S_12  and  C_13
REMARK    6  A    between atoms: N_22  and  C_23
REMARK    7  A    between atoms: C_23  and  C_24
REMARK    8  A    between atoms: C_24  and  C_25
REMARK                            x       y       z     vdW  Elec       q    Type
REMARK                         _______ _______ _______ _____ _____    ______ ____
ROOT
ATOM      1  C   UNL     1      36.928   1.517  15.148  0.00  0.00    +0.000 C 
ATOM      2  C   UNL     1      38.030   1.742  14.472  0.00  0.00    +0.000 C 
ATOM      3  C   UNL     1      38.657   2.997  14.858  0.00  0.00    +0.000 C 
ATOM      4  O   UNL     1      39.719   3.464  14.376  0.00  0.00    +0.000 OA
ATOM      5  N   UNL     1      37.822   3.563  15.875  0.00  0.00    +0.000 N 
ATOM      6  C   UNL     1      36.768   2.656  16.047  0.00  0.00    +0.000 C 
ATOM      7  O   UNL     1      35.829   2.851  16.889  0.00  0.00    +0.000 OA
ENDROOT
BRANCH   1   8
ATOM      8  N   UNL     1      36.022   0.445  15.097  0.00  0.00    +0.000 NA
BRANCH   8  14
ATOM      9  C   UNL     1      35.700  -1.180  16.801  0.00  0.00    +0.000 A 
ATOM     10  C   UNL     1      35.822  -2.467  17.305  0.00  0.00    +0.000 A 
ATOM     11  C   UNL     1      36.425  -3.411  16.513  0.00  0.00    +0.000 A 
ATOM     12  C   UNL     1      36.906  -3.123  15.254  0.00  0.00    +0.000 A 
ATOM     13  C   UNL     1      36.759  -1.815  14.796  0.00  0.00    +0.000 A 
ATOM     14  C   UNL     1      36.163  -0.842  15.554  0.00  0.00    +0.000 A 
BRANCH   9  16
ATOM     15  C   UNL     1      35.796  -0.068  18.993  0.00  0.00    +0.000 C 
ATOM     16  C   UNL     1      35.031  -0.189  17.711  0.00  0.00    +0.000 C 
ENDBRANCH   9  16
ENDBRANCH   8  14
ENDBRANCH   1   8
BRANCH   2  17
ATOM     17  S   UNL     1      38.625   0.580  13.228  0.00  0.00    +0.000 S 
BRANCH  17  18
ATOM     18  C   UNL     1      40.223  -0.084  13.705  0.00  0.00    +0.000 A 
ATOM     19  C   UNL     1      41.394   0.607  13.505  0.00  0.00    +0.000 A 
ATOM     20  C   UNL     1      42.641   0.135  13.855  0.00  0.00    +0.000 A 
ATOM     21  C   UNL     1      42.743  -1.098  14.441  0.00  0.00    +0.000 A 
ATOM     22  C   UNL     1      44.088  -1.628  14.829  0.00  0.00    +0.000 C 
ATOM     23  C   UNL     1      41.588  -1.821  14.658  0.00  0.00    +0.000 A 
ATOM     24  C   UNL     1      40.339  -1.336  14.301  0.00  0.00    +0.000 A 
ENDBRANCH  17  18
ENDBRANCH   2  17
BRANCH   5  25
ATOM     25  C   UNL     1      38.131   4.833  16.509  0.00  0.00    +0.000 C 
BRANCH  25  26
ATOM     26  C   UNL     1      38.582   4.680  17.921  0.00  0.00    +0.000 C 
BRANCH  26  27
ATOM     27  C   UNL     1      39.712   5.584  18.253  0.00  0.00    +0.000 A 
ATOM     28  C   UNL     1      39.790   6.122  19.521  0.00  0.00    +0.000 A 
ATOM     29  C   UNL     1      40.827   6.973  19.883  0.00  0.00    +0.000 A 
ATOM     30  C   UNL     1      41.784   7.281  18.960  0.00  0.00    +0.000 A 
ATOM     31  C   UNL     1      41.714   6.743  17.678  0.00  0.00    +0.000 A 
ATOM     32  C   UNL     1      40.685   5.904  17.335  0.00  0.00    +0.000 A 
ENDBRANCH  26  27
ENDBRANCH  25  26
ENDBRANCH   5  25
TORSDOF 8
ENDMDL
MODEL 8
REMARK VINA RESULT:      -7.9      1.955      6.047
REMARK  Name = 
REMARK  8 active torsions:
REMARK  status: ('A' for Active; 'I' for Inactive)
REMARK    1  A    between atoms: C_2  and  C_3
REMARK    2  A    between atoms: C_8  and  N_9
REMARK    3  A    between atoms: N_9  and  C_10
REMARK    4  A    between atoms: C_11  and  S_12
REMARK    5  A    between atoms: S_12  and  C_13
REMARK    6  A    between atoms: N_22  and  C_23
REMARK    7  A    between atoms: C_23  and  C_24
REMARK    8  A    between atoms: C_24  and  C_25
REMARK                            x       y       z     vdW  Elec       q    Type
REMARK                         _______ _______ _______ _____ _____    ______ ____
ROOT
ATOM      1  C   UNL     1      36.644   4.814  14.193  0.00  0.00    +0.000 C 
ATOM      2  C   UNL     1      37.339   3.708  14.310  0.00  0.00    +0.000 C 
ATOM      3  C   UNL     1      38.509   3.889  15.158  0.00  0.00    +0.000 C 
ATOM      4  O   UNL     1      39.351   3.001  15.443  0.00  0.00    +0.000 OA
ATOM      5  N   UNL     1      38.486   5.258  15.580  0.00  0.00    +0.000 N 
ATOM      6  C   UNL     1      37.346   5.817  14.987  0.00  0.00    +0.000 C 
ATOM      7  O   UNL     1      37.018   7.039  15.156  0.00  0.00    +0.000 OA
ENDROOT
BRANCH   1   8
ATOM      8  N   UNL     1      35.463   5.086  13.481  0.00  0.00    +0.000 NA
BRANCH   8  14
ATOM      9  C   UNL     1      34.306   6.954  12.576  0.00  0.00    +0.000 A 
ATOM     10  C   UNL     1      34.054   7.862  11.557  0.00  0.00    +0.000 A 
ATOM     11  C   UNL     1      34.782   7.745  10.399  0.00  0.00    +0.000 A 
ATOM     12  C   UNL     1      35.738   6.769  10.222  0.00  0.00    +0.000 A 
ATOM     13  C   UNL     1      35.952   5.882  11.275  0.00  0.00    +0.000 A 
ATOM     14  C   UNL     1      35.248   5.963  12.448  0.00  0.00    +0.000 A 
BRANCH   9  16
ATOM     15  C   UNL     1      33.881   8.386  14.530  0.00  0.00    +0.000 C 
ATOM     16  C   UNL     1      33.481   7.129  13.818  0.00  0.00    +0.000 C 
ENDBRANCH   9  16
ENDBRANCH   8  14
ENDBRANCH   1   8
BRANCH   2  17
ATOM     17  S   UNL     1      36.835   2.186  13.484  0.00  0.00    +0.000 S 
BRANCH  17  18
ATOM     18  C   UNL     1      36.219   0.998  14.680  0.00  0.00    +0.000 A 
ATOM     19  C   UNL     1      35.436   1.370  15.747  0.00  0.00    +0.000 A 
ATOM     20  C   UNL     1      34.943   0.492  16.688  0.00  0.00    +0.000 A 
ATOM     21  C   UNL     1      35.238  -0.840  16.572  0.00  0.00    +0.000 A 
ATOM     22  C   UNL     1      34.712  -1.809  17.584  0.00  0.00    +0.000 C 
ATOM     23  C   UNL     1      36.022  -1.251  15.513  0.00  0.00    +0.000 A 
ATOM     24  C   UNL     1      36.513  -0.357  14.572  0.00  0.00    +0.000 A 
ENDBRANCH  17  18
ENDBRANCH   2  17
BRANCH   5  25
ATOM     25  C   UNL     1      39.509   5.814  16.447  0.00  0.00    +0.000 C 
BRANCH  25  26
ATOM     26  C   UNL     1      39.361   5.386  17.866  0.00  0.00    +0.000 C 
BRANCH  26  27
ATOM     27  C   UNL     1      38.991   6.512  18.759  0.00  0.00    +0.000 A 
ATOM     28  C   UNL     1      37.911   7.304  18.428  0.00  0.00    +0.000 A 
ATOM     29  C   UNL     1      37.523   8.371  19.230  0.00  0.00    +0.000 A 
ATOM     30  C   UNL     1      38.229   8.636  20.366  0.00  0.00    +0.000 A 
ATOM     31  C   UNL     1      39.320   7.842  20.710  0.00  0.00    +0.000 A 
ATOM     32  C   UNL     1      39.692   6.793  19.909  0.00  0.00    +0.000 A 
ENDBRANCH  26  27
ENDBRANCH  25  26
ENDBRANCH   5  25
TORSDOF 8
ENDMDL
MODEL 9
REMARK VINA RESULT:      -7.9      2.327      5.875
REMARK  Name = 
REMARK  8 active torsions:
REMARK  status: ('A' for Active; 'I' for Inactive)
REMARK    1  A    between atoms: C_2  and  C_3
REMARK    2  A    between atoms: C_8  and  N_9
REMARK    3  A    between atoms: N_9  and  C_10
REMARK    4  A    between atoms: C_11  and  S_12
REMARK    5  A    between atoms: S_12  and  C_13
REMARK    6  A    between atoms: N_22  and  C_23
REMARK    7  A    between atoms: C_23  and  C_24
REMARK    8  A    between atoms: C_24  and  C_25
REMARK                            x       y       z     vdW  Elec       q    Type
REMARK                         _______ _______ _______ _____ _____    ______ ____
ROOT
ATOM      1  C   UNL     1      38.032   5.888  16.125  0.00  0.00    +0.000 C 
ATOM      2  C   UNL     1      37.387   6.051  14.994  0.00  0.00    +0.000 C 
ATOM      3  C   UNL     1      36.702   4.835  14.580  0.00  0.00    +0.000 C 
ATOM      4  O   UNL     1      36.010   4.703  13.540  0.00  0.00    +0.000 OA
ATOM      5  N   UNL     1      36.983   3.857  15.588  0.00  0.00    +0.000 N 
ATOM      6  C   UNL     1      37.796   4.505  16.528  0.00  0.00    +0.000 C 
ATOM      7  O   UNL     1      38.237   3.916  17.572  0.00  0.00    +0.000 OA
ENDROOT
BRANCH   1   8
ATOM      8  N   UNL     1      38.814   6.783  16.874  0.00  0.00    +0.000 NA
BRANCH   8  14
ATOM      9  C   UNL     1      39.347   7.076  19.172  0.00  0.00    +0.000 A 
ATOM     10  C   UNL     1      39.120   7.640  20.420  0.00  0.00    +0.000 A 
ATOM     11  C   UNL     1      38.066   8.510  20.548  0.00  0.00    +0.000 A 
ATOM     12  C   UNL     1      37.241   8.834  19.493  0.00  0.00    +0.000 A 
ATOM     13  C   UNL     1      37.512   8.239  18.262  0.00  0.00    +0.000 A 
ATOM     14  C   UNL     1      38.554   7.366  18.090  0.00  0.00    +0.000 A 
BRANCH   9  16
ATOM     15  C   UNL     1      41.466   6.392  20.215  0.00  0.00    +0.000 C 
ATOM     16  C   UNL     1      40.512   6.133  19.090  0.00  0.00    +0.000 C 
ENDBRANCH   9  16
ENDBRANCH   8  14
ENDBRANCH   1   8
BRANCH   2  17
ATOM     17  S   UNL     1      37.401   7.629  14.121  0.00  0.00    +0.000 S 
BRANCH  17  18
ATOM     18  C   UNL     1      36.249   8.776  14.882  0.00  0.00    +0.000 A 
ATOM     19  C   UNL     1      36.648   9.992  15.382  0.00  0.00    +0.000 A 
ATOM     20  C   UNL     1      35.798  10.902  15.974  0.00  0.00    +0.000 A 
ATOM     21  C   UNL     1      34.468  10.595  16.081  0.00  0.00    +0.000 A 
ATOM     22  C   UNL     1      33.528  11.569  16.720  0.00  0.00    +0.000 C 
ATOM     23  C   UNL     1      34.031   9.381  15.590  0.00  0.00    +0.000 A 
ATOM     24  C   UNL     1      34.896   8.474  14.997  0.00  0.00    +0.000 A 
ENDBRANCH  17  18
ENDBRANCH   2  17
BRANCH   5  25
ATOM     25  C   UNL     1      36.463   2.503  15.515  0.00  0.00    +0.000 C 
BRANCH  25  26
ATOM     26  C   UNL     1      35.460   2.211  16.577  0.00  0.00    +0.000 C 
BRANCH  26  27
ATOM     27  C   UNL     1      35.582   0.828  17.103  0.00  0.00    +0.000 A 
ATOM     28  C   UNL     1      36.006   0.640  18.403  0.00  0.00    +0.000 A 
ATOM     29  C   UNL     1      36.138  -0.633  18.944  0.00  0.00    +0.000 A 
ATOM     30  C   UNL     1      35.842  -1.716  18.168  0.00  0.00    +0.000 A 
ATOM     31  C   UNL     1      35.412  -1.537  16.856  0.00  0.00    +0.000 A 
ATOM     32  C   UNL     1      35.287  -0.274  16.336  0.00  0.00    +0.000 A 
ENDBRANCH  26  27
ENDBRANCH  25  26
ENDBRANCH   5  25
TORSDOF 8
ENDMDL
MODEL 10
REMARK VINA RESULT:      -7.8      3.289      4.934
REMARK  Name = 
REMARK  8 active torsions:
REMARK  status: ('A' for Active; 'I' for Inactive)
REMARK    1  A    between atoms: C_2  and  C_3
REMARK    2  A    between atoms: C_8  and  N_9
REMARK    3  A    between atoms: N_9  and  C_10
REMARK    4  A    between atoms: C_11  and  S_12
REMARK    5  A    between atoms: S_12  and  C_13
REMARK    6  A    between atoms: N_22  and  C_23
REMARK    7  A    between atoms: C_23  and  C_24
REMARK    8  A    between atoms: C_24  and  C_25
REMARK                            x       y       z     vdW  Elec       q    Type
REMARK                         _______ _______ _______ _____ _____    ______ ____
ROOT
ATOM      1  C   UNL     1      38.187   5.023  16.305  0.00  0.00    +0.000 C 
ATOM      2  C   UNL     1      38.808   5.141  15.155  0.00  0.00    +0.000 C 
ATOM      3  C   UNL     1      38.838   3.882  14.423  0.00  0.00    +0.000 C 
ATOM      4  O   UNL     1      39.365   3.703  13.297  0.00  0.00    +0.000 OA
ATOM      5  N   UNL     1      38.155   2.928  15.245  0.00  0.00    +0.000 N 
ATOM      6  C   UNL     1      37.761   3.630  16.392  0.00  0.00    +0.000 C 
ATOM      7  O   UNL     1      37.121   3.075  17.347  0.00  0.00    +0.000 OA
ENDROOT
BRANCH   1   8
ATOM      8  N   UNL     1      37.932   5.969  17.312  0.00  0.00    +0.000 NA
BRANCH   8  14
ATOM      9  C   UNL     1      38.561   7.663  18.856  0.00  0.00    +0.000 A 
ATOM     10  C   UNL     1      39.364   8.154  19.876  0.00  0.00    +0.000 A 
ATOM     11  C   UNL     1      40.367   7.344  20.348  0.00  0.00    +0.000 A 
ATOM     12  C   UNL     1      40.596   6.082  19.846  0.00  0.00    +0.000 A 
ATOM     13  C   UNL     1      39.763   5.638  18.822  0.00  0.00    +0.000 A 
ATOM     14  C   UNL     1      38.750   6.413  18.321  0.00  0.00    +0.000 A 
BRANCH   9  16
ATOM     15  C   UNL     1      36.465   8.799  19.461  0.00  0.00    +0.000 C 
ATOM     16  C   UNL     1      37.480   8.591  18.380  0.00  0.00    +0.000 C 
ENDBRANCH   9  16
ENDBRANCH   8  14
ENDBRANCH   1   8
BRANCH   2  17
ATOM     17  S   UNL     1      39.512   6.713  14.620  0.00  0.00    +0.000 S 
BRANCH  17  18
ATOM     18  C   UNL     1      40.840   7.211  15.721  0.00  0.00    +0.000 A 
ATOM     19  C   UNL     1      40.914   8.475  16.254  0.00  0.00    +0.000 A 
ATOM     20  C   UNL     1      41.915   8.899  17.102  0.00  0.00    +0.000 A 
ATOM     21  C   UNL     1      42.908   8.021  17.448  0.00  0.00    +0.000 A 
ATOM     22  C   UNL     1      44.003   8.462  18.368  0.00  0.00    +0.000 C 
ATOM     23  C   UNL     1      42.865   6.742  16.931  0.00  0.00    +0.000 A 
ATOM     24  C   UNL     1      41.853   6.327  16.079  0.00  0.00    +0.000 A 
ENDBRANCH  17  18
ENDBRANCH   2  17
BRANCH   5  25
ATOM     25  C   UNL     1      37.985   1.544  14.840  0.00  0.00    +0.000 C 
BRANCH  25  26
ATOM     26  C   UNL     1      36.580   1.220  14.463  0.00  0.00    +0.000 C 
BRANCH  26  27
ATOM     27  C   UNL     1      36.007   0.138  15.301  0.00  0.00    +0.000 A 
ATOM     28  C   UNL     1      36.296  -1.175  14.992  0.00  0.00    +0.000 A 
ATOM     29  C   UNL     1      35.784  -2.226  15.744  0.00  0.00    +0.000 A 
ATOM     30  C   UNL     1      34.978  -1.946  16.809  0.00  0.00    +0.000 A 
ATOM     31  C   UNL     1      34.680  -0.624  17.130  0.00  0.00    +0.000 A 
ATOM     32  C   UNL     1      35.193   0.402  16.378  0.00  0.00    +0.000 A 
ENDBRANCH  26  27
ENDBRANCH  25  26
ENDBRANCH   5  25
TORSDOF 8
ENDMDL
