MODEL 1
REMARK VINA RESULT:      -6.3      0.000      0.000
REMARK  Name = 
REMARK  2 active torsions:
REMARK  status: ('A' for Active; 'I' for Inactive)
REMARK    1  A    between atoms: C_2  and  C_3
REMARK    2  A    between atoms: N_8  and  C_9
REMARK                            x       y       z     vdW  Elec       q    Type
REMARK                         _______ _______ _______ _____ _____    ______ ____
ROOT
ATOM      1  C   UNL     1      26.375   6.124  14.706  0.00  0.00    +0.000 A 
ATOM      2  C   UNL     1      27.246   6.845  15.485  0.00  0.00    +0.000 A 
ATOM      3  O   UNL     1      27.983   7.874  14.915  0.00  0.00    +0.000 OA
ATOM      4  C   UNL     1      27.398   6.556  16.831  0.00  0.00    +0.000 A 
ATOM      5  C   UNL     1      26.647   5.521  17.373  0.00  0.00    +0.000 A 
ATOM      6  N   UNL     1      25.795   4.816  16.616  0.00  0.00    +0.000 N 
ATOM      7  C   UNL     1      25.657   5.112  15.289  0.00  0.00    +0.000 A 
ATOM      8  O   UNL     1      24.843   4.423  14.607  0.00  0.00    +0.000 OA
ATOM      9  C   UNL     1      26.769   5.160  18.820  0.00  0.00    +0.000 C 
ATOM     10  C   UNL     1      27.939   5.856  19.457  0.00  0.00    +0.000 C 
ATOM     11  C   UNL     1      27.966   7.320  19.074  0.00  0.00    +0.000 C 
ATOM     12  C   UNL     1      28.357   7.375  17.606  0.00  0.00    +0.000 C 
ENDROOT
BRANCH   6  13
ATOM     13  C   UNL     1      25.009   3.751  17.135  0.00  0.00    +0.000 A 
ATOM     14  C   UNL     1      23.760   4.018  17.700  0.00  0.00    +0.000 A 
ATOM     15  C   UNL     1      22.937   3.068  18.228  0.00  0.00    +0.000 A 
ATOM     16  C   UNL     1      23.338   1.754  18.216  0.00  0.00    +0.000 A 
ATOM     17  C   UNL     1      24.566   1.452  17.666  0.00  0.00    +0.000 A 
ATOM     18  C   UNL     1      25.395   2.428  17.132  0.00  0.00    +0.000 A 
ENDBRANCH   6  13
BRANCH   1  20
ATOM     19  C   UNL     1      27.181   5.678  12.399  0.00  0.00    +0.000 C 
ATOM     20  C   UNL     1      26.237   6.451  13.277  0.00  0.00    +0.000 C 
ENDBRANCH   1  20
TORSDOF 2
ENDMDL
MODEL 2
REMARK VINA RESULT:      -6.3     18.932     21.591
REMARK  Name = 
REMARK  2 active torsions:
REMARK  status: ('A' for Active; 'I' for Inactive)
REMARK    1  A    between atoms: C_2  and  C_3
REMARK    2  A    between atoms: N_8  and  C_9
REMARK                            x       y       z     vdW  Elec       q    Type
REMARK                         _______ _______ _______ _____ _____    ______ ____
ROOT
ATOM      1  C   UNL     1      33.577   1.431  34.509  0.00  0.00    +0.000 A 
ATOM      2  C   UNL     1      33.547   0.711  35.677  0.00  0.00    +0.000 A 
ATOM      3  O   UNL     1      33.188  -0.630  35.648  0.00  0.00    +0.000 OA
ATOM      4  C   UNL     1      33.872   1.307  36.885  0.00  0.00    +0.000 A 
ATOM      5  C   UNL     1      34.228   2.650  36.884  0.00  0.00    +0.000 A 
ATOM      6  N   UNL     1      34.258   3.355  35.745  0.00  0.00    +0.000 N 
ATOM      7  C   UNL     1      33.935   2.753  34.562  0.00  0.00    +0.000 A 
ATOM      8  O   UNL     1      33.975   3.453  33.508  0.00  0.00    +0.000 OA
ATOM      9  C   UNL     1      34.586   3.349  38.158  0.00  0.00    +0.000 C 
ATOM     10  C   UNL     1      34.250   2.506  39.355  0.00  0.00    +0.000 C 
ATOM     11  C   UNL     1      34.723   1.082  39.158  0.00  0.00    +0.000 C 
ATOM     12  C   UNL     1      33.815   0.468  38.104  0.00  0.00    +0.000 C 
ENDROOT
BRANCH   6  13
ATOM     13  C   UNL     1      34.619   4.730  35.705  0.00  0.00    +0.000 A 
ATOM     14  C   UNL     1      35.955   5.095  35.526  0.00  0.00    +0.000 A 
ATOM     15  C   UNL     1      36.400   6.382  35.479  0.00  0.00    +0.000 A 
ATOM     16  C   UNL     1      35.495   7.408  35.614  0.00  0.00    +0.000 A 
ATOM     17  C   UNL     1      34.167   7.085  35.792  0.00  0.00    +0.000 A 
ATOM     18  C   UNL     1      33.726   5.771  35.838  0.00  0.00    +0.000 A 
ENDBRANCH   6  13
BRANCH   1  20
ATOM     19  C   UNL     1      34.415   0.221  32.509  0.00  0.00    +0.000 C 
ATOM     20  C   UNL     1      33.224   0.772  33.241  0.00  0.00    +0.000 C 
ENDBRANCH   1  20
TORSDOF 2
ENDMDL
MODEL 3
REMARK VINA RESULT:      -6.3     20.170     22.061
REMARK  Name = 
REMARK  2 active torsions:
REMARK  status: ('A' for Active; 'I' for Inactive)
REMARK    1  A    between atoms: C_2  and  C_3
REMARK    2  A    between atoms: N_8  and  C_9
REMARK                            x       y       z     vdW  Elec       q    Type
REMARK                         _______ _______ _______ _____ _____    ______ ____
ROOT
ATOM      1  C   UNL     1      27.855  23.001  28.841  0.00  0.00    +0.000 A 
ATOM      2  C   UNL     1      27.562  23.032  27.499  0.00  0.00    +0.000 A 
ATOM      3  O   UNL     1      26.240  23.143  27.089  0.00  0.00    +0.000 OA
ATOM      4  C   UNL     1      28.570  22.952  26.552  0.00  0.00    +0.000 A 
ATOM      5  C   UNL     1      29.883  22.841  26.992  0.00  0.00    +0.000 A 
ATOM      6  N   UNL     1      30.172  22.812  28.300  0.00  0.00    +0.000 N 
ATOM      7  C   UNL     1      29.167  22.891  29.222  0.00  0.00    +0.000 A 
ATOM      8  O   UNL     1      29.480  22.859  30.449  0.00  0.00    +0.000 OA
ATOM      9  C   UNL     1      31.013  22.749  26.017  0.00  0.00    +0.000 C 
ATOM     10  C   UNL     1      30.509  22.530  24.618  0.00  0.00    +0.000 C 
ATOM     11  C   UNL     1      29.365  23.470  24.308  0.00  0.00    +0.000 C 
ATOM     12  C   UNL     1      28.177  22.989  25.125  0.00  0.00    +0.000 C 
ENDROOT
BRANCH   6  13
ATOM     13  C   UNL     1      31.503  22.701  28.788  0.00  0.00    +0.000 A 
ATOM     14  C   UNL     1      32.277  23.849  28.969  0.00  0.00    +0.000 A 
ATOM     15  C   UNL     1      33.561  23.846  29.425  0.00  0.00    +0.000 A 
ATOM     16  C   UNL     1      34.157  22.647  29.736  0.00  0.00    +0.000 A 
ATOM     17  C   UNL     1      33.424  21.493  29.570  0.00  0.00    +0.000 A 
ATOM     18  C   UNL     1      32.117  21.509  29.105  0.00  0.00    +0.000 A 
ENDBRANCH   6  13
BRANCH   1  20
ATOM     19  C   UNL     1      26.345  21.743  30.359  0.00  0.00    +0.000 C 
ATOM     20  C   UNL     1      26.763  23.084  29.825  0.00  0.00    +0.000 C 
ENDBRANCH   1  20
TORSDOF 2
ENDMDL
MODEL 4
REMARK VINA RESULT:      -6.1     19.816     22.614
REMARK  Name = 
REMARK  2 active torsions:
REMARK  status: ('A' for Active; 'I' for Inactive)
REMARK    1  A    between atoms: C_2  and  C_3
REMARK    2  A    between atoms: N_8  and  C_9
REMARK                            x       y       z     vdW  Elec       q    Type
REMARK                         _______ _______ _______ _____ _____    ______ ____
ROOT
ATOM      1  C   UNL     1      26.545  23.549  29.101  0.00  0.00    +0.000 A 
ATOM      2  C   UNL     1      25.693  24.501  29.608  0.00  0.00    +0.000 A 
ATOM      3  O   UNL     1      25.531  24.613  30.982  0.00  0.00    +0.000 OA
ATOM      4  C   UNL     1      24.994  25.348  28.763  0.00  0.00    +0.000 A 
ATOM      5  C   UNL     1      25.176  25.211  27.392  0.00  0.00    +0.000 A 
ATOM      6  N   UNL     1      26.007  24.285  26.895  0.00  0.00    +0.000 N 
ATOM      7  C   UNL     1      26.689  23.457  27.741  0.00  0.00    +0.000 A 
ATOM      8  O   UNL     1      27.464  22.594  27.233  0.00  0.00    +0.000 OA
ATOM      9  C   UNL     1      24.447  26.095  26.430  0.00  0.00    +0.000 C 
ATOM     10  C   UNL     1      23.373  26.885  27.124  0.00  0.00    +0.000 C 
ATOM     11  C   UNL     1      23.899  27.495  28.405  0.00  0.00    +0.000 C 
ATOM     12  C   UNL     1      24.093  26.346  29.381  0.00  0.00    +0.000 C 
ENDROOT
BRANCH   6  13
ATOM     13  C   UNL     1      26.220  24.117  25.499  0.00  0.00    +0.000 A 
ATOM     14  C   UNL     1      27.201  24.868  24.849  0.00  0.00    +0.000 A 
ATOM     15  C   UNL     1      27.476  24.783  23.517  0.00  0.00    +0.000 A 
ATOM     16  C   UNL     1      26.756  23.907  22.739  0.00  0.00    +0.000 A 
ATOM     17  C   UNL     1      25.779  23.149  23.348  0.00  0.00    +0.000 A 
ATOM     18  C   UNL     1      25.508  23.245  24.705  0.00  0.00    +0.000 A 
ENDBRANCH   6  13
BRANCH   1  20
ATOM     19  C   UNL     1      26.463  21.472  30.460  0.00  0.00    +0.000 C 
ATOM     20  C   UNL     1      27.272  22.661  30.022  0.00  0.00    +0.000 C 
ENDBRANCH   1  20
TORSDOF 2
ENDMDL
MODEL 5
REMARK VINA RESULT:      -6.1     16.273     20.265
REMARK  Name = 
REMARK  2 active torsions:
REMARK  status: ('A' for Active; 'I' for Inactive)
REMARK    1  A    between atoms: C_2  and  C_3
REMARK    2  A    between atoms: N_8  and  C_9
REMARK                            x       y       z     vdW  Elec       q    Type
REMARK                         _______ _______ _______ _____ _____    ______ ____
ROOT
ATOM      1  C   UNL     1      15.187  -9.701  26.457  0.00  0.00    +0.000 A 
ATOM      2  C   UNL     1      15.450 -10.581  27.478  0.00  0.00    +0.000 A 
ATOM      3  O   UNL     1      14.559 -11.613  27.739  0.00  0.00    +0.000 OA
ATOM      4  C   UNL     1      16.592 -10.449  28.251  0.00  0.00    +0.000 A 
ATOM      5  C   UNL     1      17.465  -9.406  27.967  0.00  0.00    +0.000 A 
ATOM      6  N   UNL     1      17.212  -8.547  26.970  0.00  0.00    +0.000 N 
ATOM      7  C   UNL     1      16.081  -8.690  26.217  0.00  0.00    +0.000 A 
ATOM      8  O   UNL     1      15.877  -7.857  25.285  0.00  0.00    +0.000 OA
ATOM      9  C   UNL     1      18.713  -9.211  28.768  0.00  0.00    +0.000 C 
ATOM     10  C   UNL     1      18.714 -10.080  29.994  0.00  0.00    +0.000 C 
ATOM     11  C   UNL     1      18.293 -11.492  29.651  0.00  0.00    +0.000 C 
ATOM     12  C   UNL     1      16.806 -11.433  29.336  0.00  0.00    +0.000 C 
ENDROOT
BRANCH   6  13
ATOM     13  C   UNL     1      18.083  -7.469  26.649  0.00  0.00    +0.000 A 
ATOM     14  C   UNL     1      17.801  -6.183  27.116  0.00  0.00    +0.000 A 
ATOM     15  C   UNL     1      18.570  -5.087  26.858  0.00  0.00    +0.000 A 
ATOM     16  C   UNL     1      19.701  -5.229  26.091  0.00  0.00    +0.000 A 
ATOM     17  C   UNL     1      20.010  -6.484  25.613  0.00  0.00    +0.000 A 
ATOM     18  C   UNL     1      19.220  -7.592  25.882  0.00  0.00    +0.000 A 
ENDBRANCH   6  13
BRANCH   1  20
ATOM     19  C   UNL     1      12.807  -9.053  26.169  0.00  0.00    +0.000 C 
ATOM     20  C   UNL     1      13.964  -9.864  25.655  0.00  0.00    +0.000 C 
ENDBRANCH   1  20
TORSDOF 2
ENDMDL
MODEL 6
REMARK VINA RESULT:      -6.1     16.409     20.523
REMARK  Name = 
REMARK  2 active torsions:
REMARK  status: ('A' for Active; 'I' for Inactive)
REMARK    1  A    between atoms: C_2  and  C_3
REMARK    2  A    between atoms: N_8  and  C_9
REMARK                            x       y       z     vdW  Elec       q    Type
REMARK                         _______ _______ _______ _____ _____    ______ ____
ROOT
ATOM      1  C   UNL     1      17.090 -10.318  28.840  0.00  0.00    +0.000 A 
ATOM      2  C   UNL     1      15.969 -10.717  28.155  0.00  0.00    +0.000 A 
ATOM      3  O   UNL     1      15.221 -11.786  28.629  0.00  0.00    +0.000 OA
ATOM      4  C   UNL     1      15.577 -10.066  26.996  0.00  0.00    +0.000 A 
ATOM      5  C   UNL     1      16.345  -9.000  26.546  0.00  0.00    +0.000 A 
ATOM      6  N   UNL     1      17.439  -8.608  27.213  0.00  0.00    +0.000 N 
ATOM      7  C   UNL     1      17.813  -9.259  28.353  0.00  0.00    +0.000 A 
ATOM      8  O   UNL     1      18.853  -8.859  28.955  0.00  0.00    +0.000 OA
ATOM      9  C   UNL     1      15.975  -8.260  25.300  0.00  0.00    +0.000 C 
ATOM     10  C   UNL     1      14.897  -8.980  24.540  0.00  0.00    +0.000 C 
ATOM     11  C   UNL     1      13.789  -9.424  25.471  0.00  0.00    +0.000 C 
ATOM     12  C   UNL     1      14.360 -10.555  26.311  0.00  0.00    +0.000 C 
ENDROOT
BRANCH   6  13
ATOM     13  C   UNL     1      18.249  -7.520  26.783  0.00  0.00    +0.000 A 
ATOM     14  C   UNL     1      17.901  -6.213  27.130  0.00  0.00    +0.000 A 
ATOM     15  C   UNL     1      18.608  -5.107  26.763  0.00  0.00    +0.000 A 
ATOM     16  C   UNL     1      19.742  -5.260  26.002  0.00  0.00    +0.000 A 
ATOM     17  C   UNL     1      20.117  -6.536  25.641  0.00  0.00    +0.000 A 
ATOM     18  C   UNL     1      19.389  -7.654  26.021  0.00  0.00    +0.000 A 
ENDBRANCH   6  13
BRANCH   1  20
ATOM     19  C   UNL     1      16.950 -10.393  31.319  0.00  0.00    +0.000 C 
ATOM     20  C   UNL     1      17.484 -11.030  30.066  0.00  0.00    +0.000 C 
ENDBRANCH   1  20
TORSDOF 2
ENDMDL
MODEL 7
REMARK VINA RESULT:      -6.1     20.031     21.786
REMARK  Name = 
REMARK  2 active torsions:
REMARK  status: ('A' for Active; 'I' for Inactive)
REMARK    1  A    between atoms: C_2  and  C_3
REMARK    2  A    between atoms: N_8  and  C_9
REMARK                            x       y       z     vdW  Elec       q    Type
REMARK                         _______ _______ _______ _____ _____    ______ ____
ROOT
ATOM      1  C   UNL     1      28.288  22.993  26.204  0.00  0.00    +0.000 A 
ATOM      2  C   UNL     1      27.462  23.107  25.113  0.00  0.00    +0.000 A 
ATOM      3  O   UNL     1      26.161  22.627  25.184  0.00  0.00    +0.000 OA
ATOM      4  C   UNL     1      27.912  23.695  23.942  0.00  0.00    +0.000 A 
ATOM      5  C   UNL     1      29.219  24.166  23.900  0.00  0.00    +0.000 A 
ATOM      6  N   UNL     1      30.026  24.057  24.963  0.00  0.00    +0.000 N 
ATOM      7  C   UNL     1      29.568  23.475  26.111  0.00  0.00    +0.000 A 
ATOM      8  O   UNL     1      30.361  23.389  27.094  0.00  0.00    +0.000 OA
ATOM      9  C   UNL     1      29.763  24.808  22.663  0.00  0.00    +0.000 C 
ATOM     10  C   UNL     1      28.835  24.615  21.497  0.00  0.00    +0.000 C 
ATOM     11  C   UNL     1      27.406  24.914  21.894  0.00  0.00    +0.000 C 
ATOM     12  C   UNL     1      26.966  23.781  22.807  0.00  0.00    +0.000 C 
ENDROOT
BRANCH   6  13
ATOM     13  C   UNL     1      31.368  24.529  24.958  0.00  0.00    +0.000 A 
ATOM     14  C   UNL     1      31.644  25.848  25.325  0.00  0.00    +0.000 A 
ATOM     15  C   UNL     1      32.893  26.393  25.347  0.00  0.00    +0.000 A 
ATOM     16  C   UNL     1      33.969  25.616  24.989  0.00  0.00    +0.000 A 
ATOM     17  C   UNL     1      33.734  24.309  24.621  0.00  0.00    +0.000 A 
ATOM     18  C   UNL     1      32.458  23.765  24.603  0.00  0.00    +0.000 A 
ENDBRANCH   6  13
BRANCH   1  20
ATOM     19  C   UNL     1      27.121  23.332  28.370  0.00  0.00    +0.000 C 
ATOM     20  C   UNL     1      27.783  22.360  27.434  0.00  0.00    +0.000 C 
ENDBRANCH   1  20
TORSDOF 2
ENDMDL
MODEL 8
REMARK VINA RESULT:      -6.0     19.734     21.145
REMARK  Name = 
REMARK  2 active torsions:
REMARK  status: ('A' for Active; 'I' for Inactive)
REMARK    1  A    between atoms: C_2  and  C_3
REMARK    2  A    between atoms: N_8  and  C_9
REMARK                            x       y       z     vdW  Elec       q    Type
REMARK                         _______ _______ _______ _____ _____    ______ ____
ROOT
ATOM      1  C   UNL     1      30.135  23.313  24.982  0.00  0.00    +0.000 A 
ATOM      2  C   UNL     1      29.274  23.490  23.928  0.00  0.00    +0.000 A 
ATOM      3  O   UNL     1      29.779  23.575  22.637  0.00  0.00    +0.000 OA
ATOM      4  C   UNL     1      27.908  23.587  24.137  0.00  0.00    +0.000 A 
ATOM      5  C   UNL     1      27.432  23.499  25.439  0.00  0.00    +0.000 A 
ATOM      6  N   UNL     1      28.270  23.325  26.470  0.00  0.00    +0.000 N 
ATOM      7  C   UNL     1      29.614  23.232  26.248  0.00  0.00    +0.000 A 
ATOM      8  O   UNL     1      30.374  23.068  27.248  0.00  0.00    +0.000 OA
ATOM      9  C   UNL     1      25.967  23.599  25.729  0.00  0.00    +0.000 C 
ATOM     10  C   UNL     1      25.203  24.052  24.517  0.00  0.00    +0.000 C 
ATOM     11  C   UNL     1      25.644  23.288  23.288  0.00  0.00    +0.000 C 
ATOM     12  C   UNL     1      27.042  23.780  22.952  0.00  0.00    +0.000 C 
ENDROOT
BRANCH   6  13
ATOM     13  C   UNL     1      27.819  23.229  27.816  0.00  0.00    +0.000 A 
ATOM     14  C   UNL     1      27.640  24.387  28.575  0.00  0.00    +0.000 A 
ATOM     15  C   UNL     1      27.218  24.398  29.871  0.00  0.00    +0.000 A 
ATOM     16  C   UNL     1      26.943  23.205  30.495  0.00  0.00    +0.000 A 
ATOM     17  C   UNL     1      27.108  22.041  29.777  0.00  0.00    +0.000 A 
ATOM     18  C   UNL     1      27.539  22.042  28.458  0.00  0.00    +0.000 A 
ENDBRANCH   6  13
BRANCH   1  20
ATOM     19  C   UNL     1      32.295  24.534  24.863  0.00  0.00    +0.000 C 
ATOM     20  C   UNL     1      31.582  23.217  24.730  0.00  0.00    +0.000 C 
ENDBRANCH   1  20
TORSDOF 2
ENDMDL
MODEL 9
REMARK VINA RESULT:      -5.9     19.946     21.644
REMARK  Name = 
REMARK  2 active torsions:
REMARK  status: ('A' for Active; 'I' for Inactive)
REMARK    1  A    between atoms: C_2  and  C_3
REMARK    2  A    between atoms: N_8  and  C_9
REMARK                            x       y       z     vdW  Elec       q    Type
REMARK                         _______ _______ _______ _____ _____    ______ ____
ROOT
ATOM      1  C   UNL     1      29.960  22.682  27.356  0.00  0.00    +0.000 A 
ATOM      2  C   UNL     1      28.822  22.821  28.112  0.00  0.00    +0.000 A 
ATOM      3  O   UNL     1      28.804  22.349  29.417  0.00  0.00    +0.000 OA
ATOM      4  C   UNL     1      27.692  23.427  27.586  0.00  0.00    +0.000 A 
ATOM      5  C   UNL     1      27.740  23.889  26.277  0.00  0.00    +0.000 A 
ATOM      6  N   UNL     1      28.849  23.756  25.537  0.00  0.00    +0.000 N 
ATOM      7  C   UNL     1      29.955  23.157  26.070  0.00  0.00    +0.000 A 
ATOM      8  O   UNL     1      30.984  23.048  25.339  0.00  0.00    +0.000 OA
ATOM      9  C   UNL     1      26.550  24.549  25.653  0.00  0.00    +0.000 C 
ATOM     10  C   UNL     1      25.326  24.383  26.508  0.00  0.00    +0.000 C 
ATOM     11  C   UNL     1      25.639  24.685  27.958  0.00  0.00    +0.000 C 
ATOM     12  C   UNL     1      26.502  23.538  28.460  0.00  0.00    +0.000 C 
ENDROOT
BRANCH   6  13
ATOM     13  C   UNL     1      28.935  24.219  24.195  0.00  0.00    +0.000 A 
ATOM     14  C   UNL     1      28.538  23.388  23.145  0.00  0.00    +0.000 A 
ATOM     15  C   UNL     1      28.588  23.737  21.829  0.00  0.00    +0.000 A 
ATOM     16  C   UNL     1      29.055  24.984  21.485  0.00  0.00    +0.000 A 
ATOM     17  C   UNL     1      29.454  25.831  22.495  0.00  0.00    +0.000 A 
ATOM     18  C   UNL     1      29.399  25.464  23.832  0.00  0.00    +0.000 A 
ENDBRANCH   6  13
BRANCH   1  20
ATOM     19  C   UNL     1      32.094  23.001  28.587  0.00  0.00    +0.000 C 
ATOM     20  C   UNL     1      31.145  22.032  27.939  0.00  0.00    +0.000 C 
ENDBRANCH   1  20
TORSDOF 2
ENDMDL
MODEL 10
REMARK VINA RESULT:      -5.8     22.949     23.858
REMARK  Name = 
REMARK  2 active torsions:
REMARK  status: ('A' for Active; 'I' for Inactive)
REMARK    1  A    between atoms: C_2  and  C_3
REMARK    2  A    between atoms: N_8  and  C_9
REMARK                            x       y       z     vdW  Elec       q    Type
REMARK                         _______ _______ _______ _____ _____    ______ ____
ROOT
ATOM      1  C   UNL     1      10.736  24.372  23.220  0.00  0.00    +0.000 A 
ATOM      2  C   UNL     1      12.021  24.819  23.032  0.00  0.00    +0.000 A 
ATOM      3  O   UNL     1      12.465  25.940  23.721  0.00  0.00    +0.000 OA
ATOM      4  C   UNL     1      12.878  24.165  22.162  0.00  0.00    +0.000 A 
ATOM      5  C   UNL     1      12.406  23.047  21.486  0.00  0.00    +0.000 A 
ATOM      6  N   UNL     1      11.153  22.608  21.668  0.00  0.00    +0.000 N 
ATOM      7  C   UNL     1      10.320  23.263  22.529  0.00  0.00    +0.000 A 
ATOM      8  O   UNL     1       9.143  22.819  22.674  0.00  0.00    +0.000 OA
ATOM      9  C   UNL     1      13.284  22.301  20.531  0.00  0.00    +0.000 C 
ATOM     10  C   UNL     1      14.546  23.063  20.243  0.00  0.00    +0.000 C 
ATOM     11  C   UNL     1      15.158  23.591  21.522  0.00  0.00    +0.000 C 
ATOM     12  C   UNL     1      14.247  24.707  22.008  0.00  0.00    +0.000 C 
ENDROOT
BRANCH   6  13
ATOM     13  C   UNL     1      10.636  21.466  20.995  0.00  0.00    +0.000 A 
ATOM     14  C   UNL     1       9.734  21.628  19.942  0.00  0.00    +0.000 A 
ATOM     15  C   UNL     1       9.180  20.599  19.241  0.00  0.00    +0.000 A 
ATOM     16  C   UNL     1       9.515  19.308  19.571  0.00  0.00    +0.000 A 
ATOM     17  C   UNL     1      10.403  19.110  20.606  0.00  0.00    +0.000 A 
ATOM     18  C   UNL     1      10.960  20.166  21.312  0.00  0.00    +0.000 A 
ENDBRANCH   6  13
BRANCH   1  20
ATOM     19  C   UNL     1       9.908  24.560  25.554  0.00  0.00    +0.000 C 
ATOM     20  C   UNL     1       9.847  25.089  24.148  0.00  0.00    +0.000 C 
ENDBRANCH   1  20
TORSDOF 2
ENDMDL
