MODEL 1
REMARK VINA RESULT:      -9.2      0.000      0.000
REMARK  Name = 
REMARK  5 active torsions:
REMARK  status: ('A' for Active; 'I' for Inactive)
REMARK    1  A    between atoms: C_2  and  C_3
REMARK    2  A    between atoms: C_6  and  C_7
REMARK    3  A    between atoms: C_7  and  N_8
REMARK    4  A    between atoms: C_11  and  C_12
REMARK    5  A    between atoms: C_12  and  C_13
REMARK                            x       y       z     vdW  Elec       q    Type
REMARK                         _______ _______ _______ _____ _____    ______ ____
ROOT
ATOM      1  C   UNL     1      16.746   0.454  26.457  0.00  0.00    +0.000 A 
ATOM      2  C   UNL     1      15.686   0.001  25.672  0.00  0.00    +0.000 A 
ATOM      3  C   UNL     1      14.516  -0.364  26.299  0.00  0.00    +0.000 A 
ATOM      4  C   UNL     1      14.369  -0.294  27.660  0.00  0.00    +0.000 A 
ATOM      5  C   UNL     1      15.445   0.163  28.408  0.00  0.00    +0.000 A 
ATOM      6  C   UNL     1      16.630   0.536  27.815  0.00  0.00    +0.000 A 
ENDROOT
BRANCH   1   8
ATOM      7  O   UNL     1      18.087   2.065  25.448  0.00  0.00    +0.000 OA
ATOM      8  C   UNL     1      17.969   0.835  25.783  0.00  0.00    +0.000 C 
ATOM      9  N   UNL     1      18.980  -0.107  25.508  0.00  0.00    +0.000 N 
ATOM     10  C   UNL     1      18.813  -1.475  25.899  0.00  0.00    +0.000 C 
ATOM     11  C   UNL     1      18.903  -2.336  24.672  0.00  0.00    +0.000 C 
ATOM     12  C   UNL     1      19.729  -1.757  23.587  0.00  0.00    +0.000 A 
ATOM     13  C   UNL     1      19.871  -2.550  22.455  0.00  0.00    +0.000 A 
ATOM     14  C   UNL     1      20.605  -2.130  21.390  0.00  0.00    +0.000 A 
ATOM     15  C   UNL     1      21.221  -0.906  21.417  0.00  0.00    +0.000 A 
ATOM     16  C   UNL     1      21.075  -0.111  22.556  0.00  0.00    +0.000 A 
ATOM     17  C   UNL     1      20.339  -0.528  23.629  0.00  0.00    +0.000 A 
ATOM     18  C   UNL     1      20.179   0.305  24.839  0.00  0.00    +0.000 C 
ENDBRANCH   1   8
BRANCH   4  19
ATOM     19  C   UNL     1      13.138  -0.670  28.401  0.00  0.00    +0.000 C 
BRANCH  19  20
ATOM     20  N   UNL     1      12.074   0.162  27.947  0.00  0.00    +0.000 NA
ATOM     21  C   UNL     1      12.095   1.490  28.508  0.00  0.00    +0.000 C 
ATOM     22  C   UNL     1      11.175   2.443  27.828  0.00  0.00    +0.000 C 
ATOM     23  C   UNL     1       9.953   1.777  27.233  0.00  0.00    +0.000 C 
ATOM     24  C   UNL     1       9.645   0.516  27.971  0.00  0.00    +0.000 C 
ATOM     25  C   UNL     1      10.778  -0.458  27.983  0.00  0.00    +0.000 C 
BRANCH  23  26
ATOM     26  C   UNL     1      10.197   1.597  25.770  0.00  0.00    +0.000 C 
BRANCH  26  27
ATOM     27  C   UNL     1       9.028   1.064  25.034  0.00  0.00    +0.000 A 
ATOM     28  C   UNL     1       7.873   1.793  24.848  0.00  0.00    +0.000 A 
ATOM     29  C   UNL     1       6.786   1.283  24.158  0.00  0.00    +0.000 A 
ATOM     30  C   UNL     1       6.842   0.013  23.633  0.00  0.00    +0.000 A 
ATOM     31  C   UNL     1       7.982  -0.734  23.805  0.00  0.00    +0.000 A 
ATOM     32  C   UNL     1       9.077  -0.208  24.506  0.00  0.00    +0.000 A 
ENDBRANCH  26  27
ENDBRANCH  23  26
ENDBRANCH  19  20
ENDBRANCH   4  19
TORSDOF 5
ENDMDL
MODEL 2
REMARK VINA RESULT:      -8.8      2.143      3.004
REMARK  Name = 
REMARK  5 active torsions:
REMARK  status: ('A' for Active; 'I' for Inactive)
REMARK    1  A    between atoms: C_2  and  C_3
REMARK    2  A    between atoms: C_6  and  C_7
REMARK    3  A    between atoms: C_7  and  N_8
REMARK    4  A    between atoms: C_11  and  C_12
REMARK    5  A    between atoms: C_12  and  C_13
REMARK                            x       y       z     vdW  Elec       q    Type
REMARK                         _______ _______ _______ _____ _____    ______ ____
ROOT
ATOM      1  C   UNL     1      16.646   0.394  26.431  0.00  0.00    +0.000 A 
ATOM      2  C   UNL     1      16.546   0.659  27.797  0.00  0.00    +0.000 A 
ATOM      3  C   UNL     1      15.393   0.289  28.452  0.00  0.00    +0.000 A 
ATOM      4  C   UNL     1      14.354  -0.327  27.804  0.00  0.00    +0.000 A 
ATOM      5  C   UNL     1      14.491  -0.575  26.446  0.00  0.00    +0.000 A 
ATOM      6  C   UNL     1      15.629  -0.219  25.758  0.00  0.00    +0.000 A 
ENDROOT
BRANCH   1   8
ATOM      7  O   UNL     1      17.959   2.015  25.402  0.00  0.00    +0.000 OA
ATOM      8  C   UNL     1      17.865   0.788  25.757  0.00  0.00    +0.000 C 
ATOM      9  N   UNL     1      18.898  -0.137  25.505  0.00  0.00    +0.000 N 
ATOM     10  C   UNL     1      18.756  -1.501  25.918  0.00  0.00    +0.000 C 
ATOM     11  C   UNL     1      18.872  -2.382  24.708  0.00  0.00    +0.000 C 
ATOM     12  C   UNL     1      19.693  -1.804  23.617  0.00  0.00    +0.000 A 
ATOM     13  C   UNL     1      19.859  -2.613  22.501  0.00  0.00    +0.000 A 
ATOM     14  C   UNL     1      20.590  -2.196  21.432  0.00  0.00    +0.000 A 
ATOM     15  C   UNL     1      21.181  -0.960  21.442  0.00  0.00    +0.000 A 
ATOM     16  C   UNL     1      21.011  -0.148  22.566  0.00  0.00    +0.000 A 
ATOM     17  C   UNL     1      20.277  -0.562  23.642  0.00  0.00    +0.000 A 
ATOM     18  C   UNL     1      20.092   0.289  24.836  0.00  0.00    +0.000 C 
ENDBRANCH   1   8
BRANCH   4  19
ATOM     19  C   UNL     1      13.085  -0.753  28.447  0.00  0.00    +0.000 C 
BRANCH  19  20
ATOM     20  N   UNL     1      12.137  -1.032  27.419  0.00  0.00    +0.000 NA
ATOM     21  C   UNL     1      11.212   0.045  27.174  0.00  0.00    +0.000 C 
ATOM     22  C   UNL     1      10.419  -0.118  25.925  0.00  0.00    +0.000 C 
ATOM     23  C   UNL     1      10.177  -1.565  25.552  0.00  0.00    +0.000 C 
ATOM     24  C   UNL     1      10.223  -2.424  26.772  0.00  0.00    +0.000 C 
ATOM     25  C   UNL     1      11.509  -2.320  27.526  0.00  0.00    +0.000 C 
BRANCH  23  26
ATOM     26  C   UNL     1      11.165  -1.935  24.493  0.00  0.00    +0.000 C 
BRANCH  26  27
ATOM     27  C   UNL     1      10.762  -3.111  23.690  0.00  0.00    +0.000 A 
ATOM     28  C   UNL     1      11.489  -4.282  23.673  0.00  0.00    +0.000 A 
ATOM     29  C   UNL     1      11.101  -5.376  22.917  0.00  0.00    +0.000 A 
ATOM     30  C   UNL     1       9.959  -5.312  22.154  0.00  0.00    +0.000 A 
ATOM     31  C   UNL     1       9.217  -4.156  22.153  0.00  0.00    +0.000 A 
ATOM     32  C   UNL     1       9.619  -3.054  22.922  0.00  0.00    +0.000 A 
ENDBRANCH  26  27
ENDBRANCH  23  26
ENDBRANCH  19  20
ENDBRANCH   4  19
TORSDOF 5
ENDMDL
MODEL 3
REMARK VINA RESULT:      -8.5     23.525     26.854
REMARK  Name = 
REMARK  5 active torsions:
REMARK  status: ('A' for Active; 'I' for Inactive)
REMARK    1  A    between atoms: C_2  and  C_3
REMARK    2  A    between atoms: C_6  and  C_7
REMARK    3  A    between atoms: C_7  and  N_8
REMARK    4  A    between atoms: C_11  and  C_12
REMARK    5  A    between atoms: C_12  and  C_13
REMARK                            x       y       z     vdW  Elec       q    Type
REMARK                         _______ _______ _______ _____ _____    ______ ____
ROOT
ATOM      1  C   UNL     1      35.805   2.503  15.687  0.00  0.00    +0.000 A 
ATOM      2  C   UNL     1      34.926   3.090  14.777  0.00  0.00    +0.000 A 
ATOM      3  C   UNL     1      35.232   4.338  14.283  0.00  0.00    +0.000 A 
ATOM      4  C   UNL     1      36.367   5.010  14.658  0.00  0.00    +0.000 A 
ATOM      5  C   UNL     1      37.218   4.394  15.565  0.00  0.00    +0.000 A 
ATOM      6  C   UNL     1      36.943   3.147  16.080  0.00  0.00    +0.000 A 
ENDROOT
BRANCH   1   8
ATOM      7  O   UNL     1      34.725   1.146  17.237  0.00  0.00    +0.000 OA
ATOM      8  C   UNL     1      35.469   1.191  16.197  0.00  0.00    +0.000 C 
ATOM      9  N   UNL     1      35.941   0.018  15.574  0.00  0.00    +0.000 N 
ATOM     10  C   UNL     1      36.772   0.107  14.410  0.00  0.00    +0.000 C 
ATOM     11  C   UNL     1      38.075  -0.579  14.699  0.00  0.00    +0.000 C 
ATOM     12  C   UNL     1      37.979  -1.657  15.712  0.00  0.00    +0.000 A 
ATOM     13  C   UNL     1      39.159  -2.343  15.969  0.00  0.00    +0.000 A 
ATOM     14  C   UNL     1      39.200  -3.354  16.878  0.00  0.00    +0.000 A 
ATOM     15  C   UNL     1      38.068  -3.715  17.560  0.00  0.00    +0.000 A 
ATOM     16  C   UNL     1      36.883  -3.022  17.300  0.00  0.00    +0.000 A 
ATOM     17  C   UNL     1      36.836  -2.005  16.388  0.00  0.00    +0.000 A 
ATOM     18  C   UNL     1      35.588  -1.266  16.104  0.00  0.00    +0.000 C 
ENDBRANCH   1   8
BRANCH   4  19
ATOM     19  C   UNL     1      36.758   6.355  14.166  0.00  0.00    +0.000 C 
BRANCH  19  20
ATOM     20  N   UNL     1      37.988   6.717  14.791  0.00  0.00    +0.000 NA
ATOM     21  C   UNL     1      37.900   7.904  15.603  0.00  0.00    +0.000 C 
ATOM     22  C   UNL     1      39.083   8.120  16.480  0.00  0.00    +0.000 C 
ATOM     23  C   UNL     1      40.367   7.562  15.903  0.00  0.00    +0.000 C 
ATOM     24  C   UNL     1      40.280   7.508  14.414  0.00  0.00    +0.000 C 
ATOM     25  C   UNL     1      39.126   6.701  13.914  0.00  0.00    +0.000 C 
BRANCH  23  26
ATOM     26  C   UNL     1      40.628   6.246  16.560  0.00  0.00    +0.000 C 
BRANCH  26  27
ATOM     27  C   UNL     1      41.215   6.363  17.914  0.00  0.00    +0.000 A 
ATOM     28  C   UNL     1      40.473   6.186  19.062  0.00  0.00    +0.000 A 
ATOM     29  C   UNL     1      41.033   6.297  20.323  0.00  0.00    +0.000 A 
ATOM     30  C   UNL     1      42.370   6.594  20.456  0.00  0.00    +0.000 A 
ATOM     31  C   UNL     1      43.131   6.775  19.326  0.00  0.00    +0.000 A 
ATOM     32  C   UNL     1      42.553   6.660  18.054  0.00  0.00    +0.000 A 
ENDBRANCH  26  27
ENDBRANCH  23  26
ENDBRANCH  19  20
ENDBRANCH   4  19
TORSDOF 5
ENDMDL
MODEL 4
REMARK VINA RESULT:      -8.4     22.905     26.993
REMARK  Name = 
REMARK  5 active torsions:
REMARK  status: ('A' for Active; 'I' for Inactive)
REMARK    1  A    between atoms: C_2  and  C_3
REMARK    2  A    between atoms: C_6  and  C_7
REMARK    3  A    between atoms: C_7  and  N_8
REMARK    4  A    between atoms: C_11  and  C_12
REMARK    5  A    between atoms: C_12  and  C_13
REMARK                            x       y       z     vdW  Elec       q    Type
REMARK                         _______ _______ _______ _____ _____    ______ ____
ROOT
ATOM      1  C   UNL     1      37.799   1.292  14.386  0.00  0.00    +0.000 A 
ATOM      2  C   UNL     1      36.537   1.882  14.314  0.00  0.00    +0.000 A 
ATOM      3  C   UNL     1      36.434   3.237  14.537  0.00  0.00    +0.000 A 
ATOM      4  C   UNL     1      37.529   4.012  14.823  0.00  0.00    +0.000 A 
ATOM      5  C   UNL     1      38.768   3.389  14.884  0.00  0.00    +0.000 A 
ATOM      6  C   UNL     1      38.907   2.036  14.668  0.00  0.00    +0.000 A 
ENDROOT
BRANCH   1   8
ATOM      7  O   UNL     1      38.347  -0.503  13.012  0.00  0.00    +0.000 OA
ATOM      8  C   UNL     1      37.889  -0.133  14.148  0.00  0.00    +0.000 C 
ATOM      9  N   UNL     1      37.490  -1.067  15.125  0.00  0.00    +0.000 N 
ATOM     10  C   UNL     1      36.983  -0.615  16.386  0.00  0.00    +0.000 C 
ATOM     11  C   UNL     1      35.596  -1.161  16.567  0.00  0.00    +0.000 C 
ATOM     12  C   UNL     1      35.350  -2.435  15.850  0.00  0.00    +0.000 A 
ATOM     13  C   UNL     1      34.091  -2.991  16.035  0.00  0.00    +0.000 A 
ATOM     14  C   UNL     1      33.743  -4.159  15.430  0.00  0.00    +0.000 A 
ATOM     15  C   UNL     1      34.638  -4.811  14.623  0.00  0.00    +0.000 A 
ATOM     16  C   UNL     1      35.903  -4.248  14.440  0.00  0.00    +0.000 A 
ATOM     17  C   UNL     1      36.258  -3.075  15.044  0.00  0.00    +0.000 A 
ATOM     18  C   UNL     1      37.594  -2.472  14.858  0.00  0.00    +0.000 C 
ENDBRANCH   1   8
BRANCH   4  19
ATOM     19  C   UNL     1      37.492   5.475  15.073  0.00  0.00    +0.000 C 
BRANCH  19  20
ATOM     20  N   UNL     1      38.239   5.742  16.257  0.00  0.00    +0.000 NA
ATOM     21  C   UNL     1      38.001   4.799  17.320  0.00  0.00    +0.000 C 
ATOM     22  C   UNL     1      38.978   4.896  18.439  0.00  0.00    +0.000 C 
ATOM     23  C   UNL     1      39.532   6.291  18.632  0.00  0.00    +0.000 C 
ATOM     24  C   UNL     1      38.561   7.304  18.123  0.00  0.00    +0.000 C 
ATOM     25  C   UNL     1      38.202   7.114  16.685  0.00  0.00    +0.000 C 
BRANCH  23  26
ATOM     26  C   UNL     1      40.879   6.341  17.987  0.00  0.00    +0.000 C 
BRANCH  26  27
ATOM     27  C   UNL     1      41.995   6.473  18.951  0.00  0.00    +0.000 A 
ATOM     28  C   UNL     1      41.827   6.300  20.308  0.00  0.00    +0.000 A 
ATOM     29  C   UNL     1      42.879   6.427  21.200  0.00  0.00    +0.000 A 
ATOM     30  C   UNL     1      44.137   6.734  20.737  0.00  0.00    +0.000 A 
ATOM     31  C   UNL     1      44.330   6.912  19.388  0.00  0.00    +0.000 A 
ATOM     32  C   UNL     1      43.258   6.781  18.494  0.00  0.00    +0.000 A 
ENDBRANCH  26  27
ENDBRANCH  23  26
ENDBRANCH  19  20
ENDBRANCH   4  19
TORSDOF 5
ENDMDL
MODEL 5
REMARK VINA RESULT:      -8.4     23.220     26.828
REMARK  Name = 
REMARK  5 active torsions:
REMARK  status: ('A' for Active; 'I' for Inactive)
REMARK    1  A    between atoms: C_2  and  C_3
REMARK    2  A    between atoms: C_6  and  C_7
REMARK    3  A    between atoms: C_7  and  N_8
REMARK    4  A    between atoms: C_11  and  C_12
REMARK    5  A    between atoms: C_12  and  C_13
REMARK                            x       y       z     vdW  Elec       q    Type
REMARK                         _______ _______ _______ _____ _____    ______ ____
ROOT
ATOM      1  C   UNL     1      39.159   5.269  16.326  0.00  0.00    +0.000 A 
ATOM      2  C   UNL     1      38.469   5.329  15.115  0.00  0.00    +0.000 A 
ATOM      3  C   UNL     1      37.290   4.628  14.998  0.00  0.00    +0.000 A 
ATOM      4  C   UNL     1      36.782   3.883  16.031  0.00  0.00    +0.000 A 
ATOM      5  C   UNL     1      37.495   3.848  17.220  0.00  0.00    +0.000 A 
ATOM      6  C   UNL     1      38.678   4.536  17.373  0.00  0.00    +0.000 A 
ENDROOT
BRANCH   1   8
ATOM      7  O   UNL     1      41.196   5.951  15.435  0.00  0.00    +0.000 OA
ATOM      8  C   UNL     1      40.397   6.011  16.433  0.00  0.00    +0.000 C 
ATOM      9  N   UNL     1      40.705   6.764  17.584  0.00  0.00    +0.000 N 
ATOM     10  C   UNL     1      39.785   6.808  18.681  0.00  0.00    +0.000 C 
ATOM     11  C   UNL     1      40.480   6.294  19.908  0.00  0.00    +0.000 C 
ATOM     12  C   UNL     1      41.949   6.490  19.898  0.00  0.00    +0.000 A 
ATOM     13  C   UNL     1      42.617   6.067  21.039  0.00  0.00    +0.000 A 
ATOM     14  C   UNL     1      43.967   6.192  21.151  0.00  0.00    +0.000 A 
ATOM     15  C   UNL     1      44.695   6.743  20.129  0.00  0.00    +0.000 A 
ATOM     16  C   UNL     1      44.020   7.166  18.982  0.00  0.00    +0.000 A 
ATOM     17  C   UNL     1      42.664   7.042  18.865  0.00  0.00    +0.000 A 
ATOM     18  C   UNL     1      41.940   7.488  17.656  0.00  0.00    +0.000 C 
ENDBRANCH   1   8
BRANCH   4  19
ATOM     19  C   UNL     1      35.518   3.105  15.974  0.00  0.00    +0.000 C 
BRANCH  19  20
ATOM     20  N   UNL     1      35.851   1.720  15.916  0.00  0.00    +0.000 NA
ATOM     21  C   UNL     1      35.874   1.184  14.578  0.00  0.00    +0.000 C 
ATOM     22  C   UNL     1      36.496  -0.165  14.483  0.00  0.00    +0.000 C 
ATOM     23  C   UNL     1      36.333  -0.991  15.741  0.00  0.00    +0.000 C 
ATOM     24  C   UNL     1      35.120  -0.551  16.491  0.00  0.00    +0.000 C 
ATOM     25  C   UNL     1      35.138   0.898  16.854  0.00  0.00    +0.000 C 
BRANCH  23  26
ATOM     26  C   UNL     1      37.609  -0.901  16.514  0.00  0.00    +0.000 C 
BRANCH  26  27
ATOM     27  C   UNL     1      37.982  -2.164  17.193  0.00  0.00    +0.000 A 
ATOM     28  C   UNL     1      38.055  -3.369  16.528  0.00  0.00    +0.000 A 
ATOM     29  C   UNL     1      38.406  -4.543  17.173  0.00  0.00    +0.000 A 
ATOM     30  C   UNL     1      38.694  -4.526  18.518  0.00  0.00    +0.000 A 
ATOM     31  C   UNL     1      38.628  -3.337  19.203  0.00  0.00    +0.000 A 
ATOM     32  C   UNL     1      38.272  -2.155  18.540  0.00  0.00    +0.000 A 
ENDBRANCH  26  27
ENDBRANCH  23  26
ENDBRANCH  19  20
ENDBRANCH   4  19
TORSDOF 5
ENDMDL
MODEL 6
REMARK VINA RESULT:      -8.3     23.796     27.490
REMARK  Name = 
REMARK  5 active torsions:
REMARK  status: ('A' for Active; 'I' for Inactive)
REMARK    1  A    between atoms: C_2  and  C_3
REMARK    2  A    between atoms: C_6  and  C_7
REMARK    3  A    between atoms: C_7  and  N_8
REMARK    4  A    between atoms: C_11  and  C_12
REMARK    5  A    between atoms: C_12  and  C_13
REMARK                            x       y       z     vdW  Elec       q    Type
REMARK                         _______ _______ _______ _____ _____    ______ ____
ROOT
ATOM      1  C   UNL     1      38.934   5.123  15.529  0.00  0.00    +0.000 A 
ATOM      2  C   UNL     1      37.754   5.706  15.066  0.00  0.00    +0.000 A 
ATOM      3  C   UNL     1      36.684   4.885  14.786  0.00  0.00    +0.000 A 
ATOM      4  C   UNL     1      36.749   3.525  14.951  0.00  0.00    +0.000 A 
ATOM      5  C   UNL     1      37.939   2.982  15.415  0.00  0.00    +0.000 A 
ATOM      6  C   UNL     1      39.029   3.773  15.704  0.00  0.00    +0.000 A 
ENDROOT
BRANCH   1   8
ATOM      7  O   UNL     1      40.953   6.103  14.919  0.00  0.00    +0.000 OA
ATOM      8  C   UNL     1      40.048   6.000  15.818  0.00  0.00    +0.000 C 
ATOM      9  N   UNL     1      40.131   6.707  17.035  0.00  0.00    +0.000 N 
ATOM     10  C   UNL     1      39.098   6.567  18.017  0.00  0.00    +0.000 C 
ATOM     11  C   UNL     1      39.713   6.060  19.289  0.00  0.00    +0.000 C 
ATOM     12  C   UNL     1      41.138   6.431  19.461  0.00  0.00    +0.000 A 
ATOM     13  C   UNL     1      41.725   6.017  20.649  0.00  0.00    +0.000 A 
ATOM     14  C   UNL     1      43.028   6.296  20.925  0.00  0.00    +0.000 A 
ATOM     15  C   UNL     1      43.788   6.996  20.025  0.00  0.00    +0.000 A 
ATOM     16  C   UNL     1      43.194   7.410  18.830  0.00  0.00    +0.000 A 
ATOM     17  C   UNL     1      41.886   7.133  18.549  0.00  0.00    +0.000 A 
ATOM     18  C   UNL     1      41.248   7.568  17.288  0.00  0.00    +0.000 C 
ENDBRANCH   1   8
BRANCH   4  19
ATOM     19  C   UNL     1      35.637   2.583  14.671  0.00  0.00    +0.000 C 
BRANCH  19  20
ATOM     20  N   UNL     1      36.107   1.258  14.908  0.00  0.00    +0.000 NA
ATOM     21  C   UNL     1      36.270   0.475  13.708  0.00  0.00    +0.000 C 
ATOM     22  C   UNL     1      37.026  -0.790  13.915  0.00  0.00    +0.000 C 
ATOM     23  C   UNL     1      36.862  -1.366  15.305  0.00  0.00    +0.000 C 
ATOM     24  C   UNL     1      35.565  -0.923  15.895  0.00  0.00    +0.000 C 
ATOM     25  C   UNL     1      35.417   0.563  15.960  0.00  0.00    +0.000 C 
BRANCH  23  26
ATOM     26  C   UNL     1      38.070  -0.988  16.101  0.00  0.00    +0.000 C 
BRANCH  26  27
ATOM     27  C   UNL     1      39.346  -1.210  15.384  0.00  0.00    +0.000 A 
ATOM     28  C   UNL     1      40.027  -0.193  14.750  0.00  0.00    +0.000 A 
ATOM     29  C   UNL     1      41.221  -0.412  14.084  0.00  0.00    +0.000 A 
ATOM     30  C   UNL     1      41.760  -1.677  14.042  0.00  0.00    +0.000 A 
ATOM     31  C   UNL     1      41.100  -2.708  14.666  0.00  0.00    +0.000 A 
ATOM     32  C   UNL     1      39.892  -2.474  15.338  0.00  0.00    +0.000 A 
ENDBRANCH  26  27
ENDBRANCH  23  26
ENDBRANCH  19  20
ENDBRANCH   4  19
TORSDOF 5
ENDMDL
MODEL 7
REMARK VINA RESULT:      -8.0     22.986     26.724
REMARK  Name = 
REMARK  5 active torsions:
REMARK  status: ('A' for Active; 'I' for Inactive)
REMARK    1  A    between atoms: C_2  and  C_3
REMARK    2  A    between atoms: C_6  and  C_7
REMARK    3  A    between atoms: C_7  and  N_8
REMARK    4  A    between atoms: C_11  and  C_12
REMARK    5  A    between atoms: C_12  and  C_13
REMARK                            x       y       z     vdW  Elec       q    Type
REMARK                         _______ _______ _______ _____ _____    ______ ____
ROOT
ATOM      1  C   UNL     1      38.736   5.884  16.559  0.00  0.00    +0.000 A 
ATOM      2  C   UNL     1      37.942   4.737  16.555  0.00  0.00    +0.000 A 
ATOM      3  C   UNL     1      38.255   3.727  15.674  0.00  0.00    +0.000 A 
ATOM      4  C   UNL     1      39.316   3.818  14.810  0.00  0.00    +0.000 A 
ATOM      5  C   UNL     1      40.083   4.974  14.844  0.00  0.00    +0.000 A 
ATOM      6  C   UNL     1      39.799   6.004  15.712  0.00  0.00    +0.000 A 
ENDROOT
BRANCH   1   8
ATOM      7  O   UNL     1      37.589   7.840  17.076  0.00  0.00    +0.000 OA
ATOM      8  C   UNL     1      38.394   6.936  17.492  0.00  0.00    +0.000 C 
ATOM      9  N   UNL     1      38.925   6.962  18.797  0.00  0.00    +0.000 N 
ATOM     10  C   UNL     1      39.823   5.932  19.227  0.00  0.00    +0.000 C 
ATOM     11  C   UNL     1      41.119   6.569  19.637  0.00  0.00    +0.000 C 
ATOM     12  C   UNL     1      40.981   7.965  20.116  0.00  0.00    +0.000 A 
ATOM     13  C   UNL     1      42.156   8.568  20.548  0.00  0.00    +0.000 A 
ATOM     14  C   UNL     1      42.161   9.848  21.010  0.00  0.00    +0.000 A 
ATOM     15  C   UNL     1      40.996  10.568  21.058  0.00  0.00    +0.000 A 
ATOM     16  C   UNL     1      39.817   9.958  20.623  0.00  0.00    +0.000 A 
ATOM     17  C   UNL     1      39.806   8.673  20.158  0.00  0.00    +0.000 A 
ATOM     18  C   UNL     1      38.564   8.019  19.696  0.00  0.00    +0.000 C 
ENDBRANCH   1   8
BRANCH   4  19
ATOM     19  C   UNL     1      39.710   2.769  13.836  0.00  0.00    +0.000 C 
BRANCH  19  20
ATOM     20  N   UNL     1      38.765   1.705  13.922  0.00  0.00    +0.000 NA
ATOM     21  C   UNL     1      39.285   0.515  14.546  0.00  0.00    +0.000 C 
ATOM     22  C   UNL     1      38.239  -0.483  14.900  0.00  0.00    +0.000 C 
ATOM     23  C   UNL     1      37.038  -0.446  13.979  0.00  0.00    +0.000 C 
ATOM     24  C   UNL     1      37.432   0.090  12.642  0.00  0.00    +0.000 C 
ATOM     25  C   UNL     1      38.045   1.451  12.704  0.00  0.00    +0.000 C 
BRANCH  23  26
ATOM     26  C   UNL     1      35.960   0.327  14.666  0.00  0.00    +0.000 C 
BRANCH  26  27
ATOM     27  C   UNL     1      35.798  -0.021  16.096  0.00  0.00    +0.000 A 
ATOM     28  C   UNL     1      35.398  -1.271  16.514  0.00  0.00    +0.000 A 
ATOM     29  C   UNL     1      35.251  -1.585  17.855  0.00  0.00    +0.000 A 
ATOM     30  C   UNL     1      35.506  -0.633  18.814  0.00  0.00    +0.000 A 
ATOM     31  C   UNL     1      35.906   0.622  18.422  0.00  0.00    +0.000 A 
ATOM     32  C   UNL     1      36.052   0.929  17.062  0.00  0.00    +0.000 A 
ENDBRANCH  26  27
ENDBRANCH  23  26
ENDBRANCH  19  20
ENDBRANCH   4  19
TORSDOF 5
ENDMDL
MODEL 8
REMARK VINA RESULT:      -8.0     20.851     24.004
REMARK  Name = 
REMARK  5 active torsions:
REMARK  status: ('A' for Active; 'I' for Inactive)
REMARK    1  A    between atoms: C_2  and  C_3
REMARK    2  A    between atoms: C_6  and  C_7
REMARK    3  A    between atoms: C_7  and  N_8
REMARK    4  A    between atoms: C_11  and  C_12
REMARK    5  A    between atoms: C_12  and  C_13
REMARK                            x       y       z     vdW  Elec       q    Type
REMARK                         _______ _______ _______ _____ _____    ______ ____
ROOT
ATOM      1  C   UNL     1      24.514  17.001  39.142  0.00  0.00    +0.000 A 
ATOM      2  C   UNL     1      25.121  17.726  40.167  0.00  0.00    +0.000 A 
ATOM      3  C   UNL     1      25.128  17.187  41.434  0.00  0.00    +0.000 A 
ATOM      4  C   UNL     1      24.560  15.970  41.709  0.00  0.00    +0.000 A 
ATOM      5  C   UNL     1      23.967  15.278  40.663  0.00  0.00    +0.000 A 
ATOM      6  C   UNL     1      23.941  15.787  39.384  0.00  0.00    +0.000 A 
ENDROOT
BRANCH   1   8
ATOM      7  O   UNL     1      23.597  18.435  37.555  0.00  0.00    +0.000 OA
ATOM      8  C   UNL     1      24.516  17.582  37.816  0.00  0.00    +0.000 C 
ATOM      9  N   UNL     1      25.485  17.223  36.858  0.00  0.00    +0.000 N 
ATOM     10  C   UNL     1      26.498  16.265  37.186  0.00  0.00    +0.000 C 
ATOM     11  C   UNL     1      26.401  15.117  36.224  0.00  0.00    +0.000 C 
ATOM     12  C   UNL     1      25.838  15.483  34.902  0.00  0.00    +0.000 A 
ATOM     13  C   UNL     1      25.777  14.453  33.972  0.00  0.00    +0.000 A 
ATOM     14  C   UNL     1      25.280  14.662  32.724  0.00  0.00    +0.000 A 
ATOM     15  C   UNL     1      24.827  15.903  32.360  0.00  0.00    +0.000 A 
ATOM     16  C   UNL     1      24.889  16.936  33.299  0.00  0.00    +0.000 A 
ATOM     17  C   UNL     1      25.387  16.732  34.555  0.00  0.00    +0.000 A 
ATOM     18  C   UNL     1      25.458  17.818  35.554  0.00  0.00    +0.000 C 
ENDBRANCH   1   8
BRANCH   4  19
ATOM     19  C   UNL     1      24.532  15.330  43.049  0.00  0.00    +0.000 C 
BRANCH  19  20
ATOM     20  N   UNL     1      25.145  14.047  42.942  0.00  0.00    +0.000 NA
ATOM     21  C   UNL     1      24.361  12.979  43.507  0.00  0.00    +0.000 C 
ATOM     22  C   UNL     1      24.849  11.620  43.146  0.00  0.00    +0.000 C 
ATOM     23  C   UNL     1      26.342  11.561  42.910  0.00  0.00    +0.000 C 
ATOM     24  C   UNL     1      27.025  12.649  43.671  0.00  0.00    +0.000 C 
ATOM     25  C   UNL     1      26.528  14.016  43.332  0.00  0.00    +0.000 C 
BRANCH  23  26
ATOM     26  C   UNL     1      26.574  11.596  41.434  0.00  0.00    +0.000 C 
BRANCH  26  27
ATOM     27  C   UNL     1      27.937  11.177  41.036  0.00  0.00    +0.000 A 
ATOM     28  C   UNL     1      28.908  12.077  40.653  0.00  0.00    +0.000 A 
ATOM     29  C   UNL     1      30.179  11.673  40.283  0.00  0.00    +0.000 A 
ATOM     30  C   UNL     1      30.503  10.336  40.292  0.00  0.00    +0.000 A 
ATOM     31  C   UNL     1      29.553   9.419  40.670  0.00  0.00    +0.000 A 
ATOM     32  C   UNL     1      28.268   9.839  41.042  0.00  0.00    +0.000 A 
ENDBRANCH  26  27
ENDBRANCH  23  26
ENDBRANCH  19  20
ENDBRANCH   4  19
TORSDOF 5
ENDMDL
MODEL 9
REMARK VINA RESULT:      -8.0     23.205     26.297
REMARK  Name = 
REMARK  5 active torsions:
REMARK  status: ('A' for Active; 'I' for Inactive)
REMARK    1  A    between atoms: C_2  and  C_3
REMARK    2  A    between atoms: C_6  and  C_7
REMARK    3  A    between atoms: C_7  and  N_8
REMARK    4  A    between atoms: C_11  and  C_12
REMARK    5  A    between atoms: C_12  and  C_13
REMARK                            x       y       z     vdW  Elec       q    Type
REMARK                         _______ _______ _______ _____ _____    ______ ____
ROOT
ATOM      1  C   UNL     1      36.682   3.080  15.796  0.00  0.00    +0.000 A 
ATOM      2  C   UNL     1      37.373   2.045  15.167  0.00  0.00    +0.000 A 
ATOM      3  C   UNL     1      36.896   0.761  15.305  0.00  0.00    +0.000 A 
ATOM      4  C   UNL     1      35.771   0.478  16.035  0.00  0.00    +0.000 A 
ATOM      5  C   UNL     1      35.109   1.534  16.645  0.00  0.00    +0.000 A 
ATOM      6  C   UNL     1      35.558   2.831  16.529  0.00  0.00    +0.000 A 
ENDROOT
BRANCH   1   8
ATOM      7  O   UNL     1      38.124   4.786  16.446  0.00  0.00    +0.000 OA
ATOM      8  C   UNL     1      37.196   4.424  15.641  0.00  0.00    +0.000 C 
ATOM      9  N   UNL     1      36.698   5.292  14.650  0.00  0.00    +0.000 N 
ATOM     10  C   UNL     1      35.659   4.852  13.766  0.00  0.00    +0.000 C 
ATOM     11  C   UNL     1      34.483   5.773  13.914  0.00  0.00    +0.000 C 
ATOM     12  C   UNL     1      34.841   7.146  14.343  0.00  0.00    +0.000 A 
ATOM     13  C   UNL     1      33.780   8.037  14.445  0.00  0.00    +0.000 A 
ATOM     14  C   UNL     1      33.979   9.326  14.829  0.00  0.00    +0.000 A 
ATOM     15  C   UNL     1      35.242   9.771  15.124  0.00  0.00    +0.000 A 
ATOM     16  C   UNL     1      36.306   8.872  15.022  0.00  0.00    +0.000 A 
ATOM     17  C   UNL     1      36.112   7.575  14.636  0.00  0.00    +0.000 A 
ATOM     18  C   UNL     1      37.231   6.617  14.523  0.00  0.00    +0.000 C 
ENDBRANCH   1   8
BRANCH   4  19
ATOM     19  C   UNL     1      35.201  -0.880  16.224  0.00  0.00    +0.000 C 
BRANCH  19  20
ATOM     20  N   UNL     1      36.266  -1.824  16.146  0.00  0.00    +0.000 NA
ATOM     21  C   UNL     1      36.397  -2.448  14.853  0.00  0.00    +0.000 C 
ATOM     22  C   UNL     1      37.667  -3.204  14.678  0.00  0.00    +0.000 C 
ATOM     23  C   UNL     1      38.208  -3.776  15.971  0.00  0.00    +0.000 C 
ATOM     24  C   UNL     1      37.095  -3.993  16.942  0.00  0.00    +0.000 C 
ATOM     25  C   UNL     1      36.318  -2.752  17.242  0.00  0.00    +0.000 C 
BRANCH  23  26
ATOM     26  C   UNL     1      39.289  -2.866  16.456  0.00  0.00    +0.000 C 
BRANCH  26  27
ATOM     27  C   UNL     1      40.077  -2.246  15.366  0.00  0.00    +0.000 A 
ATOM     28  C   UNL     1      40.957  -2.964  14.586  0.00  0.00    +0.000 A 
ATOM     29  C   UNL     1      41.688  -2.372  13.569  0.00  0.00    +0.000 A 
ATOM     30  C   UNL     1      41.545  -1.028  13.315  0.00  0.00    +0.000 A 
ATOM     31  C   UNL     1      40.674  -0.290  14.079  0.00  0.00    +0.000 A 
ATOM     32  C   UNL     1      39.939  -0.900  15.106  0.00  0.00    +0.000 A 
ENDBRANCH  26  27
ENDBRANCH  23  26
ENDBRANCH  19  20
ENDBRANCH   4  19
TORSDOF 5
ENDMDL
MODEL 10
REMARK VINA RESULT:      -8.0     22.830     24.810
REMARK  Name = 
REMARK  5 active torsions:
REMARK  status: ('A' for Active; 'I' for Inactive)
REMARK    1  A    between atoms: C_2  and  C_3
REMARK    2  A    between atoms: C_6  and  C_7
REMARK    3  A    between atoms: C_7  and  N_8
REMARK    4  A    between atoms: C_11  and  C_12
REMARK    5  A    between atoms: C_12  and  C_13
REMARK                            x       y       z     vdW  Elec       q    Type
REMARK                         _______ _______ _______ _____ _____    ______ ____
ROOT
ATOM      1  C   UNL     1      36.501   2.569  15.732  0.00  0.00    +0.000 A 
ATOM      2  C   UNL     1      37.678   2.662  14.989  0.00  0.00    +0.000 A 
ATOM      3  C   UNL     1      37.675   3.440  13.853  0.00  0.00    +0.000 A 
ATOM      4  C   UNL     1      36.559   4.119  13.439  0.00  0.00    +0.000 A 
ATOM      5  C   UNL     1      35.407   4.004  14.205  0.00  0.00    +0.000 A 
ATOM      6  C   UNL     1      35.373   3.234  15.346  0.00  0.00    +0.000 A 
ENDROOT
BRANCH   1   8
ATOM      7  O   UNL     1      36.835   2.326  18.021  0.00  0.00    +0.000 OA
ATOM      8  C   UNL     1      36.520   1.748  16.923  0.00  0.00    +0.000 C 
ATOM      9  N   UNL     1      36.206   0.375  16.874  0.00  0.00    +0.000 N 
ATOM     10  C   UNL     1      35.857  -0.237  15.627  0.00  0.00    +0.000 C 
ATOM     11  C   UNL     1      36.824  -1.352  15.354  0.00  0.00    +0.000 C 
ATOM     12  C   UNL     1      37.408  -1.958  16.575  0.00  0.00    +0.000 A 
ATOM     13  C   UNL     1      38.272  -3.024  16.359  0.00  0.00    +0.000 A 
ATOM     14  C   UNL     1      38.872  -3.664  17.399  0.00  0.00    +0.000 A 
ATOM     15  C   UNL     1      38.630  -3.263  18.687  0.00  0.00    +0.000 A 
ATOM     16  C   UNL     1      37.761  -2.191  18.900  0.00  0.00    +0.000 A 
ATOM     17  C   UNL     1      37.155  -1.544  17.859  0.00  0.00    +0.000 A 
ATOM     18  C   UNL     1      36.233  -0.409  18.074  0.00  0.00    +0.000 C 
ENDBRANCH   1   8
BRANCH   4  19
ATOM     19  C   UNL     1      36.486   4.974  12.228  0.00  0.00    +0.000 C 
BRANCH  19  20
ATOM     20  N   UNL     1      35.769   6.160  12.564  0.00  0.00    +0.000 NA
ATOM     21  C   UNL     1      34.897   6.628  11.516  0.00  0.00    +0.000 C 
ATOM     22  C   UNL     1      33.941   7.680  11.957  0.00  0.00    +0.000 C 
ATOM     23  C   UNL     1      34.470   8.538  13.087  0.00  0.00    +0.000 C 
ATOM     24  C   UNL     1      35.963   8.556  13.061  0.00  0.00    +0.000 C 
ATOM     25  C   UNL     1      36.576   7.196  13.149  0.00  0.00    +0.000 C 
BRANCH  23  26
ATOM     26  C   UNL     1      33.876   8.033  14.361  0.00  0.00    +0.000 C 
BRANCH  26  27
ATOM     27  C   UNL     1      33.691   9.083  15.388  0.00  0.00    +0.000 A 
ATOM     28  C   UNL     1      33.163   8.819  16.633  0.00  0.00    +0.000 A 
ATOM     29  C   UNL     1      32.995   9.810  17.585  0.00  0.00    +0.000 A 
ATOM     30  C   UNL     1      33.361  11.104  17.299  0.00  0.00    +0.000 A 
ATOM     31  C   UNL     1      33.890  11.394  16.064  0.00  0.00    +0.000 A 
ATOM     32  C   UNL     1      34.056  10.383  15.108  0.00  0.00    +0.000 A 
ENDBRANCH  26  27
ENDBRANCH  23  26
ENDBRANCH  19  20
ENDBRANCH   4  19
TORSDOF 5
ENDMDL
