MODEL 1
REMARK VINA RESULT:      -7.2      0.000      0.000
REMARK  Name = 
REMARK  2 active torsions:
REMARK  status: ('A' for Active; 'I' for Inactive)
REMARK    1  A    between atoms: N_6  and  C_7
REMARK    2  A    between atoms: C_10  and  C_11
REMARK                            x       y       z     vdW  Elec       q    Type
REMARK                         _______ _______ _______ _____ _____    ______ ____
ROOT
ATOM      1  C   UNL     1      17.846  -8.733  28.052  0.00  0.00    +0.000 C 
ATOM      2  C   UNL     1      18.875  -8.127  27.169  0.00  0.00    +0.000 A 
ATOM      3  C   UNL     1      20.002  -8.868  26.890  0.00  0.00    +0.000 A 
ATOM      4  C   UNL     1      20.986  -8.372  26.088  0.00  0.00    +0.000 A 
ATOM      5  N   UNL     1      22.176  -8.783  25.613  0.00  0.00    +0.000 NA
ATOM      6  N   UNL     1      22.723  -7.860  24.849  0.00  0.00    +0.000 N 
ATOM      7  N   UNL     1      21.878  -6.841  24.830  0.00  0.00    +0.000 NA
ATOM      8  C   UNL     1      20.792  -7.102  25.576  0.00  0.00    +0.000 A 
ATOM      9  C   UNL     1      19.674  -6.357  25.846  0.00  0.00    +0.000 A 
ATOM     10  C   UNL     1      18.680  -6.859  26.659  0.00  0.00    +0.000 A 
ATOM     11  N   UNL     1      17.500  -6.105  26.959  0.00  0.00    +0.000 NA
ENDROOT
BRANCH   6  12
ATOM     12  C   UNL     1      23.975  -7.946  24.178  0.00  0.00    +0.000 A 
ATOM     13  C   UNL     1      24.556  -9.174  23.943  0.00  0.00    +0.000 A 
ATOM     14  C   UNL     1      25.770  -9.309  23.297  0.00  0.00    +0.000 A 
ATOM     15  C   UNL     1      26.463  -8.203  22.852  0.00  0.00    +0.000 A 
ATOM     16  C   UNL     1      25.878  -6.975  23.089  0.00  0.00    +0.000 A 
ATOM     17  C   UNL     1      24.666  -6.838  23.734  0.00  0.00    +0.000 A 
BRANCH  15  18
ATOM     18  C   UNL     1      27.766  -8.287  22.153  0.00  0.00    +0.000 C 
ATOM     19  C   UNL     1      28.798  -9.051  22.953  0.00  0.00    +0.000 C 
ATOM     20  C   UNL     1      28.341  -6.926  21.861  0.00  0.00    +0.000 C 
ENDBRANCH  15  18
ENDBRANCH   6  12
TORSDOF 2
ENDMDL
MODEL 2
REMARK VINA RESULT:      -7.1     21.828     23.144
REMARK  Name = 
REMARK  2 active torsions:
REMARK  status: ('A' for Active; 'I' for Inactive)
REMARK    1  A    between atoms: N_6  and  C_7
REMARK    2  A    between atoms: C_10  and  C_11
REMARK                            x       y       z     vdW  Elec       q    Type
REMARK                         _______ _______ _______ _____ _____    ______ ____
ROOT
ATOM      1  C   UNL     1      14.762  11.820  30.180  0.00  0.00    +0.000 C 
ATOM      2  C   UNL     1      14.945  11.925  31.650  0.00  0.00    +0.000 A 
ATOM      3  C   UNL     1      15.711  10.963  32.274  0.00  0.00    +0.000 A 
ATOM      4  C   UNL     1      15.919  11.000  33.620  0.00  0.00    +0.000 A 
ATOM      5  N   UNL     1      16.577  10.269  34.539  0.00  0.00    +0.000 NA
ATOM      6  N   UNL     1      16.433  10.784  35.742  0.00  0.00    +0.000 N 
ATOM      7  N   UNL     1      15.674  11.859  35.601  0.00  0.00    +0.000 NA
ATOM      8  C   UNL     1      15.328  12.039  34.315  0.00  0.00    +0.000 A 
ATOM      9  C   UNL     1      14.566  13.000  33.704  0.00  0.00    +0.000 A 
ATOM     10  C   UNL     1      14.356  12.963  32.342  0.00  0.00    +0.000 A 
ATOM     11  N   UNL     1      13.564  13.953  31.676  0.00  0.00    +0.000 NA
ENDROOT
BRANCH   6  12
ATOM     12  C   UNL     1      16.987  10.281  36.953  0.00  0.00    +0.000 A 
ATOM     13  C   UNL     1      18.159   9.554  36.934  0.00  0.00    +0.000 A 
ATOM     14  C   UNL     1      18.735   9.045  38.081  0.00  0.00    +0.000 A 
ATOM     15  C   UNL     1      18.154   9.245  39.315  0.00  0.00    +0.000 A 
ATOM     16  C   UNL     1      16.981   9.973  39.331  0.00  0.00    +0.000 A 
ATOM     17  C   UNL     1      16.404  10.482  38.186  0.00  0.00    +0.000 A 
BRANCH  15  18
ATOM     18  C   UNL     1      18.726   8.724  40.578  0.00  0.00    +0.000 C 
ATOM     19  C   UNL     1      20.220   8.503  40.482  0.00  0.00    +0.000 C 
ATOM     20  C   UNL     1      18.103   7.414  40.984  0.00  0.00    +0.000 C 
ENDBRANCH  15  18
ENDBRANCH   6  12
TORSDOF 2
ENDMDL
MODEL 3
REMARK VINA RESULT:      -7.1     15.389     16.774
REMARK  Name = 
REMARK  2 active torsions:
REMARK  status: ('A' for Active; 'I' for Inactive)
REMARK    1  A    between atoms: N_6  and  C_7
REMARK    2  A    between atoms: C_10  and  C_11
REMARK                            x       y       z     vdW  Elec       q    Type
REMARK                         _______ _______ _______ _____ _____    ______ ____
ROOT
ATOM      1  C   UNL     1      31.492  -6.256  34.934  0.00  0.00    +0.000 C 
ATOM      2  C   UNL     1      32.170  -5.039  34.420  0.00  0.00    +0.000 A 
ATOM      3  C   UNL     1      31.906  -3.840  35.046  0.00  0.00    +0.000 A 
ATOM      4  C   UNL     1      32.494  -2.685  34.625  0.00  0.00    +0.000 A 
ATOM      5  N   UNL     1      32.480  -1.385  34.972  0.00  0.00    +0.000 NA
ATOM      6  N   UNL     1      33.270  -0.680  34.189  0.00  0.00    +0.000 N 
ATOM      7  N   UNL     1      33.801  -1.533  33.327  0.00  0.00    +0.000 NA
ATOM      8  C   UNL     1      33.357  -2.781  33.549  0.00  0.00    +0.000 A 
ATOM      9  C   UNL     1      33.627  -3.968  32.920  0.00  0.00    +0.000 A 
ATOM     10  C   UNL     1      33.032  -5.136  33.346  0.00  0.00    +0.000 A 
ATOM     11  N   UNL     1      33.294  -6.391  32.708  0.00  0.00    +0.000 NA
ENDROOT
BRANCH   6  12
ATOM     12  C   UNL     1      33.505   0.722  34.261  0.00  0.00    +0.000 A 
ATOM     13  C   UNL     1      33.729   1.329  35.478  0.00  0.00    +0.000 A 
ATOM     14  C   UNL     1      33.961   2.686  35.599  0.00  0.00    +0.000 A 
ATOM     15  C   UNL     1      33.979   3.503  34.489  0.00  0.00    +0.000 A 
ATOM     16  C   UNL     1      33.755   2.892  33.271  0.00  0.00    +0.000 A 
ATOM     17  C   UNL     1      33.523   1.537  33.149  0.00  0.00    +0.000 A 
BRANCH  15  18
ATOM     18  C   UNL     1      34.224   4.962  34.558  0.00  0.00    +0.000 C 
ATOM     19  C   UNL     1      34.889   5.372  35.853  0.00  0.00    +0.000 C 
ATOM     20  C   UNL     1      32.949   5.757  34.436  0.00  0.00    +0.000 C 
ENDBRANCH  15  18
ENDBRANCH   6  12
TORSDOF 2
ENDMDL
MODEL 4
REMARK VINA RESULT:      -6.3      1.672      7.996
REMARK  Name = 
REMARK  2 active torsions:
REMARK  status: ('A' for Active; 'I' for Inactive)
REMARK    1  A    between atoms: N_6  and  C_7
REMARK    2  A    between atoms: C_10  and  C_11
REMARK                            x       y       z     vdW  Elec       q    Type
REMARK                         _______ _______ _______ _____ _____    ______ ____
ROOT
ATOM      1  C   UNL     1      28.158  -7.207  22.018  0.00  0.00    +0.000 C 
ATOM      2  C   UNL     1      26.866  -7.799  22.450  0.00  0.00    +0.000 A 
ATOM      3  C   UNL     1      26.057  -7.048  23.274  0.00  0.00    +0.000 A 
ATOM      4  C   UNL     1      24.858  -7.531  23.707  0.00  0.00    +0.000 A 
ATOM      5  N   UNL     1      23.845  -7.107  24.485  0.00  0.00    +0.000 NA
ATOM      6  N   UNL     1      22.899  -8.020  24.564  0.00  0.00    +0.000 N 
ATOM      7  N   UNL     1      23.305  -9.044  23.831  0.00  0.00    +0.000 NA
ATOM      8  C   UNL     1      24.505  -8.797  23.281  0.00  0.00    +0.000 A 
ATOM      9  C   UNL     1      25.302  -9.552  22.461  0.00  0.00    +0.000 A 
ATOM     10  C   UNL     1      26.514  -9.064  22.023  0.00  0.00    +0.000 A 
ATOM     11  N   UNL     1      27.370  -9.829  21.166  0.00  0.00    +0.000 NA
ENDROOT
BRANCH   6  12
ATOM     12  C   UNL     1      21.682  -7.920  25.296  0.00  0.00    +0.000 A 
ATOM     13  C   UNL     1      20.941  -6.758  25.260  0.00  0.00    +0.000 A 
ATOM     14  C   UNL     1      19.755  -6.611  25.952  0.00  0.00    +0.000 A 
ATOM     15  C   UNL     1      19.252  -7.639  26.721  0.00  0.00    +0.000 A 
ATOM     16  C   UNL     1      19.995  -8.802  26.755  0.00  0.00    +0.000 A 
ATOM     17  C   UNL     1      21.181  -8.950  26.064  0.00  0.00    +0.000 A 
BRANCH  15  18
ATOM     18  C   UNL     1      17.986  -7.541  27.483  0.00  0.00    +0.000 C 
ATOM     19  C   UNL     1      17.748  -8.751  28.359  0.00  0.00    +0.000 C 
ATOM     20  C   UNL     1      16.789  -7.399  26.579  0.00  0.00    +0.000 C 
ENDBRANCH  15  18
ENDBRANCH   6  12
TORSDOF 2
ENDMDL
MODEL 5
REMARK VINA RESULT:      -6.2     31.422     31.886
REMARK  Name = 
REMARK  2 active torsions:
REMARK  status: ('A' for Active; 'I' for Inactive)
REMARK    1  A    between atoms: N_6  and  C_7
REMARK    2  A    between atoms: C_10  and  C_11
REMARK                            x       y       z     vdW  Elec       q    Type
REMARK                         _______ _______ _______ _____ _____    ______ ____
ROOT
ATOM      1  C   UNL     1      34.221  20.812  32.314  0.00  0.00    +0.000 C 
ATOM      2  C   UNL     1      33.056  21.295  31.528  0.00  0.00    +0.000 A 
ATOM      3  C   UNL     1      33.158  21.287  30.154  0.00  0.00    +0.000 A 
ATOM      4  C   UNL     1      32.127  21.717  29.373  0.00  0.00    +0.000 A 
ATOM      5  N   UNL     1      31.872  21.851  28.059  0.00  0.00    +0.000 NA
ATOM      6  N   UNL     1      30.664  22.337  27.861  0.00  0.00    +0.000 N 
ATOM      7  N   UNL     1      30.132  22.519  29.059  0.00  0.00    +0.000 NA
ATOM      8  C   UNL     1      30.990  22.154  30.027  0.00  0.00    +0.000 A 
ATOM      9  C   UNL     1      30.878  22.165  31.393  0.00  0.00    +0.000 A 
ATOM     10  C   UNL     1      31.921  21.731  32.182  0.00  0.00    +0.000 A 
ATOM     11  N   UNL     1      31.834  21.730  33.612  0.00  0.00    +0.000 NA
ENDROOT
BRANCH   6  12
ATOM     12  C   UNL     1      30.054  22.610  26.604  0.00  0.00    +0.000 A 
ATOM     13  C   UNL     1      30.822  22.700  25.462  0.00  0.00    +0.000 A 
ATOM     14  C   UNL     1      30.278  22.963  24.220  0.00  0.00    +0.000 A 
ATOM     15  C   UNL     1      28.920  23.150  24.066  0.00  0.00    +0.000 A 
ATOM     16  C   UNL     1      28.154  23.059  25.211  0.00  0.00    +0.000 A 
ATOM     17  C   UNL     1      28.696  22.796  26.453  0.00  0.00    +0.000 A 
BRANCH  15  18
ATOM     18  C   UNL     1      28.281  23.433  22.761  0.00  0.00    +0.000 C 
ATOM     19  C   UNL     1      29.048  24.460  21.958  0.00  0.00    +0.000 C 
ATOM     20  C   UNL     1      26.873  23.946  22.919  0.00  0.00    +0.000 C 
ENDBRANCH  15  18
ENDBRANCH   6  12
TORSDOF 2
ENDMDL
MODEL 6
REMARK VINA RESULT:      -6.1     20.278     21.450
REMARK  Name = 
REMARK  2 active torsions:
REMARK  status: ('A' for Active; 'I' for Inactive)
REMARK    1  A    between atoms: N_6  and  C_7
REMARK    2  A    between atoms: C_10  and  C_11
REMARK                            x       y       z     vdW  Elec       q    Type
REMARK                         _______ _______ _______ _____ _____    ______ ____
ROOT
ATOM      1  C   UNL     1      35.870  10.139  39.411  0.00  0.00    +0.000 C 
ATOM      2  C   UNL     1      35.354   9.337  38.273  0.00  0.00    +0.000 A 
ATOM      3  C   UNL     1      35.415   7.963  38.371  0.00  0.00    +0.000 A 
ATOM      4  C   UNL     1      34.960   7.168  37.363  0.00  0.00    +0.000 A 
ATOM      5  N   UNL     1      34.860   5.850  37.112  0.00  0.00    +0.000 NA
ATOM      6  N   UNL     1      34.318   5.635  35.931  0.00  0.00    +0.000 N 
ATOM      7  N   UNL     1      34.066   6.826  35.413  0.00  0.00    +0.000 NA
ATOM      8  C   UNL     1      34.441   7.806  36.251  0.00  0.00    +0.000 A 
ATOM      9  C   UNL     1      34.375   9.170  36.143  0.00  0.00    +0.000 A 
ATOM     10  C   UNL     1      34.836   9.974  37.163  0.00  0.00    +0.000 A 
ATOM     11  N   UNL     1      34.781  11.403  37.080  0.00  0.00    +0.000 NA
ENDROOT
BRANCH   6  12
ATOM     12  C   UNL     1      34.058   4.369  35.335  0.00  0.00    +0.000 A 
ATOM     13  C   UNL     1      33.741   4.281  33.996  0.00  0.00    +0.000 A 
ATOM     14  C   UNL     1      33.480   3.077  33.372  0.00  0.00    +0.000 A 
ATOM     15  C   UNL     1      33.526   1.891  34.073  0.00  0.00    +0.000 A 
ATOM     16  C   UNL     1      33.844   1.981  35.414  0.00  0.00    +0.000 A 
ATOM     17  C   UNL     1      34.105   3.184  36.038  0.00  0.00    +0.000 A 
BRANCH  15  18
ATOM     18  C   UNL     1      33.257   0.571  33.458  0.00  0.00    +0.000 C 
ATOM     19  C   UNL     1      33.061  -0.515  34.492  0.00  0.00    +0.000 C 
ATOM     20  C   UNL     1      34.374   0.130  32.549  0.00  0.00    +0.000 C 
ENDBRANCH  15  18
ENDBRANCH   6  12
TORSDOF 2
ENDMDL
MODEL 7
REMARK VINA RESULT:      -6.0     31.270     32.481
REMARK  Name = 
REMARK  2 active torsions:
REMARK  status: ('A' for Active; 'I' for Inactive)
REMARK    1  A    between atoms: N_6  and  C_7
REMARK    2  A    between atoms: C_10  and  C_11
REMARK                            x       y       z     vdW  Elec       q    Type
REMARK                         _______ _______ _______ _____ _____    ______ ____
ROOT
ATOM      1  C   UNL     1      35.434  23.296  31.279  0.00  0.00    +0.000 C 
ATOM      2  C   UNL     1      34.301  22.794  30.460  0.00  0.00    +0.000 A 
ATOM      3  C   UNL     1      33.883  23.564  29.397  0.00  0.00    +0.000 A 
ATOM      4  C   UNL     1      32.849  23.163  28.605  0.00  0.00    +0.000 A 
ATOM      5  N   UNL     1      32.191  23.628  27.528  0.00  0.00    +0.000 NA
ATOM      6  N   UNL     1      31.236  22.796  27.164  0.00  0.00    +0.000 N 
ATOM      7  N   UNL     1      31.278  21.783  28.014  0.00  0.00    +0.000 NA
ATOM      8  C   UNL     1      32.252  21.957  28.923  0.00  0.00    +0.000 A 
ATOM      9  C   UNL     1      32.661  21.183  29.978  0.00  0.00    +0.000 A 
ATOM     10  C   UNL     1      33.706  21.590  30.778  0.00  0.00    +0.000 A 
ATOM     11  N   UNL     1      34.156  20.802  31.887  0.00  0.00    +0.000 NA
ENDROOT
BRANCH   6  12
ATOM     12  C   UNL     1      30.340  22.960  26.070  0.00  0.00    +0.000 A 
ATOM     13  C   UNL     1      28.979  22.855  26.263  0.00  0.00    +0.000 A 
ATOM     14  C   UNL     1      28.069  23.005  25.234  0.00  0.00    +0.000 A 
ATOM     15  C   UNL     1      28.492  23.270  23.948  0.00  0.00    +0.000 A 
ATOM     16  C   UNL     1      29.855  23.375  23.758  0.00  0.00    +0.000 A 
ATOM     17  C   UNL     1      30.765  23.225  24.785  0.00  0.00    +0.000 A 
BRANCH  15  18
ATOM     18  C   UNL     1      27.564  23.442  22.807  0.00  0.00    +0.000 C 
ATOM     19  C   UNL     1      27.807  24.734  22.059  0.00  0.00    +0.000 C 
ATOM     20  C   UNL     1      26.122  23.439  23.243  0.00  0.00    +0.000 C 
ENDBRANCH  15  18
ENDBRANCH   6  12
TORSDOF 2
ENDMDL
MODEL 8
REMARK VINA RESULT:      -5.9     31.622     34.169
REMARK  Name = 
REMARK  2 active torsions:
REMARK  status: ('A' for Active; 'I' for Inactive)
REMARK    1  A    between atoms: N_6  and  C_7
REMARK    2  A    between atoms: C_10  and  C_11
REMARK                            x       y       z     vdW  Elec       q    Type
REMARK                         _______ _______ _______ _____ _____    ______ ____
ROOT
ATOM      1  C   UNL     1      18.223  27.961  21.756  0.00  0.00    +0.000 C 
ATOM      2  C   UNL     1      16.857  27.385  21.848  0.00  0.00    +0.000 A 
ATOM      3  C   UNL     1      16.691  26.060  21.510  0.00  0.00    +0.000 A 
ATOM      4  C   UNL     1      15.464  25.470  21.572  0.00  0.00    +0.000 A 
ATOM      5  N   UNL     1      14.939  24.255  21.330  0.00  0.00    +0.000 NA
ATOM      6  N   UNL     1      13.643  24.246  21.566  0.00  0.00    +0.000 N 
ATOM      7  N   UNL     1      13.328  25.468  21.964  0.00  0.00    +0.000 NA
ATOM      8  C   UNL     1      14.411  26.263  21.985  0.00  0.00    +0.000 A 
ATOM      9  C   UNL     1      14.565  27.582  22.324  0.00  0.00    +0.000 A 
ATOM     10  C   UNL     1      15.805  28.178  22.262  0.00  0.00    +0.000 A 
ATOM     11  N   UNL     1      15.998  29.555  22.609  0.00  0.00    +0.000 NA
ENDROOT
BRANCH   6  12
ATOM     12  C   UNL     1      12.761  23.139  21.421  0.00  0.00    +0.000 A 
ATOM     13  C   UNL     1      13.068  22.113  20.553  0.00  0.00    +0.000 A 
ATOM     14  C   UNL     1      12.244  21.018  20.377  0.00  0.00    +0.000 A 
ATOM     15  C   UNL     1      11.061  20.902  21.075  0.00  0.00    +0.000 A 
ATOM     16  C   UNL     1      10.756  21.931  21.944  0.00  0.00    +0.000 A 
ATOM     17  C   UNL     1      11.577  23.025  22.120  0.00  0.00    +0.000 A 
BRANCH  15  18
ATOM     18  C   UNL     1      10.140  19.752  20.928  0.00  0.00    +0.000 C 
ATOM     19  C   UNL     1      10.484  18.890  19.734  0.00  0.00    +0.000 C 
ATOM     20  C   UNL     1       8.707  20.190  20.767  0.00  0.00    +0.000 C 
ENDBRANCH  15  18
ENDBRANCH   6  12
TORSDOF 2
ENDMDL
MODEL 9
REMARK VINA RESULT:      -5.8     13.037     14.257
REMARK  Name = 
REMARK  2 active torsions:
REMARK  status: ('A' for Active; 'I' for Inactive)
REMARK    1  A    between atoms: N_6  and  C_7
REMARK    2  A    between atoms: C_10  and  C_11
REMARK                            x       y       z     vdW  Elec       q    Type
REMARK                         _______ _______ _______ _____ _____    ______ ____
ROOT
ATOM      1  C   UNL     1      18.364   0.850  13.508  0.00  0.00    +0.000 C 
ATOM      2  C   UNL     1      19.244   1.256  14.634  0.00  0.00    +0.000 A 
ATOM      3  C   UNL     1      20.420   1.906  14.330  0.00  0.00    +0.000 A 
ATOM      4  C   UNL     1      21.274   2.305  15.314  0.00  0.00    +0.000 A 
ATOM      5  N   UNL     1      22.459   2.937  15.398  0.00  0.00    +0.000 NA
ATOM      6  N   UNL     1      22.837   3.064  16.653  0.00  0.00    +0.000 N 
ATOM      7  N   UNL     1      21.887   2.509  17.388  0.00  0.00    +0.000 NA
ATOM      8  C   UNL     1      20.901   2.025  16.615  0.00  0.00    +0.000 A 
ATOM      9  C   UNL     1      19.733   1.379  16.928  0.00  0.00    +0.000 A 
ATOM     10  C   UNL     1      18.870   0.976  15.932  0.00  0.00    +0.000 A 
ATOM     11  N   UNL     1      17.643   0.299  16.228  0.00  0.00    +0.000 NA
ENDROOT
BRANCH   6  12
ATOM     12  C   UNL     1      24.033   3.678  17.122  0.00  0.00    +0.000 A 
ATOM     13  C   UNL     1      24.890   4.298  16.238  0.00  0.00    +0.000 A 
ATOM     14  C   UNL     1      26.062   4.908  16.644  0.00  0.00    +0.000 A 
ATOM     15  C   UNL     1      26.429   4.923  17.973  0.00  0.00    +0.000 A 
ATOM     16  C   UNL     1      25.568   4.301  18.856  0.00  0.00    +0.000 A 
ATOM     17  C   UNL     1      24.398   3.692  18.452  0.00  0.00    +0.000 A 
BRANCH  15  18
ATOM     18  C   UNL     1      27.671   5.561  18.465  0.00  0.00    +0.000 C 
ATOM     19  C   UNL     1      27.551   7.067  18.542  0.00  0.00    +0.000 C 
ATOM     20  C   UNL     1      28.855   5.249  17.588  0.00  0.00    +0.000 C 
ENDBRANCH  15  18
ENDBRANCH   6  12
TORSDOF 2
ENDMDL
MODEL 10
REMARK VINA RESULT:      -5.5     31.626     33.022
REMARK  Name = 
REMARK  2 active torsions:
REMARK  status: ('A' for Active; 'I' for Inactive)
REMARK    1  A    between atoms: N_6  and  C_7
REMARK    2  A    between atoms: C_10  and  C_11
REMARK                            x       y       z     vdW  Elec       q    Type
REMARK                         _______ _______ _______ _____ _____    ______ ____
ROOT
ATOM      1  C   UNL     1      29.157  27.103  22.292  0.00  0.00    +0.000 C 
ATOM      2  C   UNL     1      29.487  25.919  23.126  0.00  0.00    +0.000 A 
ATOM      3  C   UNL     1      29.648  26.110  24.481  0.00  0.00    +0.000 A 
ATOM      4  C   UNL     1      29.952  25.067  25.304  0.00  0.00    +0.000 A 
ATOM      5  N   UNL     1      30.175  24.877  26.617  0.00  0.00    +0.000 NA
ATOM      6  N   UNL     1      30.437  23.611  26.872  0.00  0.00    +0.000 N 
ATOM      7  N   UNL     1      30.383  22.977  25.712  0.00  0.00    +0.000 NA
ATOM      8  C   UNL     1      30.089  23.825  24.712  0.00  0.00    +0.000 A 
ATOM      9  C   UNL     1      29.930  23.624  23.366  0.00  0.00    +0.000 A 
ATOM     10  C   UNL     1      29.623  24.679  22.534  0.00  0.00    +0.000 A 
ATOM     11  N   UNL     1      29.451  24.501  21.123  0.00  0.00    +0.000 NA
ENDROOT
BRANCH   6  12
ATOM     12  C   UNL     1      30.721  23.043  28.146  0.00  0.00    +0.000 A 
ATOM     13  C   UNL     1      29.781  23.085  29.153  0.00  0.00    +0.000 A 
ATOM     14  C   UNL     1      30.009  22.549  30.405  0.00  0.00    +0.000 A 
ATOM     15  C   UNL     1      31.208  21.937  30.706  0.00  0.00    +0.000 A 
ATOM     16  C   UNL     1      32.148  21.895  29.695  0.00  0.00    +0.000 A 
ATOM     17  C   UNL     1      31.921  22.431  28.444  0.00  0.00    +0.000 A 
BRANCH  15  18
ATOM     18  C   UNL     1      31.509  21.343  32.029  0.00  0.00    +0.000 C 
ATOM     19  C   UNL     1      30.477  21.713  33.071  0.00  0.00    +0.000 C 
ATOM     20  C   UNL     1      32.852  21.778  32.553  0.00  0.00    +0.000 C 
ENDBRANCH  15  18
ENDBRANCH   6  12
TORSDOF 2
ENDMDL
