MODEL 1
REMARK VINA RESULT:      -7.2      0.000      0.000
REMARK  Name = 
REMARK  4 active torsions:
REMARK  status: ('A' for Active; 'I' for Inactive)
REMARK    1  A    between atoms: C_2  and  C_3
REMARK    2  A    between atoms: C_3  and  C_4
REMARK    3  A    between atoms: C_7  and  C_8
REMARK    4  A    between atoms: C_11  and  C_12
REMARK                            x       y       z     vdW  Elec       q    Type
REMARK                         _______ _______ _______ _____ _____    ______ ____
ROOT
ATOM      1  C   UNL     1      15.358  11.661  32.048  0.00  0.00    +0.000 A 
ATOM      2  C   UNL     1      14.872  12.224  33.186  0.00  0.00    +0.000 A 
ATOM      3  C   UNL     1      15.383  11.854  34.433  0.00  0.00    +0.000 A 
ATOM      4  C   UNL     1      16.388  10.916  34.534  0.00  0.00    +0.000 A 
ATOM      5  C   UNL     1      16.848  10.374  33.345  0.00  0.00    +0.000 A 
ATOM      6  C   UNL     1      16.356  10.726  32.111  0.00  0.00    +0.000 A 
ENDROOT
BRANCH   4   7
ATOM      7  C   UNL     1      16.963  10.492  35.818  0.00  0.00    +0.000 A 
ATOM      8  C   UNL     1      18.130   9.760  35.884  0.00  0.00    +0.000 A 
ATOM      9  C   UNL     1      18.677   9.357  37.097  0.00  0.00    +0.000 A 
ATOM     10  C   UNL     1      18.068   9.676  38.293  0.00  0.00    +0.000 A 
ATOM     11  C   UNL     1      16.905  10.407  38.220  0.00  0.00    +0.000 A 
ATOM     12  C   UNL     1      16.360  10.807  37.018  0.00  0.00    +0.000 A 
BRANCH  10  13
ATOM     13  C   UNL     1      18.658   9.244  39.554  0.00  0.00    +0.000 C 
ATOM     14  N   UNL     1      18.862   7.867  39.830  0.00  0.00    +0.000 NA
ATOM     15  O   UNL     1      19.011  10.059  40.443  0.00  0.00    +0.000 OA
ENDBRANCH  10  13
ENDBRANCH   4   7
BRANCH   1  16
ATOM     16  C   UNL     1      14.831  12.035  30.716  0.00  0.00    +0.000 C 
BRANCH  16  18
ATOM     17  C   UNL     1      16.384  13.857  30.140  0.00  0.00    +0.000 C 
ATOM     18  C   UNL     1      14.972  13.509  30.487  0.00  0.00    +0.000 C 
ENDBRANCH  16  18
ENDBRANCH   1  16
TORSDOF 4
ENDMDL
MODEL 2
REMARK VINA RESULT:      -6.6      3.937      7.699
REMARK  Name = 
REMARK  4 active torsions:
REMARK  status: ('A' for Active; 'I' for Inactive)
REMARK    1  A    between atoms: C_2  and  C_3
REMARK    2  A    between atoms: C_3  and  C_4
REMARK    3  A    between atoms: C_7  and  C_8
REMARK    4  A    between atoms: C_11  and  C_12
REMARK                            x       y       z     vdW  Elec       q    Type
REMARK                         _______ _______ _______ _____ _____    ______ ____
ROOT
ATOM      1  C   UNL     1      18.140   9.554  38.257  0.00  0.00    +0.000 A 
ATOM      2  C   UNL     1      18.722   9.337  37.048  0.00  0.00    +0.000 A 
ATOM      3  C   UNL     1      18.140   9.842  35.882  0.00  0.00    +0.000 A 
ATOM      4  C   UNL     1      16.970  10.569  35.934  0.00  0.00    +0.000 A 
ATOM      5  C   UNL     1      16.419  10.761  37.190  0.00  0.00    +0.000 A 
ATOM      6  C   UNL     1      16.977  10.271  38.346  0.00  0.00    +0.000 A 
ENDROOT
BRANCH   4   7
ATOM      7  C   UNL     1      16.316  11.124  34.741  0.00  0.00    +0.000 A 
ATOM      8  C   UNL     1      15.287  12.037  34.835  0.00  0.00    +0.000 A 
ATOM      9  C   UNL     1      14.666  12.563  33.709  0.00  0.00    +0.000 A 
ATOM     10  C   UNL     1      15.060  12.190  32.440  0.00  0.00    +0.000 A 
ATOM     11  C   UNL     1      16.086  11.280  32.352  0.00  0.00    +0.000 A 
ATOM     12  C   UNL     1      16.703  10.755  33.469  0.00  0.00    +0.000 A 
BRANCH  10  13
ATOM     13  C   UNL     1      14.396  12.755  31.272  0.00  0.00    +0.000 C 
ATOM     14  N   UNL     1      13.649  13.960  31.367  0.00  0.00    +0.000 NA
ATOM     15  O   UNL     1      14.452  12.212  30.140  0.00  0.00    +0.000 OA
ENDBRANCH  10  13
ENDBRANCH   4   7
BRANCH   1  16
ATOM     16  C   UNL     1      18.737   9.028  39.506  0.00  0.00    +0.000 C 
BRANCH  16  18
ATOM     17  C   UNL     1      17.342   7.560  40.906  0.00  0.00    +0.000 C 
ATOM     18  C   UNL     1      17.715   8.975  40.599  0.00  0.00    +0.000 C 
ENDBRANCH  16  18
ENDBRANCH   1  16
TORSDOF 4
ENDMDL
MODEL 3
REMARK VINA RESULT:      -6.5     19.061     20.188
REMARK  Name = 
REMARK  4 active torsions:
REMARK  status: ('A' for Active; 'I' for Inactive)
REMARK    1  A    between atoms: C_2  and  C_3
REMARK    2  A    between atoms: C_3  and  C_4
REMARK    3  A    between atoms: C_7  and  C_8
REMARK    4  A    between atoms: C_11  and  C_12
REMARK                            x       y       z     vdW  Elec       q    Type
REMARK                         _______ _______ _______ _____ _____    ______ ____
ROOT
ATOM      1  C   UNL     1      34.043   4.037  34.705  0.00  0.00    +0.000 A 
ATOM      2  C   UNL     1      34.138   3.283  35.832  0.00  0.00    +0.000 A 
ATOM      3  C   UNL     1      33.882   1.909  35.789  0.00  0.00    +0.000 A 
ATOM      4  C   UNL     1      33.531   1.293  34.607  0.00  0.00    +0.000 A 
ATOM      5  C   UNL     1      33.449   2.106  33.488  0.00  0.00    +0.000 A 
ATOM      6  C   UNL     1      33.697   3.458  33.513  0.00  0.00    +0.000 A 
ENDROOT
BRANCH   4   7
ATOM      7  C   UNL     1      33.253  -0.146  34.504  0.00  0.00    +0.000 A 
ATOM      8  C   UNL     1      33.892  -0.945  33.579  0.00  0.00    +0.000 A 
ATOM      9  C   UNL     1      33.630  -2.306  33.479  0.00  0.00    +0.000 A 
ATOM     10  C   UNL     1      32.713  -2.917  34.309  0.00  0.00    +0.000 A 
ATOM     11  C   UNL     1      32.080  -2.116  35.229  0.00  0.00    +0.000 A 
ATOM     12  C   UNL     1      32.337  -0.764  35.330  0.00  0.00    +0.000 A 
BRANCH  10  13
ATOM     13  C   UNL     1      32.455  -4.347  34.188  0.00  0.00    +0.000 C 
ATOM     14  N   UNL     1      31.633  -5.023  35.129  0.00  0.00    +0.000 NA
ATOM     15  O   UNL     1      32.939  -5.040  33.258  0.00  0.00    +0.000 OA
ENDBRANCH  10  13
ENDBRANCH   4   7
BRANCH   1  16
ATOM     16  C   UNL     1      34.308   5.493  34.726  0.00  0.00    +0.000 C 
BRANCH  16  18
ATOM     17  C   UNL     1      35.920   7.135  35.599  0.00  0.00    +0.000 C 
ATOM     18  C   UNL     1      35.750   5.764  35.030  0.00  0.00    +0.000 C 
ENDBRANCH  16  18
ENDBRANCH   1  16
TORSDOF 4
ENDMDL
MODEL 4
REMARK VINA RESULT:      -6.3     21.310     22.592
REMARK  Name = 
REMARK  4 active torsions:
REMARK  status: ('A' for Active; 'I' for Inactive)
REMARK    1  A    between atoms: C_2  and  C_3
REMARK    2  A    between atoms: C_3  and  C_4
REMARK    3  A    between atoms: C_7  and  C_8
REMARK    4  A    between atoms: C_11  and  C_12
REMARK                            x       y       z     vdW  Elec       q    Type
REMARK                         _______ _______ _______ _____ _____    ______ ____
ROOT
ATOM      1  C   UNL     1      25.931  -8.211  23.211  0.00  0.00    +0.000 A 
ATOM      2  C   UNL     1      25.186  -9.282  23.594  0.00  0.00    +0.000 A 
ATOM      3  C   UNL     1      23.939  -9.097  24.196  0.00  0.00    +0.000 A 
ATOM      4  C   UNL     1      23.440  -7.830  24.413  0.00  0.00    +0.000 A 
ATOM      5  C   UNL     1      24.239  -6.774  24.005  0.00  0.00    +0.000 A 
ATOM      6  C   UNL     1      25.467  -6.938  23.412  0.00  0.00    +0.000 A 
ENDROOT
BRANCH   4   7
ATOM      7  C   UNL     1      22.136  -7.577  25.040  0.00  0.00    +0.000 A 
ATOM      8  C   UNL     1      21.545  -6.332  25.011  0.00  0.00    +0.000 A 
ATOM      9  C   UNL     1      20.311  -6.090  25.604  0.00  0.00    +0.000 A 
ATOM     10  C   UNL     1      19.623  -7.096  26.250  0.00  0.00    +0.000 A 
ATOM     11  C   UNL     1      20.216  -8.335  26.275  0.00  0.00    +0.000 A 
ATOM     12  C   UNL     1      21.441  -8.578  25.688  0.00  0.00    +0.000 A 
BRANCH  10  13
ATOM     13  C   UNL     1      18.329  -6.821  26.864  0.00  0.00    +0.000 C 
ATOM     14  N   UNL     1      17.764  -7.718  27.809  0.00  0.00    +0.000 NA
ATOM     15  O   UNL     1      17.663  -5.791  26.592  0.00  0.00    +0.000 OA
ENDBRANCH  10  13
ENDBRANCH   4   7
BRANCH   1  16
ATOM     16  C   UNL     1      27.256  -8.382  22.573  0.00  0.00    +0.000 C 
BRANCH  16  18
ATOM     17  C   UNL     1      29.260  -7.079  21.984  0.00  0.00    +0.000 C 
ATOM     18  C   UNL     1      27.767  -7.071  22.056  0.00  0.00    +0.000 C 
ENDBRANCH  16  18
ENDBRANCH   1  16
TORSDOF 4
ENDMDL
MODEL 5
REMARK VINA RESULT:      -6.2     18.199     19.578
REMARK  Name = 
REMARK  4 active torsions:
REMARK  status: ('A' for Active; 'I' for Inactive)
REMARK    1  A    between atoms: C_2  and  C_3
REMARK    2  A    between atoms: C_3  and  C_4
REMARK    3  A    between atoms: C_7  and  C_8
REMARK    4  A    between atoms: C_11  and  C_12
REMARK                            x       y       z     vdW  Elec       q    Type
REMARK                         _______ _______ _______ _____ _____    ______ ____
ROOT
ATOM      1  C   UNL     1      33.360   1.538  34.443  0.00  0.00    +0.000 A 
ATOM      2  C   UNL     1      33.782   1.848  35.698  0.00  0.00    +0.000 A 
ATOM      3  C   UNL     1      34.217   3.142  35.999  0.00  0.00    +0.000 A 
ATOM      4  C   UNL     1      34.225   4.127  35.034  0.00  0.00    +0.000 A 
ATOM      5  C   UNL     1      33.785   3.759  33.773  0.00  0.00    +0.000 A 
ATOM      6  C   UNL     1      33.355   2.491  33.460  0.00  0.00    +0.000 A 
ENDROOT
BRANCH   4   7
ATOM      7  C   UNL     1      34.670   5.502  35.295  0.00  0.00    +0.000 A 
ATOM      8  C   UNL     1      35.943   5.927  34.978  0.00  0.00    +0.000 A 
ATOM      9  C   UNL     1      36.367   7.228  35.223  0.00  0.00    +0.000 A 
ATOM     10  C   UNL     1      35.522   8.154  35.799  0.00  0.00    +0.000 A 
ATOM     11  C   UNL     1      34.254   7.725  36.113  0.00  0.00    +0.000 A 
ATOM     12  C   UNL     1      33.832   6.435  35.871  0.00  0.00    +0.000 A 
BRANCH  10  13
ATOM     13  C   UNL     1      35.987   9.513  36.048  0.00  0.00    +0.000 C 
ATOM     14  N   UNL     1      36.449  10.333  34.984  0.00  0.00    +0.000 NA
ATOM     15  O   UNL     1      35.999  10.018  37.198  0.00  0.00    +0.000 OA
ENDBRANCH  10  13
ENDBRANCH   4   7
BRANCH   1  16
ATOM     16  C   UNL     1      32.896   0.175  34.100  0.00  0.00    +0.000 C 
BRANCH  16  18
ATOM     17  C   UNL     1      33.776  -2.059  33.554  0.00  0.00    +0.000 C 
ATOM     18  C   UNL     1      33.973  -0.586  33.389  0.00  0.00    +0.000 C 
ENDBRANCH  16  18
ENDBRANCH   1  16
TORSDOF 4
ENDMDL
MODEL 6
REMARK VINA RESULT:      -6.2     19.243     21.377
REMARK  Name = 
REMARK  4 active torsions:
REMARK  status: ('A' for Active; 'I' for Inactive)
REMARK    1  A    between atoms: C_2  and  C_3
REMARK    2  A    between atoms: C_3  and  C_4
REMARK    3  A    between atoms: C_7  and  C_8
REMARK    4  A    between atoms: C_11  and  C_12
REMARK                            x       y       z     vdW  Elec       q    Type
REMARK                         _______ _______ _______ _____ _____    ______ ____
ROOT
ATOM      1  C   UNL     1      33.644   2.072  33.363  0.00  0.00    +0.000 A 
ATOM      2  C   UNL     1      34.109   1.242  32.392  0.00  0.00    +0.000 A 
ATOM      3  C   UNL     1      34.241  -0.128  32.635  0.00  0.00    +0.000 A 
ATOM      4  C   UNL     1      33.904  -0.664  33.860  0.00  0.00    +0.000 A 
ATOM      5  C   UNL     1      33.435   0.225  34.814  0.00  0.00    +0.000 A 
ATOM      6  C   UNL     1      33.300   1.574  34.591  0.00  0.00    +0.000 A 
ENDROOT
BRANCH   4   7
ATOM      7  C   UNL     1      34.021  -2.095  34.170  0.00  0.00    +0.000 A 
ATOM      8  C   UNL     1      33.527  -3.065  33.323  0.00  0.00    +0.000 A 
ATOM      9  C   UNL     1      33.636  -4.419  33.614  0.00  0.00    +0.000 A 
ATOM     10  C   UNL     1      34.251  -4.851  34.771  0.00  0.00    +0.000 A 
ATOM     11  C   UNL     1      34.743  -3.880  35.611  0.00  0.00    +0.000 A 
ATOM     12  C   UNL     1      34.634  -2.535  35.325  0.00  0.00    +0.000 A 
BRANCH  10  13
ATOM     13  C   UNL     1      34.356  -6.277  35.056  0.00  0.00    +0.000 C 
ATOM     14  N   UNL     1      35.562  -6.834  35.559  0.00  0.00    +0.000 NA
ATOM     15  O   UNL     1      33.398  -7.070  34.874  0.00  0.00    +0.000 OA
ENDBRANCH  10  13
ENDBRANCH   4   7
BRANCH   1  16
ATOM     16  C   UNL     1      33.497   3.526  33.129  0.00  0.00    +0.000 C 
BRANCH  16  18
ATOM     17  C   UNL     1      32.908   5.556  34.392  0.00  0.00    +0.000 C 
ATOM     18  C   UNL     1      33.703   4.290  34.401  0.00  0.00    +0.000 C 
ENDBRANCH  16  18
ENDBRANCH   1  16
TORSDOF 4
ENDMDL
MODEL 7
REMARK VINA RESULT:      -6.1      4.339      5.563
REMARK  Name = 
REMARK  4 active torsions:
REMARK  status: ('A' for Active; 'I' for Inactive)
REMARK    1  A    between atoms: C_2  and  C_3
REMARK    2  A    between atoms: C_3  and  C_4
REMARK    3  A    between atoms: C_7  and  C_8
REMARK    4  A    between atoms: C_11  and  C_12
REMARK                            x       y       z     vdW  Elec       q    Type
REMARK                         _______ _______ _______ _____ _____    ______ ____
ROOT
ATOM      1  C   UNL     1      15.202  11.072  38.117  0.00  0.00    +0.000 A 
ATOM      2  C   UNL     1      15.782  11.800  37.126  0.00  0.00    +0.000 A 
ATOM      3  C   UNL     1      17.165  11.749  36.929  0.00  0.00    +0.000 A 
ATOM      4  C   UNL     1      17.965  10.963  37.730  0.00  0.00    +0.000 A 
ATOM      5  C   UNL     1      17.323  10.242  38.724  0.00  0.00    +0.000 A 
ATOM      6  C   UNL     1      15.966  10.281  38.933  0.00  0.00    +0.000 A 
ENDROOT
BRANCH   4   7
ATOM      7  C   UNL     1      19.422  10.871  37.566  0.00  0.00    +0.000 A 
ATOM      8  C   UNL     1      20.278  11.779  38.152  0.00  0.00    +0.000 A 
ATOM      9  C   UNL     1      21.657  11.695  37.999  0.00  0.00    +0.000 A 
ATOM     10  C   UNL     1      22.228  10.689  37.248  0.00  0.00    +0.000 A 
ATOM     11  C   UNL     1      21.370   9.786  36.666  0.00  0.00    +0.000 A 
ATOM     12  C   UNL     1      20.001   9.868  36.816  0.00  0.00    +0.000 A 
BRANCH  10  13
ATOM     13  C   UNL     1      23.677  10.618  37.100  0.00  0.00    +0.000 C 
ATOM     14  N   UNL     1      24.266   9.996  35.968  0.00  0.00    +0.000 NA
ATOM     15  O   UNL     1      24.462  11.099  37.955  0.00  0.00    +0.000 OA
ENDBRANCH  10  13
ENDBRANCH   4   7
BRANCH   1  16
ATOM     16  C   UNL     1      13.739  11.111  38.347  0.00  0.00    +0.000 C 
BRANCH  16  18
ATOM     17  C   UNL     1      11.556  11.578  37.311  0.00  0.00    +0.000 C 
ATOM     18  C   UNL     1      13.037  11.728  37.177  0.00  0.00    +0.000 C 
ENDBRANCH  16  18
ENDBRANCH   1  16
TORSDOF 4
ENDMDL
MODEL 8
REMARK VINA RESULT:      -6.0     18.595     20.944
REMARK  Name = 
REMARK  4 active torsions:
REMARK  status: ('A' for Active; 'I' for Inactive)
REMARK    1  A    between atoms: C_2  and  C_3
REMARK    2  A    between atoms: C_3  and  C_4
REMARK    3  A    between atoms: C_7  and  C_8
REMARK    4  A    between atoms: C_11  and  C_12
REMARK                            x       y       z     vdW  Elec       q    Type
REMARK                         _______ _______ _______ _____ _____    ______ ____
ROOT
ATOM      1  C   UNL     1      31.307  22.026  30.402  0.00  0.00    +0.000 A 
ATOM      2  C   UNL     1      32.099  21.630  29.371  0.00  0.00    +0.000 A 
ATOM      3  C   UNL     1      31.714  21.869  28.049  0.00  0.00    +0.000 A 
ATOM      4  C   UNL     1      30.527  22.512  27.764  0.00  0.00    +0.000 A 
ATOM      5  C   UNL     1      29.758  22.895  28.851  0.00  0.00    +0.000 A 
ATOM      6  C   UNL     1      30.122  22.667  30.156  0.00  0.00    +0.000 A 
ENDROOT
BRANCH   4   7
ATOM      7  C   UNL     1      30.074  22.791  26.395  0.00  0.00    +0.000 A 
ATOM      8  C   UNL     1      28.740  22.750  26.049  0.00  0.00    +0.000 A 
ATOM      9  C   UNL     1      28.308  23.013  24.755  0.00  0.00    +0.000 A 
ATOM     10  C   UNL     1      29.205  23.329  23.756  0.00  0.00    +0.000 A 
ATOM     11  C   UNL     1      30.534  23.368  24.106  0.00  0.00    +0.000 A 
ATOM     12  C   UNL     1      30.965  23.106  25.391  0.00  0.00    +0.000 A 
BRANCH  10  13
ATOM     13  C   UNL     1      28.731  23.602  22.405  0.00  0.00    +0.000 C 
ATOM     14  N   UNL     1      27.375  23.379  22.048  0.00  0.00    +0.000 NA
ATOM     15  O   UNL     1      29.488  24.043  21.504  0.00  0.00    +0.000 OA
ENDBRANCH  10  13
ENDBRANCH   4   7
BRANCH   1  16
ATOM     16  C   UNL     1      31.693  21.782  31.810  0.00  0.00    +0.000 C 
BRANCH  16  18
ATOM     17  C   UNL     1      30.579  21.215  33.930  0.00  0.00    +0.000 C 
ATOM     18  C   UNL     1      30.560  22.110  32.733  0.00  0.00    +0.000 C 
ENDBRANCH  16  18
ENDBRANCH   1  16
TORSDOF 4
ENDMDL
MODEL 9
REMARK VINA RESULT:      -5.9     21.218     22.493
REMARK  Name = 
REMARK  4 active torsions:
REMARK  status: ('A' for Active; 'I' for Inactive)
REMARK    1  A    between atoms: C_2  and  C_3
REMARK    2  A    between atoms: C_3  and  C_4
REMARK    3  A    between atoms: C_7  and  C_8
REMARK    4  A    between atoms: C_11  and  C_12
REMARK                            x       y       z     vdW  Elec       q    Type
REMARK                         _______ _______ _______ _____ _____    ______ ____
ROOT
ATOM      1  C   UNL     1      19.182  -7.104  26.456  0.00  0.00    +0.000 A 
ATOM      2  C   UNL     1      19.813  -8.306  26.524  0.00  0.00    +0.000 A 
ATOM      3  C   UNL     1      21.072  -8.479  25.942  0.00  0.00    +0.000 A 
ATOM      4  C   UNL     1      21.698  -7.437  25.291  0.00  0.00    +0.000 A 
ATOM      5  C   UNL     1      21.012  -6.234  25.251  0.00  0.00    +0.000 A 
ATOM      6  C   UNL     1      19.774  -6.047  25.817  0.00  0.00    +0.000 A 
ENDROOT
BRANCH   4   7
ATOM      7  C   UNL     1      23.020  -7.562  24.663  0.00  0.00    +0.000 A 
ATOM      8  C   UNL     1      23.579  -8.791  24.384  0.00  0.00    +0.000 A 
ATOM      9  C   UNL     1      24.830  -8.913  23.790  0.00  0.00    +0.000 A 
ATOM     10  C   UNL     1      25.568  -7.797  23.454  0.00  0.00    +0.000 A 
ATOM     11  C   UNL     1      25.006  -6.574  23.734  0.00  0.00    +0.000 A 
ATOM     12  C   UNL     1      23.765  -6.451  24.324  0.00  0.00    +0.000 A 
BRANCH  10  13
ATOM     13  C   UNL     1      26.878  -7.947  22.831  0.00  0.00    +0.000 C 
ATOM     14  N   UNL     1      27.584  -9.177  22.902  0.00  0.00    +0.000 NA
ATOM     15  O   UNL     1      27.436  -7.009  22.209  0.00  0.00    +0.000 OA
ENDBRANCH  10  13
ENDBRANCH   4   7
BRANCH   1  16
ATOM     16  C   UNL     1      17.848  -6.897  27.063  0.00  0.00    +0.000 C 
BRANCH  16  18
ATOM     17  C   UNL     1      16.305  -8.785  26.720  0.00  0.00    +0.000 C 
ATOM     18  C   UNL     1      16.775  -7.469  26.188  0.00  0.00    +0.000 C 
ENDBRANCH  16  18
ENDBRANCH   1  16
TORSDOF 4
ENDMDL
MODEL 10
REMARK VINA RESULT:      -5.8     17.892     19.691
REMARK  Name = 
REMARK  4 active torsions:
REMARK  status: ('A' for Active; 'I' for Inactive)
REMARK    1  A    between atoms: C_2  and  C_3
REMARK    2  A    between atoms: C_3  and  C_4
REMARK    3  A    between atoms: C_7  and  C_8
REMARK    4  A    between atoms: C_11  and  C_12
REMARK                            x       y       z     vdW  Elec       q    Type
REMARK                         _______ _______ _______ _____ _____    ______ ____
ROOT
ATOM      1  C   UNL     1      33.227   0.081  34.687  0.00  0.00    +0.000 A 
ATOM      2  C   UNL     1      33.139   0.948  33.643  0.00  0.00    +0.000 A 
ATOM      3  C   UNL     1      33.449   2.300  33.818  0.00  0.00    +0.000 A 
ATOM      4  C   UNL     1      33.851   2.779  35.047  0.00  0.00    +0.000 A 
ATOM      5  C   UNL     1      33.924   1.854  36.076  0.00  0.00    +0.000 A 
ATOM      6  C   UNL     1      33.622   0.522  35.921  0.00  0.00    +0.000 A 
ENDROOT
BRANCH   4   7
ATOM      7  C   UNL     1      34.190   4.188  35.287  0.00  0.00    +0.000 A 
ATOM      8  C   UNL     1      33.342   5.212  34.920  0.00  0.00    +0.000 A 
ATOM      9  C   UNL     1      33.661   6.546  35.146  0.00  0.00    +0.000 A 
ATOM     10  C   UNL     1      34.848   6.901  35.752  0.00  0.00    +0.000 A 
ATOM     11  C   UNL     1      35.688   5.876  36.117  0.00  0.00    +0.000 A 
ATOM     12  C   UNL     1      35.375   4.551  35.893  0.00  0.00    +0.000 A 
BRANCH  10  13
ATOM     13  C   UNL     1      35.161   8.306  35.980  0.00  0.00    +0.000 C 
ATOM     14  N   UNL     1      34.326   9.119  36.792  0.00  0.00    +0.000 NA
ATOM     15  O   UNL     1      36.172   8.858  35.478  0.00  0.00    +0.000 OA
ENDBRANCH  10  13
ENDBRANCH   4   7
BRANCH   1  16
ATOM     16  C   UNL     1      32.902  -1.355  34.526  0.00  0.00    +0.000 C 
BRANCH  16  18
ATOM     17  C   UNL     1      33.502  -3.439  33.362  0.00  0.00    +0.000 C 
ATOM     18  C   UNL     1      33.719  -1.962  33.427  0.00  0.00    +0.000 C 
ENDBRANCH  16  18
ENDBRANCH   1  16
TORSDOF 4
ENDMDL
