MODEL 1
REMARK VINA RESULT:      -7.8      0.000      0.000
REMARK  Name = 
REMARK  6 active torsions:
REMARK  status: ('A' for Active; 'I' for Inactive)
REMARK    1  A    between atoms: C_10  and  C_11
REMARK    2  A    between atoms: C_17  and  C_18
REMARK    3  A    between atoms: C_21  and  O_22
REMARK    4  A    between atoms: O_22  and  C_23
REMARK    5  A    between atoms: C_23  and  C_24
REMARK    6  A    between atoms: C_24  and  N_25
REMARK                            x       y       z     vdW  Elec       q    Type
REMARK                         _______ _______ _______ _____ _____    ______ ____
ROOT
ATOM      1  O   UNL     1      34.946   4.750  14.301  0.00  0.00    +0.000 OA
ATOM      2  C   UNL     1      35.518   3.492  14.573  0.00  0.00    +0.000 A 
ATOM      3  C   UNL     1      36.640   3.067  13.911  0.00  0.00    +0.000 A 
ATOM      4  C   UNL     1      37.140   1.808  14.244  0.00  0.00    +0.000 A 
ATOM      5  C   UNL     1      36.530   1.039  15.190  0.00  0.00    +0.000 A 
ATOM      6  C   UNL     1      35.423   1.476  15.831  0.00  0.00    +0.000 A 
ATOM      7  C   UNL     1      34.871   2.733  15.543  0.00  0.00    +0.000 A 
ATOM      8  C   UNL     1      34.727   0.682  16.860  0.00  0.00    +0.000 C 
ATOM      9  C   UNL     1      35.282  -0.629  17.175  0.00  0.00    +0.000 C 
ATOM     10  C   UNL     1      36.525  -1.044  16.419  0.00  0.00    +0.000 C 
ATOM     11  C   UNL     1      37.085  -0.294  15.521  0.00  0.00    +0.000 C 
ENDROOT
BRANCH  10  12
ATOM     12  C   UNL     1      37.099  -2.354  16.797  0.00  0.00    +0.000 A 
ATOM     13  C   UNL     1      38.121  -2.464  17.714  0.00  0.00    +0.000 A 
ATOM     14  C   UNL     1      38.662  -3.736  17.957  0.00  0.00    +0.000 A 
ATOM     15  C   UNL     1      38.195  -4.858  17.308  0.00  0.00    +0.000 A 
ATOM     16  C   UNL     1      37.170  -4.739  16.389  0.00  0.00    +0.000 A 
ATOM     17  C   UNL     1      36.662  -3.484  16.174  0.00  0.00    +0.000 A 
ENDBRANCH  10  12
BRANCH  11  18
ATOM     18  C   UNL     1      38.265  -0.727  14.769  0.00  0.00    +0.000 A 
ATOM     19  C   UNL     1      37.930  -1.409  13.570  0.00  0.00    +0.000 A 
ATOM     20  C   UNL     1      38.918  -1.866  12.733  0.00  0.00    +0.000 A 
ATOM     21  C   UNL     1      40.253  -1.691  13.008  0.00  0.00    +0.000 A 
ATOM     22  C   UNL     1      40.546  -1.020  14.185  0.00  0.00    +0.000 A 
ATOM     23  C   UNL     1      39.564  -0.560  15.026  0.00  0.00    +0.000 A 
BRANCH  21  24
ATOM     24  O   UNL     1      41.221  -2.167  12.137  0.00  0.00    +0.000 OA
BRANCH  24  25
ATOM     25  C   UNL     1      42.407  -2.730  12.682  0.00  0.00    +0.000 C 
BRANCH  25  26
ATOM     26  C   UNL     1      43.564  -1.807  12.309  0.00  0.00    +0.000 C 
BRANCH  26  27
ATOM     27  N   UNL     1      44.639  -1.973  13.268  0.00  0.00    +0.000 NA
ATOM     28  C   UNL     1      45.692  -1.019  13.137  0.00  0.00    +0.000 C 
ATOM     29  C   UNL     1      45.081   0.222  13.776  0.00  0.00    +0.000 C 
ATOM     30  C   UNL     1      44.169  -0.328  14.858  0.00  0.00    +0.000 C 
ATOM     31  C   UNL     1      44.086  -1.805  14.587  0.00  0.00    +0.000 C 
ENDBRANCH  26  27
ENDBRANCH  25  26
ENDBRANCH  24  25
ENDBRANCH  21  24
ENDBRANCH  11  18
TORSDOF 6
ENDMDL
MODEL 2
REMARK VINA RESULT:      -7.8      1.877      2.646
REMARK  Name = 
REMARK  6 active torsions:
REMARK  status: ('A' for Active; 'I' for Inactive)
REMARK    1  A    between atoms: C_10  and  C_11
REMARK    2  A    between atoms: C_17  and  C_18
REMARK    3  A    between atoms: C_21  and  O_22
REMARK    4  A    between atoms: O_22  and  C_23
REMARK    5  A    between atoms: C_23  and  C_24
REMARK    6  A    between atoms: C_24  and  N_25
REMARK                            x       y       z     vdW  Elec       q    Type
REMARK                         _______ _______ _______ _____ _____    ______ ____
ROOT
ATOM      1  O   UNL     1      35.073   4.519  14.351  0.00  0.00    +0.000 OA
ATOM      2  C   UNL     1      35.616   3.250  14.630  0.00  0.00    +0.000 A 
ATOM      3  C   UNL     1      36.714   2.785  13.954  0.00  0.00    +0.000 A 
ATOM      4  C   UNL     1      37.186   1.518  14.296  0.00  0.00    +0.000 A 
ATOM      5  C   UNL     1      36.573   0.780  15.264  0.00  0.00    +0.000 A 
ATOM      6  C   UNL     1      35.491   1.256  15.920  0.00  0.00    +0.000 A 
ATOM      7  C   UNL     1      34.968   2.522  15.623  0.00  0.00    +0.000 A 
ATOM      8  C   UNL     1      34.793   0.496  16.973  0.00  0.00    +0.000 C 
ATOM      9  C   UNL     1      35.319  -0.825  17.297  0.00  0.00    +0.000 C 
ATOM     10  C   UNL     1      36.536  -1.285  16.524  0.00  0.00    +0.000 C 
ATOM     11  C   UNL     1      37.099  -0.563  15.605  0.00  0.00    +0.000 C 
ENDROOT
BRANCH  10  12
ATOM     12  C   UNL     1      37.081  -2.604  16.911  0.00  0.00    +0.000 A 
ATOM     13  C   UNL     1      38.103  -2.730  17.826  0.00  0.00    +0.000 A 
ATOM     14  C   UNL     1      38.616  -4.012  18.078  0.00  0.00    +0.000 A 
ATOM     15  C   UNL     1      38.123  -5.128  17.438  0.00  0.00    +0.000 A 
ATOM     16  C   UNL     1      37.099  -4.994  16.520  0.00  0.00    +0.000 A 
ATOM     17  C   UNL     1      36.619  -3.729  16.297  0.00  0.00    +0.000 A 
ENDBRANCH  10  12
BRANCH  11  18
ATOM     18  C   UNL     1      38.252  -1.038  14.837  0.00  0.00    +0.000 A 
ATOM     19  C   UNL     1      37.876  -1.787  13.691  0.00  0.00    +0.000 A 
ATOM     20  C   UNL     1      38.834  -2.292  12.846  0.00  0.00    +0.000 A 
ATOM     21  C   UNL     1      40.178  -2.102  13.064  0.00  0.00    +0.000 A 
ATOM     22  C   UNL     1      40.511  -1.366  14.190  0.00  0.00    +0.000 A 
ATOM     23  C   UNL     1      39.559  -0.859  15.039  0.00  0.00    +0.000 A 
BRANCH  21  24
ATOM     24  O   UNL     1      41.115  -2.628  12.188  0.00  0.00    +0.000 OA
BRANCH  24  25
ATOM     25  C   UNL     1      41.743  -1.754  11.259  0.00  0.00    +0.000 C 
BRANCH  25  26
ATOM     26  C   UNL     1      40.704  -1.383  10.205  0.00  0.00    +0.000 C 
BRANCH  26  27
ATOM     27  N   UNL     1      40.872   0.008   9.833  0.00  0.00    +0.000 NA
ATOM     28  C   UNL     1      39.755   0.568   9.145  0.00  0.00    +0.000 C 
ATOM     29  C   UNL     1      38.770   0.814  10.282  0.00  0.00    +0.000 C 
ATOM     30  C   UNL     1      39.652   1.133  11.475  0.00  0.00    +0.000 C 
ATOM     31  C   UNL     1      41.046   0.773  11.040  0.00  0.00    +0.000 C 
ENDBRANCH  26  27
ENDBRANCH  25  26
ENDBRANCH  24  25
ENDBRANCH  21  24
ENDBRANCH  11  18
TORSDOF 6
ENDMDL
MODEL 3
REMARK VINA RESULT:      -7.6      1.762      2.806
REMARK  Name = 
REMARK  6 active torsions:
REMARK  status: ('A' for Active; 'I' for Inactive)
REMARK    1  A    between atoms: C_10  and  C_11
REMARK    2  A    between atoms: C_17  and  C_18
REMARK    3  A    between atoms: C_21  and  O_22
REMARK    4  A    between atoms: O_22  and  C_23
REMARK    5  A    between atoms: C_23  and  C_24
REMARK    6  A    between atoms: C_24  and  N_25
REMARK                            x       y       z     vdW  Elec       q    Type
REMARK                         _______ _______ _______ _____ _____    ______ ____
ROOT
ATOM      1  O   UNL     1      34.790   4.896  14.343  0.00  0.00    +0.000 OA
ATOM      2  C   UNL     1      35.366   3.630  14.569  0.00  0.00    +0.000 A 
ATOM      3  C   UNL     1      36.419   3.187  13.812  0.00  0.00    +0.000 A 
ATOM      4  C   UNL     1      36.929   1.921  14.105  0.00  0.00    +0.000 A 
ATOM      5  C   UNL     1      36.394   1.165  15.105  0.00  0.00    +0.000 A 
ATOM      6  C   UNL     1      35.355   1.621  15.841  0.00  0.00    +0.000 A 
ATOM      7  C   UNL     1      34.797   2.884  15.596  0.00  0.00    +0.000 A 
ATOM      8  C   UNL     1      34.742   0.841  16.931  0.00  0.00    +0.000 C 
ATOM      9  C   UNL     1      35.304  -0.477  17.202  0.00  0.00    +0.000 C 
ATOM     10  C   UNL     1      36.469  -0.914  16.340  0.00  0.00    +0.000 C 
ATOM     11  C   UNL     1      36.958  -0.175  15.392  0.00  0.00    +0.000 C 
ENDROOT
BRANCH  10  12
ATOM     12  C   UNL     1      37.055  -2.230  16.672  0.00  0.00    +0.000 A 
ATOM     13  C   UNL     1      38.117  -2.356  17.541  0.00  0.00    +0.000 A 
ATOM     14  C   UNL     1      38.664  -3.633  17.741  0.00  0.00    +0.000 A 
ATOM     15  C   UNL     1      38.167  -4.744  17.095  0.00  0.00    +0.000 A 
ATOM     16  C   UNL     1      37.103  -4.609  16.223  0.00  0.00    +0.000 A 
ATOM     17  C   UNL     1      36.590  -3.350  16.050  0.00  0.00    +0.000 A 
ENDBRANCH  10  12
BRANCH  11  18
ATOM     18  C   UNL     1      38.059  -0.627  14.540  0.00  0.00    +0.000 A 
ATOM     19  C   UNL     1      39.330  -0.221  15.025  0.00  0.00    +0.000 A 
ATOM     20  C   UNL     1      40.475  -0.578  14.356  0.00  0.00    +0.000 A 
ATOM     21  C   UNL     1      40.449  -1.331  13.207  0.00  0.00    +0.000 A 
ATOM     22  C   UNL     1      39.193  -1.713  12.761  0.00  0.00    +0.000 A 
ATOM     23  C   UNL     1      38.045  -1.359  13.425  0.00  0.00    +0.000 A 
BRANCH  21  24
ATOM     24  O   UNL     1      41.627  -1.672  12.559  0.00  0.00    +0.000 OA
BRANCH  24  25
ATOM     25  C   UNL     1      41.999  -3.042  12.501  0.00  0.00    +0.000 C 
BRANCH  25  26
ATOM     26  C   UNL     1      42.564  -3.304  11.108  0.00  0.00    +0.000 C 
BRANCH  26  27
ATOM     27  N   UNL     1      41.601  -4.061  10.333  0.00  0.00    +0.000 NA
ATOM     28  C   UNL     1      40.653  -3.258   9.632  0.00  0.00    +0.000 C 
ATOM     29  C   UNL     1      41.471  -2.758   8.447  0.00  0.00    +0.000 C 
ATOM     30  C   UNL     1      42.439  -3.892   8.161  0.00  0.00    +0.000 C 
ATOM     31  C   UNL     1      42.324  -4.815   9.342  0.00  0.00    +0.000 C 
ENDBRANCH  26  27
ENDBRANCH  25  26
ENDBRANCH  24  25
ENDBRANCH  21  24
ENDBRANCH  11  18
TORSDOF 6
ENDMDL
MODEL 4
REMARK VINA RESULT:      -7.6      2.649      5.405
REMARK  Name = 
REMARK  6 active torsions:
REMARK  status: ('A' for Active; 'I' for Inactive)
REMARK    1  A    between atoms: C_10  and  C_11
REMARK    2  A    between atoms: C_17  and  C_18
REMARK    3  A    between atoms: C_21  and  O_22
REMARK    4  A    between atoms: O_22  and  C_23
REMARK    5  A    between atoms: C_23  and  C_24
REMARK    6  A    between atoms: C_24  and  N_25
REMARK                            x       y       z     vdW  Elec       q    Type
REMARK                         _______ _______ _______ _____ _____    ______ ____
ROOT
ATOM      1  O   UNL     1      35.451  -5.272  16.108  0.00  0.00    +0.000 OA
ATOM      2  C   UNL     1      35.725  -3.928  15.791  0.00  0.00    +0.000 A 
ATOM      3  C   UNL     1      36.558  -3.602  14.752  0.00  0.00    +0.000 A 
ATOM      4  C   UNL     1      36.773  -2.245  14.507  0.00  0.00    +0.000 A 
ATOM      5  C   UNL     1      36.175  -1.291  15.275  0.00  0.00    +0.000 A 
ATOM      6  C   UNL     1      35.357  -1.633  16.296  0.00  0.00    +0.000 A 
ATOM      7  C   UNL     1      35.099  -2.979  16.594  0.00  0.00    +0.000 A 
ATOM      8  C   UNL     1      34.688  -0.639  17.156  0.00  0.00    +0.000 C 
ATOM      9  C   UNL     1      34.943   0.767  16.866  0.00  0.00    +0.000 C 
ATOM     10  C   UNL     1      35.865   1.070  15.705  0.00  0.00    +0.000 C 
ATOM     11  C   UNL     1      36.423   0.142  14.990  0.00  0.00    +0.000 C 
ENDROOT
BRANCH  10  12
ATOM     12  C   UNL     1      36.062   2.503  15.398  0.00  0.00    +0.000 A 
ATOM     13  C   UNL     1      35.265   3.171  14.494  0.00  0.00    +0.000 A 
ATOM     14  C   UNL     1      35.569   4.510  14.202  0.00  0.00    +0.000 A 
ATOM     15  C   UNL     1      36.631   5.157  14.793  0.00  0.00    +0.000 A 
ATOM     16  C   UNL     1      37.427   4.480  15.698  0.00  0.00    +0.000 A 
ATOM     17  C   UNL     1      37.104   3.174  15.963  0.00  0.00    +0.000 A 
ENDBRANCH  10  12
BRANCH  11  18
ATOM     18  C   UNL     1      37.344   0.450  13.895  0.00  0.00    +0.000 A 
ATOM     19  C   UNL     1      38.682   0.626  14.337  0.00  0.00    +0.000 A 
ATOM     20  C   UNL     1      39.681   0.901  13.435  0.00  0.00    +0.000 A 
ATOM     21  C   UNL     1      39.441   1.018  12.087  0.00  0.00    +0.000 A 
ATOM     22  C   UNL     1      38.126   0.839  11.688  0.00  0.00    +0.000 A 
ATOM     23  C   UNL     1      37.122   0.564  12.584  0.00  0.00    +0.000 A 
BRANCH  21  24
ATOM     24  O   UNL     1      40.476   1.297  11.208  0.00  0.00    +0.000 OA
BRANCH  24  25
ATOM     25  C   UNL     1      41.030   0.230  10.450  0.00  0.00    +0.000 C 
BRANCH  25  26
ATOM     26  C   UNL     1      41.778  -0.681  11.419  0.00  0.00    +0.000 C 
BRANCH  26  27
ATOM     27  N   UNL     1      41.604  -2.062  11.013  0.00  0.00    +0.000 NA
ATOM     28  C   UNL     1      41.969  -3.014  12.010  0.00  0.00    +0.000 C 
ATOM     29  C   UNL     1      40.775  -2.961  12.956  0.00  0.00    +0.000 C 
ATOM     30  C   UNL     1      39.597  -2.654  12.049  0.00  0.00    +0.000 C 
ATOM     31  C   UNL     1      40.207  -2.268  10.730  0.00  0.00    +0.000 C 
ENDBRANCH  26  27
ENDBRANCH  25  26
ENDBRANCH  24  25
ENDBRANCH  21  24
ENDBRANCH  11  18
TORSDOF 6
ENDMDL
MODEL 5
REMARK VINA RESULT:      -7.4      1.503      2.184
REMARK  Name = 
REMARK  6 active torsions:
REMARK  status: ('A' for Active; 'I' for Inactive)
REMARK    1  A    between atoms: C_10  and  C_11
REMARK    2  A    between atoms: C_17  and  C_18
REMARK    3  A    between atoms: C_21  and  O_22
REMARK    4  A    between atoms: O_22  and  C_23
REMARK    5  A    between atoms: C_23  and  C_24
REMARK    6  A    between atoms: C_24  and  N_25
REMARK                            x       y       z     vdW  Elec       q    Type
REMARK                         _______ _______ _______ _____ _____    ______ ____
ROOT
ATOM      1  O   UNL     1      37.881   4.965  15.551  0.00  0.00    +0.000 OA
ATOM      2  C   UNL     1      37.766   3.566  15.438  0.00  0.00    +0.000 A 
ATOM      3  C   UNL     1      38.700   2.833  14.753  0.00  0.00    +0.000 A 
ATOM      4  C   UNL     1      38.509   1.451  14.693  0.00  0.00    +0.000 A 
ATOM      5  C   UNL     1      37.435   0.866  15.293  0.00  0.00    +0.000 A 
ATOM      6  C   UNL     1      36.525   1.607  15.964  0.00  0.00    +0.000 A 
ATOM      7  C   UNL     1      36.659   2.999  16.062  0.00  0.00    +0.000 A 
ATOM      8  C   UNL     1      35.346   1.021  16.628  0.00  0.00    +0.000 C 
ATOM      9  C   UNL     1      35.184  -0.425  16.538  0.00  0.00    +0.000 C 
ATOM     10  C   UNL     1      36.247  -1.186  15.775  0.00  0.00    +0.000 C 
ATOM     11  C   UNL     1      37.260  -0.603  15.211  0.00  0.00    +0.000 C 
ENDROOT
BRANCH  10  12
ATOM     12  C   UNL     1      36.089  -2.656  15.746  0.00  0.00    +0.000 A 
ATOM     13  C   UNL     1      35.175  -3.274  14.921  0.00  0.00    +0.000 A 
ATOM     14  C   UNL     1      35.033  -4.668  15.012  0.00  0.00    +0.000 A 
ATOM     15  C   UNL     1      35.779  -5.416  15.898  0.00  0.00    +0.000 A 
ATOM     16  C   UNL     1      36.692  -4.788  16.723  0.00  0.00    +0.000 A 
ATOM     17  C   UNL     1      36.808  -3.427  16.610  0.00  0.00    +0.000 A 
ENDBRANCH  10  12
BRANCH  11  18
ATOM     18  C   UNL     1      38.259  -1.348  14.443  0.00  0.00    +0.000 A 
ATOM     19  C   UNL     1      39.386  -1.721  15.223  0.00  0.00    +0.000 A 
ATOM     20  C   UNL     1      40.410  -2.443  14.663  0.00  0.00    +0.000 A 
ATOM     21  C   UNL     1      40.398  -2.834  13.345  0.00  0.00    +0.000 A 
ATOM     22  C   UNL     1      39.284  -2.456  12.612  0.00  0.00    +0.000 A 
ATOM     23  C   UNL     1      38.256  -1.734  13.165  0.00  0.00    +0.000 A 
BRANCH  21  24
ATOM     24  O   UNL     1      41.452  -3.563  12.816  0.00  0.00    +0.000 OA
BRANCH  24  25
ATOM     25  C   UNL     1      42.243  -2.971  11.795  0.00  0.00    +0.000 C 
BRANCH  25  26
ATOM     26  C   UNL     1      43.345  -2.167  12.478  0.00  0.00    +0.000 C 
BRANCH  26  27
ATOM     27  N   UNL     1      43.466  -0.873  11.834  0.00  0.00    +0.000 NA
ATOM     28  C   UNL     1      42.265  -0.104  11.838  0.00  0.00    +0.000 C 
ATOM     29  C   UNL     1      42.226   0.420  13.269  0.00  0.00    +0.000 C 
ATOM     30  C   UNL     1      43.688   0.585  13.644  0.00  0.00    +0.000 C 
ATOM     31  C   UNL     1      44.454  -0.111  12.552  0.00  0.00    +0.000 C 
ENDBRANCH  26  27
ENDBRANCH  25  26
ENDBRANCH  24  25
ENDBRANCH  21  24
ENDBRANCH  11  18
TORSDOF 6
ENDMDL
MODEL 6
REMARK VINA RESULT:      -7.2      3.372      7.812
REMARK  Name = 
REMARK  6 active torsions:
REMARK  status: ('A' for Active; 'I' for Inactive)
REMARK    1  A    between atoms: C_10  and  C_11
REMARK    2  A    between atoms: C_17  and  C_18
REMARK    3  A    between atoms: C_21  and  O_22
REMARK    4  A    between atoms: O_22  and  C_23
REMARK    5  A    between atoms: C_23  and  C_24
REMARK    6  A    between atoms: C_24  and  N_25
REMARK                            x       y       z     vdW  Elec       q    Type
REMARK                         _______ _______ _______ _____ _____    ______ ____
ROOT
ATOM      1  O   UNL     1      43.426  -1.049  12.439  0.00  0.00    +0.000 OA
ATOM      2  C   UNL     1      42.203  -0.885  13.117  0.00  0.00    +0.000 A 
ATOM      3  C   UNL     1      41.450   0.248  12.953  0.00  0.00    +0.000 A 
ATOM      4  C   UNL     1      40.250   0.327  13.661  0.00  0.00    +0.000 A 
ATOM      5  C   UNL     1      39.853  -0.687  14.481  0.00  0.00    +0.000 A 
ATOM      6  C   UNL     1      40.610  -1.797  14.630  0.00  0.00    +0.000 A 
ATOM      7  C   UNL     1      41.826  -1.938  13.945  0.00  0.00    +0.000 A 
ATOM      8  C   UNL     1      40.225  -2.920  15.505  0.00  0.00    +0.000 C 
ATOM      9  C   UNL     1      38.965  -2.794  16.228  0.00  0.00    +0.000 C 
ATOM     10  C   UNL     1      38.172  -1.525  16.005  0.00  0.00    +0.000 C 
ATOM     11  C   UNL     1      38.574  -0.574  15.220  0.00  0.00    +0.000 C 
ENDROOT
BRANCH  10  12
ATOM     12  C   UNL     1      36.872  -1.449  16.708  0.00  0.00    +0.000 A 
ATOM     13  C   UNL     1      35.723  -1.991  16.175  0.00  0.00    +0.000 A 
ATOM     14  C   UNL     1      34.517  -1.805  16.869  0.00  0.00    +0.000 A 
ATOM     15  C   UNL     1      34.463  -1.103  18.053  0.00  0.00    +0.000 A 
ATOM     16  C   UNL     1      35.620  -0.561  18.580  0.00  0.00    +0.000 A 
ATOM     17  C   UNL     1      36.782  -0.760  17.880  0.00  0.00    +0.000 A 
ENDBRANCH  10  12
BRANCH  11  18
ATOM     18  C   UNL     1      37.814   0.666  15.045  0.00  0.00    +0.000 A 
ATOM     19  C   UNL     1      36.783   0.545  14.077  0.00  0.00    +0.000 A 
ATOM     20  C   UNL     1      35.960   1.610  13.803  0.00  0.00    +0.000 A 
ATOM     21  C   UNL     1      36.091   2.821  14.439  0.00  0.00    +0.000 A 
ATOM     22  C   UNL     1      37.106   2.906  15.379  0.00  0.00    +0.000 A 
ATOM     23  C   UNL     1      37.932   1.846  15.658  0.00  0.00    +0.000 A 
BRANCH  21  24
ATOM     24  O   UNL     1      35.240   3.873  14.134  0.00  0.00    +0.000 OA
BRANCH  24  25
ATOM     25  C   UNL     1      35.735   4.936  13.331  0.00  0.00    +0.000 C 
BRANCH  25  26
ATOM     26  C   UNL     1      35.482   6.237  14.088  0.00  0.00    +0.000 C 
BRANCH  26  27
ATOM     27  N   UNL     1      34.119   6.672  13.855  0.00  0.00    +0.000 NA
ATOM     28  C   UNL     1      33.740   7.831  14.595  0.00  0.00    +0.000 C 
ATOM     29  C   UNL     1      34.413   8.948  13.806  0.00  0.00    +0.000 C 
ATOM     30  C   UNL     1      34.391   8.454  12.372  0.00  0.00    +0.000 C 
ATOM     31  C   UNL     1      33.992   7.007  12.460  0.00  0.00    +0.000 C 
ENDBRANCH  26  27
ENDBRANCH  25  26
ENDBRANCH  24  25
ENDBRANCH  21  24
ENDBRANCH  11  18
TORSDOF 6
ENDMDL
MODEL 7
REMARK VINA RESULT:      -7.2      3.361      7.366
REMARK  Name = 
REMARK  6 active torsions:
REMARK  status: ('A' for Active; 'I' for Inactive)
REMARK    1  A    between atoms: C_10  and  C_11
REMARK    2  A    between atoms: C_17  and  C_18
REMARK    3  A    between atoms: C_21  and  O_22
REMARK    4  A    between atoms: O_22  and  C_23
REMARK    5  A    between atoms: C_23  and  C_24
REMARK    6  A    between atoms: C_24  and  N_25
REMARK                            x       y       z     vdW  Elec       q    Type
REMARK                         _______ _______ _______ _____ _____    ______ ____
ROOT
ATOM      1  O   UNL     1      41.399  -3.494   7.255  0.00  0.00    +0.000 OA
ATOM      2  C   UNL     1      40.972  -2.848   8.431  0.00  0.00    +0.000 A 
ATOM      3  C   UNL     1      41.077  -3.459   9.653  0.00  0.00    +0.000 A 
ATOM      4  C   UNL     1      40.630  -2.745  10.766  0.00  0.00    +0.000 A 
ATOM      5  C   UNL     1      40.112  -1.491  10.632  0.00  0.00    +0.000 A 
ATOM      6  C   UNL     1      40.017  -0.905   9.417  0.00  0.00    +0.000 A 
ATOM      7  C   UNL     1      40.448  -1.570   8.260  0.00  0.00    +0.000 A 
ATOM      8  C   UNL     1      39.463   0.447   9.220  0.00  0.00    +0.000 C 
ATOM      9  C   UNL     1      39.006   1.156  10.410  0.00  0.00    +0.000 C 
ATOM     10  C   UNL     1      39.151   0.436  11.733  0.00  0.00    +0.000 C 
ATOM     11  C   UNL     1      39.646  -0.759  11.832  0.00  0.00    +0.000 C 
ENDROOT
BRANCH  10  12
ATOM     12  C   UNL     1      38.731   1.200  12.928  0.00  0.00    +0.000 A 
ATOM     13  C   UNL     1      37.428   1.194  13.375  0.00  0.00    +0.000 A 
ATOM     14  C   UNL     1      37.098   2.009  14.470  0.00  0.00    +0.000 A 
ATOM     15  C   UNL     1      38.038   2.798  15.096  0.00  0.00    +0.000 A 
ATOM     16  C   UNL     1      39.342   2.799  14.640  0.00  0.00    +0.000 A 
ATOM     17  C   UNL     1      39.634   1.993  13.570  0.00  0.00    +0.000 A 
ENDBRANCH  10  12
BRANCH  11  18
ATOM     18  C   UNL     1      39.743  -1.458  13.115  0.00  0.00    +0.000 A 
ATOM     19  C   UNL     1      38.588  -2.230  13.407  0.00  0.00    +0.000 A 
ATOM     20  C   UNL     1      38.519  -2.967  14.564  0.00  0.00    +0.000 A 
ATOM     21  C   UNL     1      39.545  -2.994  15.479  0.00  0.00    +0.000 A 
ATOM     22  C   UNL     1      40.658  -2.231  15.163  0.00  0.00    +0.000 A 
ATOM     23  C   UNL     1      40.733  -1.492  14.009  0.00  0.00    +0.000 A 
BRANCH  21  24
ATOM     24  O   UNL     1      39.438  -3.751  16.636  0.00  0.00    +0.000 OA
BRANCH  24  25
ATOM     25  C   UNL     1      38.200  -3.755  17.333  0.00  0.00    +0.000 C 
BRANCH  25  26
ATOM     26  C   UNL     1      38.050  -2.394  18.007  0.00  0.00    +0.000 C 
BRANCH  26  27
ATOM     27  N   UNL     1      36.655  -2.173  18.336  0.00  0.00    +0.000 NA
ATOM     28  C   UNL     1      36.349  -0.831  18.712  0.00  0.00    +0.000 C 
ATOM     29  C   UNL     1      36.321  -0.120  17.364  0.00  0.00    +0.000 C 
ATOM     30  C   UNL     1      35.818  -1.177  16.398  0.00  0.00    +0.000 C 
ATOM     31  C   UNL     1      35.870  -2.469  17.166  0.00  0.00    +0.000 C 
ENDBRANCH  26  27
ENDBRANCH  25  26
ENDBRANCH  24  25
ENDBRANCH  21  24
ENDBRANCH  11  18
TORSDOF 6
ENDMDL
MODEL 8
REMARK VINA RESULT:      -7.2      2.959      6.185
REMARK  Name = 
REMARK  6 active torsions:
REMARK  status: ('A' for Active; 'I' for Inactive)
REMARK    1  A    between atoms: C_10  and  C_11
REMARK    2  A    between atoms: C_17  and  C_18
REMARK    3  A    between atoms: C_21  and  O_22
REMARK    4  A    between atoms: O_22  and  C_23
REMARK    5  A    between atoms: C_23  and  C_24
REMARK    6  A    between atoms: C_24  and  N_25
REMARK                            x       y       z     vdW  Elec       q    Type
REMARK                         _______ _______ _______ _____ _____    ______ ____
ROOT
ATOM      1  O   UNL     1      35.167  -0.636  19.573  0.00  0.00    +0.000 OA
ATOM      2  C   UNL     1      36.091  -0.725  18.513  0.00  0.00    +0.000 A 
ATOM      3  C   UNL     1      36.223   0.291  17.603  0.00  0.00    +0.000 A 
ATOM      4  C   UNL     1      37.164   0.121  16.587  0.00  0.00    +0.000 A 
ATOM      5  C   UNL     1      37.915  -1.014  16.511  0.00  0.00    +0.000 A 
ATOM      6  C   UNL     1      37.770  -2.005  17.419  0.00  0.00    +0.000 A 
ATOM      7  C   UNL     1      36.842  -1.895  18.465  0.00  0.00    +0.000 A 
ATOM      8  C   UNL     1      38.557  -3.251  17.379  0.00  0.00    +0.000 C 
ATOM      9  C   UNL     1      39.527  -3.388  16.299  0.00  0.00    +0.000 C 
ATOM     10  C   UNL     1      39.635  -2.234  15.326  0.00  0.00    +0.000 C 
ATOM     11  C   UNL     1      38.906  -1.165  15.420  0.00  0.00    +0.000 C 
ENDROOT
BRANCH  10  12
ATOM     12  C   UNL     1      40.665  -2.376  14.274  0.00  0.00    +0.000 A 
ATOM     13  C   UNL     1      41.968  -1.973  14.470  0.00  0.00    +0.000 A 
ATOM     14  C   UNL     1      42.863  -2.069  13.393  0.00  0.00    +0.000 A 
ATOM     15  C   UNL     1      42.469  -2.553  12.165  0.00  0.00    +0.000 A 
ATOM     16  C   UNL     1      41.160  -2.954  11.976  0.00  0.00    +0.000 A 
ATOM     17  C   UNL     1      40.311  -2.848  13.046  0.00  0.00    +0.000 A 
ENDBRANCH  10  12
BRANCH  11  18
ATOM     18  C   UNL     1      38.994  -0.074  14.448  0.00  0.00    +0.000 A 
ATOM     19  C   UNL     1      37.972  -0.132  13.464  0.00  0.00    +0.000 A 
ATOM     20  C   UNL     1      37.894   0.829  12.486  0.00  0.00    +0.000 A 
ATOM     21  C   UNL     1      38.784   1.873  12.411  0.00  0.00    +0.000 A 
ATOM     22  C   UNL     1      39.769   1.902  13.386  0.00  0.00    +0.000 A 
ATOM     23  C   UNL     1      39.853   0.945  14.367  0.00  0.00    +0.000 A 
BRANCH  21  24
ATOM     24  O   UNL     1      38.673   2.824  11.407  0.00  0.00    +0.000 OA
BRANCH  24  25
ATOM     25  C   UNL     1      38.391   4.168  11.773  0.00  0.00    +0.000 C 
BRANCH  25  26
ATOM     26  C   UNL     1      36.894   4.261  12.055  0.00  0.00    +0.000 C 
BRANCH  26  27
ATOM     27  N   UNL     1      36.673   5.134  13.192  0.00  0.00    +0.000 NA
ATOM     28  C   UNL     1      35.375   5.018  13.774  0.00  0.00    +0.000 C 
ATOM     29  C   UNL     1      35.497   3.725  14.572  0.00  0.00    +0.000 C 
ATOM     30  C   UNL     1      36.950   3.694  15.009  0.00  0.00    +0.000 C 
ATOM     31  C   UNL     1      37.623   4.780  14.214  0.00  0.00    +0.000 C 
ENDBRANCH  26  27
ENDBRANCH  25  26
ENDBRANCH  24  25
ENDBRANCH  21  24
ENDBRANCH  11  18
TORSDOF 6
ENDMDL
MODEL 9
REMARK VINA RESULT:      -7.2      7.476     10.635
REMARK  Name = 
REMARK  6 active torsions:
REMARK  status: ('A' for Active; 'I' for Inactive)
REMARK    1  A    between atoms: C_10  and  C_11
REMARK    2  A    between atoms: C_17  and  C_18
REMARK    3  A    between atoms: C_21  and  O_22
REMARK    4  A    between atoms: O_22  and  C_23
REMARK    5  A    between atoms: C_23  and  C_24
REMARK    6  A    between atoms: C_24  and  N_25
REMARK                            x       y       z     vdW  Elec       q    Type
REMARK                         _______ _______ _______ _____ _____    ______ ____
ROOT
ATOM      1  O   UNL     1      45.114   6.996  22.378  0.00  0.00    +0.000 OA
ATOM      2  C   UNL     1      43.962   7.183  21.589  0.00  0.00    +0.000 A 
ATOM      3  C   UNL     1      43.384   6.134  20.922  0.00  0.00    +0.000 A 
ATOM      4  C   UNL     1      42.243   6.408  20.166  0.00  0.00    +0.000 A 
ATOM      5  C   UNL     1      41.734   7.671  20.099  0.00  0.00    +0.000 A 
ATOM      6  C   UNL     1      42.319   8.692  20.765  0.00  0.00    +0.000 A 
ATOM      7  C   UNL     1      43.467   8.483  21.543  0.00  0.00    +0.000 A 
ATOM      8  C   UNL     1      41.807  10.074  20.724  0.00  0.00    +0.000 C 
ATOM      9  C   UNL     1      40.615  10.316  19.919  0.00  0.00    +0.000 C 
ATOM     10  C   UNL     1      40.015   9.122  19.209  0.00  0.00    +0.000 C 
ATOM     11  C   UNL     1      40.522   7.930  19.288  0.00  0.00    +0.000 C 
ENDROOT
BRANCH  10  12
ATOM     12  C   UNL     1      38.776   9.385  18.446  0.00  0.00    +0.000 A 
ATOM     13  C   UNL     1      37.527   9.215  19.003  0.00  0.00    +0.000 A 
ATOM     14  C   UNL     1      36.403   9.410  18.186  0.00  0.00    +0.000 A 
ATOM     15  C   UNL     1      36.523   9.763  16.859  0.00  0.00    +0.000 A 
ATOM     16  C   UNL     1      37.779   9.931  16.308  0.00  0.00    +0.000 A 
ATOM     17  C   UNL     1      38.858   9.734  17.131  0.00  0.00    +0.000 A 
ENDBRANCH  10  12
BRANCH  11  18
ATOM     18  C   UNL     1      39.953   6.792  18.563  0.00  0.00    +0.000 A 
ATOM     19  C   UNL     1      40.498   6.645  17.260  0.00  0.00    +0.000 A 
ATOM     20  C   UNL     1      40.090   5.614  16.449  0.00  0.00    +0.000 A 
ATOM     21  C   UNL     1      39.152   4.692  16.850  0.00  0.00    +0.000 A 
ATOM     22  C   UNL     1      38.642   4.864  18.127  0.00  0.00    +0.000 A 
ATOM     23  C   UNL     1      39.045   5.892  18.943  0.00  0.00    +0.000 A 
BRANCH  21  24
ATOM     24  O   UNL     1      38.766   3.665  16.002  0.00  0.00    +0.000 OA
BRANCH  24  25
ATOM     25  C   UNL     1      37.752   3.923  15.041  0.00  0.00    +0.000 C 
BRANCH  25  26
ATOM     26  C   UNL     1      36.556   3.041  15.388  0.00  0.00    +0.000 C 
BRANCH  26  27
ATOM     27  N   UNL     1      36.983   1.985  16.286  0.00  0.00    +0.000 NA
ATOM     28  C   UNL     1      36.116   1.780  17.400  0.00  0.00    +0.000 C 
ATOM     29  C   UNL     1      34.960   1.012  16.769  0.00  0.00    +0.000 C 
ATOM     30  C   UNL     1      35.614   0.198  15.667  0.00  0.00    +0.000 C 
ATOM     31  C   UNL     1      37.006   0.753  15.541  0.00  0.00    +0.000 C 
ENDBRANCH  26  27
ENDBRANCH  25  26
ENDBRANCH  24  25
ENDBRANCH  21  24
ENDBRANCH  11  18
TORSDOF 6
ENDMDL
MODEL 10
REMARK VINA RESULT:      -7.1      2.798      6.641
REMARK  Name = 
REMARK  6 active torsions:
REMARK  status: ('A' for Active; 'I' for Inactive)
REMARK    1  A    between atoms: C_10  and  C_11
REMARK    2  A    between atoms: C_17  and  C_18
REMARK    3  A    between atoms: C_21  and  O_22
REMARK    4  A    between atoms: O_22  and  C_23
REMARK    5  A    between atoms: C_23  and  C_24
REMARK    6  A    between atoms: C_24  and  N_25
REMARK                            x       y       z     vdW  Elec       q    Type
REMARK                         _______ _______ _______ _____ _____    ______ ____
ROOT
ATOM      1  O   UNL     1      44.266   1.637  12.897  0.00  0.00    +0.000 OA
ATOM      2  C   UNL     1      43.034   1.059  13.259  0.00  0.00    +0.000 A 
ATOM      3  C   UNL     1      41.860   1.751  13.120  0.00  0.00    +0.000 A 
ATOM      4  C   UNL     1      40.685   1.100  13.501  0.00  0.00    +0.000 A 
ATOM      5  C   UNL     1      40.717  -0.171  13.991  0.00  0.00    +0.000 A 
ATOM      6  C   UNL     1      41.886  -0.837  14.121  0.00  0.00    +0.000 A 
ATOM      7  C   UNL     1      43.101  -0.240  13.755  0.00  0.00    +0.000 A 
ATOM      8  C   UNL     1      41.972  -2.212  14.646  0.00  0.00    +0.000 C 
ATOM      9  C   UNL     1      40.721  -2.853  15.036  0.00  0.00    +0.000 C 
ATOM     10  C   UNL     1      39.454  -2.045  14.855  0.00  0.00    +0.000 C 
ATOM     11  C   UNL     1      39.452  -0.835  14.388  0.00  0.00    +0.000 C 
ENDROOT
BRANCH  10  12
ATOM     12  C   UNL     1      38.195  -2.739  15.205  0.00  0.00    +0.000 A 
ATOM     13  C   UNL     1      37.397  -3.326  14.248  0.00  0.00    +0.000 A 
ATOM     14  C   UNL     1      36.179  -3.894  14.655  0.00  0.00    +0.000 A 
ATOM     15  C   UNL     1      35.777  -3.877  15.973  0.00  0.00    +0.000 A 
ATOM     16  C   UNL     1      36.583  -3.285  16.926  0.00  0.00    +0.000 A 
ATOM     17  C   UNL     1      37.765  -2.740  16.498  0.00  0.00    +0.000 A 
ENDBRANCH  10  12
BRANCH  11  18
ATOM     18  C   UNL     1      38.223  -0.052  14.257  0.00  0.00    +0.000 A 
ATOM     19  C   UNL     1      37.824   0.552  15.479  0.00  0.00    +0.000 A 
ATOM     20  C   UNL     1      36.700   1.340  15.530  0.00  0.00    +0.000 A 
ATOM     21  C   UNL     1      35.921   1.579  14.423  0.00  0.00    +0.000 A 
ATOM     22  C   UNL     1      36.338   0.977  13.247  0.00  0.00    +0.000 A 
ATOM     23  C   UNL     1      37.460   0.188  13.188  0.00  0.00    +0.000 A 
BRANCH  21  24
ATOM     24  O   UNL     1      34.793   2.380  14.515  0.00  0.00    +0.000 OA
BRANCH  24  25
ATOM     25  C   UNL     1      34.932   3.690  15.049  0.00  0.00    +0.000 C 
BRANCH  25  26
ATOM     26  C   UNL     1      35.592   4.553  13.978  0.00  0.00    +0.000 C 
BRANCH  26  27
ATOM     27  N   UNL     1      36.536   5.459  14.605  0.00  0.00    +0.000 NA
ATOM     28  C   UNL     1      37.545   4.809  15.376  0.00  0.00    +0.000 C 
ATOM     29  C   UNL     1      38.491   4.296  14.296  0.00  0.00    +0.000 C 
ATOM     30  C   UNL     1      38.389   5.331  13.191  0.00  0.00    +0.000 C 
ATOM     31  C   UNL     1      37.210   6.188  13.562  0.00  0.00    +0.000 C 
ENDBRANCH  26  27
ENDBRANCH  25  26
ENDBRANCH  24  25
ENDBRANCH  21  24
ENDBRANCH  11  18
TORSDOF 6
ENDMDL
