MODEL 1
REMARK VINA RESULT:      -7.8      0.000      0.000
REMARK  Name = 
REMARK  8 active torsions:
REMARK  status: ('A' for Active; 'I' for Inactive)
REMARK    1  A    between atoms: C_5  and  C_6
REMARK    2  A    between atoms: C_9  and  S_10
REMARK    3  A    between atoms: S_10  and  C_11
REMARK    4  A    between atoms: C_11  and  C_12
REMARK    5  A    between atoms: C_15  and  C_16
REMARK    6  A    between atoms: N_18  and  C_19
REMARK    7  A    between atoms: C_19  and  C_20
REMARK    8  A    between atoms: C_20  and  C_21
REMARK                            x       y       z     vdW  Elec       q    Type
REMARK                         _______ _______ _______ _____ _____    ______ ____
ROOT
ATOM      1  C   UNL     1      34.789   4.600  14.288  0.00  0.00    +0.000 C 
ENDROOT
BRANCH   1   2
ATOM      2  C   UNL     1      35.146   3.268  14.829  0.00  0.00    +0.000 A 
ATOM      3  C   UNL     1      34.694   2.913  16.077  0.00  0.00    +0.000 A 
ATOM      4  C   UNL     1      35.028   1.678  16.570  0.00  0.00    +0.000 A 
ATOM      5  C   UNL     1      35.790   0.800  15.859  0.00  0.00    +0.000 A 
ATOM      6  C   UNL     1      36.247   1.154  14.604  0.00  0.00    +0.000 A 
ATOM      7  C   UNL     1      35.908   2.392  14.119  0.00  0.00    +0.000 A 
BRANCH   5   8
ATOM      8  C   UNL     1      36.132  -0.511  16.405  0.00  0.00    +0.000 C 
ATOM      9  O   UNL     1      36.948  -0.636  17.343  0.00  0.00    +0.000 OA
ATOM     10  N   UNL     1      35.541  -1.675  15.879  0.00  0.00    +0.000 NA
BRANCH  10  11
ATOM     11  C   UNL     1      35.779  -3.016  16.310  0.00  0.00    +0.000 C 
BRANCH  11  12
ATOM     12  C   UNL     1      37.040  -3.609  15.709  0.00  0.00    +0.000 C 
BRANCH  12  13
ATOM     13  C   UNL     1      38.086  -3.778  16.790  0.00  0.00    +0.000 C 
ATOM     14  C   UNL     1      38.122  -5.201  17.265  0.00  0.00    +0.000 C 
ATOM     15  C   UNL     1      39.428  -3.412  16.225  0.00  0.00    +0.000 C 
ENDBRANCH  12  13
ENDBRANCH  11  12
ENDBRANCH  10  11
ENDBRANCH   5   8
ENDBRANCH   1   2
BRANCH   1  16
ATOM     16  S   UNL     1      36.254   5.461  13.664  0.00  0.00    +0.000 S 
BRANCH  16  20
ATOM     17  C   UNL     1      39.344   6.010  16.959  0.00  0.00    +0.000 A 
ATOM     18  C   UNL     1      39.317   4.829  16.269  0.00  0.00    +0.000 A 
ATOM     19  C   UNL     1      38.379   4.655  15.266  0.00  0.00    +0.000 A 
ATOM     20  C   UNL     1      37.482   5.654  14.959  0.00  0.00    +0.000 A 
ATOM     21  N   UNL     1      37.554   6.793  15.669  0.00  0.00    +0.000 NA
ATOM     22  N   UNL     1      38.450   6.954  16.625  0.00  0.00    +0.000 NA
BRANCH  17  27
ATOM     23  C   UNL     1      43.253   6.810  21.142  0.00  0.00    +0.000 C 
ATOM     24  C   UNL     1      42.252   6.604  20.060  0.00  0.00    +0.000 A 
ATOM     25  C   UNL     1      40.919   6.379  20.355  0.00  0.00    +0.000 A 
ATOM     26  C   UNL     1      39.978   6.187  19.354  0.00  0.00    +0.000 A 
ATOM     27  C   UNL     1      40.330   6.212  18.022  0.00  0.00    +0.000 A 
ATOM     28  C   UNL     1      41.661   6.436  17.736  0.00  0.00    +0.000 A 
ATOM     29  C   UNL     1      42.602   6.629  18.726  0.00  0.00    +0.000 A 
ENDBRANCH  17  27
ENDBRANCH  16  20
ENDBRANCH   1  16
TORSDOF 8
ENDMDL
MODEL 2
REMARK VINA RESULT:      -7.6      2.571      9.294
REMARK  Name = 
REMARK  8 active torsions:
REMARK  status: ('A' for Active; 'I' for Inactive)
REMARK    1  A    between atoms: C_5  and  C_6
REMARK    2  A    between atoms: C_9  and  S_10
REMARK    3  A    between atoms: S_10  and  C_11
REMARK    4  A    between atoms: C_11  and  C_12
REMARK    5  A    between atoms: C_15  and  C_16
REMARK    6  A    between atoms: N_18  and  C_19
REMARK    7  A    between atoms: C_19  and  C_20
REMARK    8  A    between atoms: C_20  and  C_21
REMARK                            x       y       z     vdW  Elec       q    Type
REMARK                         _______ _______ _______ _____ _____    ______ ____
ROOT
ATOM      1  C   UNL     1      38.386   4.459  14.863  0.00  0.00    +0.000 C 
ENDROOT
BRANCH   1   2
ATOM      2  C   UNL     1      39.006   4.980  16.103  0.00  0.00    +0.000 A 
ATOM      3  C   UNL     1      38.412   4.702  17.311  0.00  0.00    +0.000 A 
ATOM      4  C   UNL     1      38.993   5.187  18.455  0.00  0.00    +0.000 A 
ATOM      5  C   UNL     1      40.134   5.931  18.425  0.00  0.00    +0.000 A 
ATOM      6  C   UNL     1      40.733   6.213  17.211  0.00  0.00    +0.000 A 
ATOM      7  C   UNL     1      40.145   5.724  16.072  0.00  0.00    +0.000 A 
BRANCH   5   8
ATOM      8  C   UNL     1      40.734   6.436  19.656  0.00  0.00    +0.000 C 
ATOM      9  O   UNL     1      40.034   6.882  20.591  0.00  0.00    +0.000 OA
ATOM     10  N   UNL     1      42.132   6.429  19.820  0.00  0.00    +0.000 NA
BRANCH  10  11
ATOM     11  C   UNL     1      42.855   6.888  20.964  0.00  0.00    +0.000 C 
BRANCH  11  12
ATOM     12  C   UNL     1      44.248   6.289  21.054  0.00  0.00    +0.000 C 
BRANCH  12  13
ATOM     13  C   UNL     1      44.294   5.281  22.182  0.00  0.00    +0.000 C 
ATOM     14  C   UNL     1      45.504   4.403  22.051  0.00  0.00    +0.000 C 
ATOM     15  C   UNL     1      44.360   6.022  23.487  0.00  0.00    +0.000 C 
ENDBRANCH  12  13
ENDBRANCH  11  12
ENDBRANCH  10  11
ENDBRANCH   5   8
ENDBRANCH   1   2
BRANCH   1  16
ATOM     16  S   UNL     1      36.744   3.776  15.195  0.00  0.00    +0.000 S 
BRANCH  16  20
ATOM     17  C   UNL     1      37.055  -0.680  16.068  0.00  0.00    +0.000 A 
ATOM     18  C   UNL     1      35.857  -0.049  16.266  0.00  0.00    +0.000 A 
ATOM     19  C   UNL     1      35.756   1.306  16.003  0.00  0.00    +0.000 A 
ATOM     20  C   UNL     1      36.842   2.018  15.547  0.00  0.00    +0.000 A 
ATOM     21  N   UNL     1      37.994   1.349  15.370  0.00  0.00    +0.000 NA
ATOM     22  N   UNL     1      38.086   0.056  15.623  0.00  0.00    +0.000 NA
BRANCH  17  27
ATOM     23  C   UNL     1      37.532  -6.342  17.128  0.00  0.00    +0.000 C 
ATOM     24  C   UNL     1      37.403  -4.886  16.851  0.00  0.00    +0.000 A 
ATOM     25  C   UNL     1      38.286  -3.974  17.403  0.00  0.00    +0.000 A 
ATOM     26  C   UNL     1      38.174  -2.614  17.151  0.00  0.00    +0.000 A 
ATOM     27  C   UNL     1      37.180  -2.112  16.340  0.00  0.00    +0.000 A 
ATOM     28  C   UNL     1      36.304  -3.028  15.794  0.00  0.00    +0.000 A 
ATOM     29  C   UNL     1      36.409  -4.381  16.040  0.00  0.00    +0.000 A 
ENDBRANCH  17  27
ENDBRANCH  16  20
ENDBRANCH   1  16
TORSDOF 8
ENDMDL
MODEL 3
REMARK VINA RESULT:      -7.5      1.312      2.187
REMARK  Name = 
REMARK  8 active torsions:
REMARK  status: ('A' for Active; 'I' for Inactive)
REMARK    1  A    between atoms: C_5  and  C_6
REMARK    2  A    between atoms: C_9  and  S_10
REMARK    3  A    between atoms: S_10  and  C_11
REMARK    4  A    between atoms: C_11  and  C_12
REMARK    5  A    between atoms: C_15  and  C_16
REMARK    6  A    between atoms: N_18  and  C_19
REMARK    7  A    between atoms: C_19  and  C_20
REMARK    8  A    between atoms: C_20  and  C_21
REMARK                            x       y       z     vdW  Elec       q    Type
REMARK                         _______ _______ _______ _____ _____    ______ ____
ROOT
ATOM      1  C   UNL     1      34.826   3.842  14.782  0.00  0.00    +0.000 C 
ENDROOT
BRANCH   1   2
ATOM      2  C   UNL     1      35.279   2.477  15.135  0.00  0.00    +0.000 A 
ATOM      3  C   UNL     1      36.170   1.836  14.308  0.00  0.00    +0.000 A 
ATOM      4  C   UNL     1      36.586   0.574  14.642  0.00  0.00    +0.000 A 
ATOM      5  C   UNL     1      36.141  -0.058  15.765  0.00  0.00    +0.000 A 
ATOM      6  C   UNL     1      35.245   0.583  16.599  0.00  0.00    +0.000 A 
ATOM      7  C   UNL     1      34.835   1.847  16.256  0.00  0.00    +0.000 A 
BRANCH   5   8
ATOM      8  C   UNL     1      36.599  -1.403  16.101  0.00  0.00    +0.000 C 
ATOM      9  O   UNL     1      35.817  -2.267  16.554  0.00  0.00    +0.000 OA
ATOM     10  N   UNL     1      37.948  -1.762  15.919  0.00  0.00    +0.000 NA
BRANCH  10  11
ATOM     11  C   UNL     1      38.535  -3.033  16.203  0.00  0.00    +0.000 C 
BRANCH  11  12
ATOM     12  C   UNL     1      39.972  -3.133  15.723  0.00  0.00    +0.000 C 
BRANCH  12  13
ATOM     13  C   UNL     1      40.121  -2.388  14.414  0.00  0.00    +0.000 C 
ATOM     14  C   UNL     1      40.763  -1.051  14.643  0.00  0.00    +0.000 C 
ATOM     15  C   UNL     1      40.987  -3.200  13.494  0.00  0.00    +0.000 C 
ENDBRANCH  12  13
ENDBRANCH  11  12
ENDBRANCH  10  11
ENDBRANCH   5   8
ENDBRANCH   1   2
BRANCH   1  16
ATOM     16  S   UNL     1      36.169   4.799  14.037  0.00  0.00    +0.000 S 
BRANCH  16  20
ATOM     17  C   UNL     1      39.420   5.769  17.071  0.00  0.00    +0.000 A 
ATOM     18  C   UNL     1      38.526   4.773  17.355  0.00  0.00    +0.000 A 
ATOM     19  C   UNL     1      37.534   4.474  16.438  0.00  0.00    +0.000 A 
ATOM     20  C   UNL     1      37.442   5.164  15.249  0.00  0.00    +0.000 A 
ATOM     21  N   UNL     1      38.346   6.132  15.022  0.00  0.00    +0.000 NA
ATOM     22  N   UNL     1      39.290   6.414  15.901  0.00  0.00    +0.000 NA
BRANCH  17  27
ATOM     23  C   UNL     1      43.576   7.065  20.873  0.00  0.00    +0.000 C 
ATOM     24  C   UNL     1      42.501   6.731  19.900  0.00  0.00    +0.000 A 
ATOM     25  C   UNL     1      42.737   6.766  18.537  0.00  0.00    +0.000 A 
ATOM     26  C   UNL     1      41.742   6.455  17.621  0.00  0.00    +0.000 A 
ATOM     27  C   UNL     1      40.475   6.098  18.029  0.00  0.00    +0.000 A 
ATOM     28  C   UNL     1      40.248   6.067  19.390  0.00  0.00    +0.000 A 
ATOM     29  C   UNL     1      41.233   6.374  20.306  0.00  0.00    +0.000 A 
ENDBRANCH  17  27
ENDBRANCH  16  20
ENDBRANCH   1  16
TORSDOF 8
ENDMDL
MODEL 4
REMARK VINA RESULT:      -7.5      6.805     11.320
REMARK  Name = 
REMARK  8 active torsions:
REMARK  status: ('A' for Active; 'I' for Inactive)
REMARK    1  A    between atoms: C_5  and  C_6
REMARK    2  A    between atoms: C_9  and  S_10
REMARK    3  A    between atoms: S_10  and  C_11
REMARK    4  A    between atoms: C_11  and  C_12
REMARK    5  A    between atoms: C_15  and  C_16
REMARK    6  A    between atoms: N_18  and  C_19
REMARK    7  A    between atoms: C_19  and  C_20
REMARK    8  A    between atoms: C_20  and  C_21
REMARK                            x       y       z     vdW  Elec       q    Type
REMARK                         _______ _______ _______ _____ _____    ______ ____
ROOT
ATOM      1  C   UNL     1      46.189   6.589  23.384  0.00  0.00    +0.000 C 
ENDROOT
BRANCH   1   2
ATOM      2  C   UNL     1      45.007   6.742  22.505  0.00  0.00    +0.000 A 
ATOM      3  C   UNL     1      44.580   8.006  22.176  0.00  0.00    +0.000 A 
ATOM      4  C   UNL     1      43.486   8.139  21.361  0.00  0.00    +0.000 A 
ATOM      5  C   UNL     1      42.815   7.058  20.872  0.00  0.00    +0.000 A 
ATOM      6  C   UNL     1      43.242   5.785  21.201  0.00  0.00    +0.000 A 
ATOM      7  C   UNL     1      44.338   5.662  22.017  0.00  0.00    +0.000 A 
BRANCH   5   8
ATOM      8  C   UNL     1      41.653   7.225  20.004  0.00  0.00    +0.000 C 
ATOM      9  O   UNL     1      41.618   8.108  19.120  0.00  0.00    +0.000 OA
ATOM     10  N   UNL     1      40.533   6.384  20.146  0.00  0.00    +0.000 NA
BRANCH  10  11
ATOM     11  C   UNL     1      39.333   6.430  19.372  0.00  0.00    +0.000 C 
BRANCH  11  12
ATOM     12  C   UNL     1      39.116   5.168  18.556  0.00  0.00    +0.000 C 
BRANCH  12  13
ATOM     13  C   UNL     1      38.949   5.532  17.096  0.00  0.00    +0.000 C 
ATOM     14  C   UNL     1      38.036   4.556  16.415  0.00  0.00    +0.000 C 
ATOM     15  C   UNL     1      38.355   6.909  17.007  0.00  0.00    +0.000 C 
ENDBRANCH  12  13
ENDBRANCH  11  12
ENDBRANCH  10  11
ENDBRANCH   5   8
ENDBRANCH   1   2
BRANCH   1  16
ATOM     16  S   UNL     1      46.038   5.115  24.423  0.00  0.00    +0.000 S 
BRANCH  16  20
ATOM     17  C   UNL     1      42.613   5.504  27.394  0.00  0.00    +0.000 A 
ATOM     18  C   UNL     1      43.150   6.639  26.851  0.00  0.00    +0.000 A 
ATOM     19  C   UNL     1      44.192   6.528  25.948  0.00  0.00    +0.000 A 
ATOM     20  C   UNL     1      44.688   5.293  25.593  0.00  0.00    +0.000 A 
ATOM     21  N   UNL     1      44.123   4.212  26.156  0.00  0.00    +0.000 NA
ATOM     22  N   UNL     1      43.129   4.324  27.018  0.00  0.00    +0.000 NA
BRANCH  17  27
ATOM     23  C   UNL     1      38.250   5.914  31.163  0.00  0.00    +0.000 C 
ATOM     24  C   UNL     1      39.372   5.816  30.191  0.00  0.00    +0.000 A 
ATOM     25  C   UNL     1      40.075   4.634  30.030  0.00  0.00    +0.000 A 
ATOM     26  C   UNL     1      41.122   4.532  29.126  0.00  0.00    +0.000 A 
ATOM     27  C   UNL     1      41.509   5.603  28.349  0.00  0.00    +0.000 A 
ATOM     28  C   UNL     1      40.805   6.777  28.517  0.00  0.00    +0.000 A 
ATOM     29  C   UNL     1      39.762   6.886  29.414  0.00  0.00    +0.000 A 
ENDBRANCH  17  27
ENDBRANCH  16  20
ENDBRANCH   1  16
TORSDOF 8
ENDMDL
MODEL 5
REMARK VINA RESULT:      -7.4      3.189      9.690
REMARK  Name = 
REMARK  8 active torsions:
REMARK  status: ('A' for Active; 'I' for Inactive)
REMARK    1  A    between atoms: C_5  and  C_6
REMARK    2  A    between atoms: C_9  and  S_10
REMARK    3  A    between atoms: S_10  and  C_11
REMARK    4  A    between atoms: C_11  and  C_12
REMARK    5  A    between atoms: C_15  and  C_16
REMARK    6  A    between atoms: N_18  and  C_19
REMARK    7  A    between atoms: C_19  and  C_20
REMARK    8  A    between atoms: C_20  and  C_21
REMARK                            x       y       z     vdW  Elec       q    Type
REMARK                         _______ _______ _______ _____ _____    ______ ____
ROOT
ATOM      1  C   UNL     1      38.406   5.369  16.537  0.00  0.00    +0.000 C 
ENDROOT
BRANCH   1   2
ATOM      2  C   UNL     1      39.510   5.743  17.450  0.00  0.00    +0.000 A 
ATOM      3  C   UNL     1      39.294   5.705  18.807  0.00  0.00    +0.000 A 
ATOM      4  C   UNL     1      40.321   6.052  19.645  0.00  0.00    +0.000 A 
ATOM      5  C   UNL     1      41.542   6.430  19.172  0.00  0.00    +0.000 A 
ATOM      6  C   UNL     1      41.763   6.469  17.808  0.00  0.00    +0.000 A 
ATOM      7  C   UNL     1      40.729   6.120  16.977  0.00  0.00    +0.000 A 
BRANCH   5   8
ATOM      8  C   UNL     1      42.622   6.793  20.085  0.00  0.00    +0.000 C 
ATOM      9  O   UNL     1      43.338   7.798  19.884  0.00  0.00    +0.000 OA
ATOM     10  N   UNL     1      42.883   6.011  21.226  0.00  0.00    +0.000 NA
BRANCH  10  11
ATOM     11  C   UNL     1      43.900   6.245  22.201  0.00  0.00    +0.000 C 
BRANCH  11  12
ATOM     12  C   UNL     1      44.687   4.990  22.536  0.00  0.00    +0.000 C 
BRANCH  12  13
ATOM     13  C   UNL     1      45.731   4.747  21.468  0.00  0.00    +0.000 C 
ATOM     14  C   UNL     1      46.363   6.043  21.050  0.00  0.00    +0.000 C 
ATOM     15  C   UNL     1      46.789   3.839  22.025  0.00  0.00    +0.000 C 
ENDBRANCH  12  13
ENDBRANCH  11  12
ENDBRANCH  10  11
ENDBRANCH   5   8
ENDBRANCH   1   2
BRANCH   1  16
ATOM     16  S   UNL     1      39.020   4.392  15.142  0.00  0.00    +0.000 S 
BRANCH  16  20
ATOM     17  C   UNL     1      37.216   0.214  15.124  0.00  0.00    +0.000 A 
ATOM     18  C   UNL     1      36.380   1.295  15.186  0.00  0.00    +0.000 A 
ATOM     19  C   UNL     1      36.922   2.568  15.193  0.00  0.00    +0.000 A 
ATOM     20  C   UNL     1      38.285   2.754  15.137  0.00  0.00    +0.000 A 
ATOM     21  N   UNL     1      39.059   1.657  15.077  0.00  0.00    +0.000 NA
ATOM     22  N   UNL     1      38.537   0.445  15.072  0.00  0.00    +0.000 NA
BRANCH  17  27
ATOM     23  C   UNL     1      35.036  -5.139  15.074  0.00  0.00    +0.000 C 
ATOM     24  C   UNL     1      35.602  -3.763  15.081  0.00  0.00    +0.000 A 
ATOM     25  C   UNL     1      35.070  -2.778  15.894  0.00  0.00    +0.000 A 
ATOM     26  C   UNL     1      35.591  -1.492  15.909  0.00  0.00    +0.000 A 
ATOM     27  C   UNL     1      36.661  -1.139  15.115  0.00  0.00    +0.000 A 
ATOM     28  C   UNL     1      37.185  -2.128  14.307  0.00  0.00    +0.000 A 
ATOM     29  C   UNL     1      36.673  -3.409  14.287  0.00  0.00    +0.000 A 
ENDBRANCH  17  27
ENDBRANCH  16  20
ENDBRANCH   1  16
TORSDOF 8
ENDMDL
MODEL 6
REMARK VINA RESULT:      -7.4      1.378      2.010
REMARK  Name = 
REMARK  8 active torsions:
REMARK  status: ('A' for Active; 'I' for Inactive)
REMARK    1  A    between atoms: C_5  and  C_6
REMARK    2  A    between atoms: C_9  and  S_10
REMARK    3  A    between atoms: S_10  and  C_11
REMARK    4  A    between atoms: C_11  and  C_12
REMARK    5  A    between atoms: C_15  and  C_16
REMARK    6  A    between atoms: N_18  and  C_19
REMARK    7  A    between atoms: C_19  and  C_20
REMARK    8  A    between atoms: C_20  and  C_21
REMARK                            x       y       z     vdW  Elec       q    Type
REMARK                         _______ _______ _______ _____ _____    ______ ____
ROOT
ATOM      1  C   UNL     1      34.842   4.564  14.355  0.00  0.00    +0.000 C 
ENDROOT
BRANCH   1   2
ATOM      2  C   UNL     1      35.193   3.204  14.825  0.00  0.00    +0.000 A 
ATOM      3  C   UNL     1      36.005   2.418  14.042  0.00  0.00    +0.000 A 
ATOM      4  C   UNL     1      36.327   1.162  14.485  0.00  0.00    +0.000 A 
ATOM      5  C   UNL     1      35.865   0.675  15.672  0.00  0.00    +0.000 A 
ATOM      6  C   UNL     1      35.048   1.462  16.461  0.00  0.00    +0.000 A 
ATOM      7  C   UNL     1      34.732   2.719  16.009  0.00  0.00    +0.000 A 
BRANCH   5   8
ATOM      8  C   UNL     1      36.223  -0.667  16.123  0.00  0.00    +0.000 C 
ATOM      9  O   UNL     1      35.456  -1.640  15.953  0.00  0.00    +0.000 OA
ATOM     10  N   UNL     1      37.453  -0.897  16.766  0.00  0.00    +0.000 NA
BRANCH  10  11
ATOM     11  C   UNL     1      37.933  -2.150  17.258  0.00  0.00    +0.000 C 
BRANCH  11  12
ATOM     12  C   UNL     1      38.477  -2.052  18.672  0.00  0.00    +0.000 C 
BRANCH  12  13
ATOM     13  C   UNL     1      37.922  -3.186  19.507  0.00  0.00    +0.000 C 
ATOM     14  C   UNL     1      38.985  -4.213  19.767  0.00  0.00    +0.000 C 
ATOM     15  C   UNL     1      37.442  -2.630  20.817  0.00  0.00    +0.000 C 
ENDBRANCH  12  13
ENDBRANCH  11  12
ENDBRANCH  10  11
ENDBRANCH   5   8
ENDBRANCH   1   2
BRANCH   1  16
ATOM     16  S   UNL     1      36.290   5.410  13.675  0.00  0.00    +0.000 S 
BRANCH  16  20
ATOM     17  C   UNL     1      39.453   6.005  16.893  0.00  0.00    +0.000 A 
ATOM     18  C   UNL     1      39.694   5.111  15.886  0.00  0.00    +0.000 A 
ATOM     19  C   UNL     1      38.736   4.924  14.905  0.00  0.00    +0.000 A 
ATOM     20  C   UNL     1      37.552   5.627  14.933  0.00  0.00    +0.000 A 
ATOM     21  N   UNL     1      37.368   6.492  15.945  0.00  0.00    +0.000 NA
ATOM     22  N   UNL     1      38.285   6.666  16.879  0.00  0.00    +0.000 NA
BRANCH  17  27
ATOM     23  C   UNL     1      43.396   6.834  21.037  0.00  0.00    +0.000 C 
ATOM     24  C   UNL     1      42.376   6.621  19.976  0.00  0.00    +0.000 A 
ATOM     25  C   UNL     1      42.729   6.614  18.638  0.00  0.00    +0.000 A 
ATOM     26  C   UNL     1      41.785   6.415  17.640  0.00  0.00    +0.000 A 
ATOM     27  C   UNL     1      40.455   6.215  17.938  0.00  0.00    +0.000 A 
ATOM     28  C   UNL     1      40.111   6.224  19.275  0.00  0.00    +0.000 A 
ATOM     29  C   UNL     1      41.044   6.421  20.272  0.00  0.00    +0.000 A 
ENDBRANCH  17  27
ENDBRANCH  16  20
ENDBRANCH   1  16
TORSDOF 8
ENDMDL
MODEL 7
REMARK VINA RESULT:      -7.2      7.498     11.884
REMARK  Name = 
REMARK  8 active torsions:
REMARK  status: ('A' for Active; 'I' for Inactive)
REMARK    1  A    between atoms: C_5  and  C_6
REMARK    2  A    between atoms: C_9  and  S_10
REMARK    3  A    between atoms: S_10  and  C_11
REMARK    4  A    between atoms: C_11  and  C_12
REMARK    5  A    between atoms: C_15  and  C_16
REMARK    6  A    between atoms: N_18  and  C_19
REMARK    7  A    between atoms: C_19  and  C_20
REMARK    8  A    between atoms: C_20  and  C_21
REMARK                            x       y       z     vdW  Elec       q    Type
REMARK                         _______ _______ _______ _____ _____    ______ ____
ROOT
ATOM      1  C   UNL     1      46.394   6.256  23.483  0.00  0.00    +0.000 C 
ENDROOT
BRANCH   1   2
ATOM      2  C   UNL     1      45.214   6.511  22.625  0.00  0.00    +0.000 A 
ATOM      3  C   UNL     1      44.505   5.441  22.133  0.00  0.00    +0.000 A 
ATOM      4  C   UNL     1      43.414   5.686  21.341  0.00  0.00    +0.000 A 
ATOM      5  C   UNL     1      43.017   6.952  21.031  0.00  0.00    +0.000 A 
ATOM      6  C   UNL     1      43.728   8.030  21.524  0.00  0.00    +0.000 A 
ATOM      7  C   UNL     1      44.819   7.775  22.316  0.00  0.00    +0.000 A 
BRANCH   5   8
ATOM      8  C   UNL     1      41.850   7.188  20.186  0.00  0.00    +0.000 C 
ATOM      9  O   UNL     1      41.835   8.098  19.329  0.00  0.00    +0.000 OA
ATOM     10  N   UNL     1      40.702   6.384  20.318  0.00  0.00    +0.000 NA
BRANCH  10  11
ATOM     11  C   UNL     1      39.494   6.498  19.564  0.00  0.00    +0.000 C 
BRANCH  11  12
ATOM     12  C   UNL     1      39.117   7.941  19.280  0.00  0.00    +0.000 C 
BRANCH  12  13
ATOM     13  C   UNL     1      38.180   8.441  20.359  0.00  0.00    +0.000 C 
ATOM     14  C   UNL     1      38.728   9.687  20.991  0.00  0.00    +0.000 C 
ATOM     15  C   UNL     1      36.848   8.748  19.737  0.00  0.00    +0.000 C 
ENDBRANCH  12  13
ENDBRANCH  11  12
ENDBRANCH  10  11
ENDBRANCH   5   8
ENDBRANCH   1   2
BRANCH   1  16
ATOM     16  S   UNL     1      46.132   4.805  24.533  0.00  0.00    +0.000 S 
BRANCH  16  20
ATOM     17  C   UNL     1      42.625   5.403  27.371  0.00  0.00    +0.000 A 
ATOM     18  C   UNL     1      43.213   6.501  26.806  0.00  0.00    +0.000 A 
ATOM     19  C   UNL     1      44.281   6.327  25.943  0.00  0.00    +0.000 A 
ATOM     20  C   UNL     1      44.751   5.066  25.650  0.00  0.00    +0.000 A 
ATOM     21  N   UNL     1      44.135   4.023  26.232  0.00  0.00    +0.000 NA
ATOM     22  N   UNL     1      43.117   4.195  27.055  0.00  0.00    +0.000 NA
BRANCH  17  27
ATOM     23  C   UNL     1      38.162   6.038  30.989  0.00  0.00    +0.000 C 
ATOM     24  C   UNL     1      39.311   5.868  30.060  0.00  0.00    +0.000 A 
ATOM     25  C   UNL     1      39.699   6.889  29.210  0.00  0.00    +0.000 A 
ATOM     26  C   UNL     1      40.770   6.740  28.340  0.00  0.00    +0.000 A 
ATOM     27  C   UNL     1      41.494   5.569  28.285  0.00  0.00    +0.000 A 
ATOM     28  C   UNL     1      41.101   4.555  29.135  0.00  0.00    +0.000 A 
ATOM     29  C   UNL     1      40.037   4.696  30.002  0.00  0.00    +0.000 A 
ENDBRANCH  17  27
ENDBRANCH  16  20
ENDBRANCH   1  16
TORSDOF 8
ENDMDL
MODEL 8
REMARK VINA RESULT:      -7.1      3.372      9.668
REMARK  Name = 
REMARK  8 active torsions:
REMARK  status: ('A' for Active; 'I' for Inactive)
REMARK    1  A    between atoms: C_5  and  C_6
REMARK    2  A    between atoms: C_9  and  S_10
REMARK    3  A    between atoms: S_10  and  C_11
REMARK    4  A    between atoms: C_11  and  C_12
REMARK    5  A    between atoms: C_15  and  C_16
REMARK    6  A    between atoms: N_18  and  C_19
REMARK    7  A    between atoms: C_19  and  C_20
REMARK    8  A    between atoms: C_20  and  C_21
REMARK                            x       y       z     vdW  Elec       q    Type
REMARK                         _______ _______ _______ _____ _____    ______ ____
ROOT
ATOM      1  C   UNL     1      40.337   6.040  16.173  0.00  0.00    +0.000 C 
ENDROOT
BRANCH   1   2
ATOM      2  C   UNL     1      41.059   6.239  17.450  0.00  0.00    +0.000 A 
ATOM      3  C   UNL     1      42.396   6.558  17.417  0.00  0.00    +0.000 A 
ATOM      4  C   UNL     1      43.056   6.741  18.603  0.00  0.00    +0.000 A 
ATOM      5  C   UNL     1      42.428   6.616  19.806  0.00  0.00    +0.000 A 
ATOM      6  C   UNL     1      41.084   6.295  19.843  0.00  0.00    +0.000 A 
ATOM      7  C   UNL     1      40.431   6.113  18.650  0.00  0.00    +0.000 A 
BRANCH   5   8
ATOM      8  C   UNL     1      43.153   6.818  21.057  0.00  0.00    +0.000 C 
ATOM      9  O   UNL     1      43.330   7.960  21.534  0.00  0.00    +0.000 OA
ATOM     10  N   UNL     1      43.672   5.717  21.764  0.00  0.00    +0.000 NA
BRANCH  10  11
ATOM     11  C   UNL     1      44.398   5.763  22.993  0.00  0.00    +0.000 C 
BRANCH  11  12
ATOM     12  C   UNL     1      45.902   5.751  22.784  0.00  0.00    +0.000 C 
BRANCH  12  13
ATOM     13  C   UNL     1      46.244   4.848  21.618  0.00  0.00    +0.000 C 
ATOM     14  C   UNL     1      47.276   5.493  20.741  0.00  0.00    +0.000 C 
ATOM     15  C   UNL     1      46.789   3.555  22.154  0.00  0.00    +0.000 C 
ENDBRANCH  12  13
ENDBRANCH  11  12
ENDBRANCH  10  11
ENDBRANCH   5   8
ENDBRANCH   1   2
BRANCH   1  16
ATOM     16  S   UNL     1      38.546   6.019  16.436  0.00  0.00    +0.000 S 
BRANCH  16  20
ATOM     17  C   UNL     1      36.886   1.797  16.081  0.00  0.00    +0.000 A 
ATOM     18  C   UNL     1      37.348   2.422  14.956  0.00  0.00    +0.000 A 
ATOM     19  C   UNL     1      37.853   3.707  15.056  0.00  0.00    +0.000 A 
ATOM     20  C   UNL     1      37.896   4.354  16.271  0.00  0.00    +0.000 A 
ATOM     21  N   UNL     1      37.429   3.693  17.343  0.00  0.00    +0.000 NA
ATOM     22  N   UNL     1      36.947   2.467  17.242  0.00  0.00    +0.000 NA
BRANCH  17  27
ATOM     23  C   UNL     1      34.756  -3.566  15.752  0.00  0.00    +0.000 C 
ATOM     24  C   UNL     1      35.300  -2.185  15.843  0.00  0.00    +0.000 A 
ATOM     25  C   UNL     1      36.205  -1.712  14.909  0.00  0.00    +0.000 A 
ATOM     26  C   UNL     1      36.718  -0.425  14.984  0.00  0.00    +0.000 A 
ATOM     27  C   UNL     1      36.350   0.438  15.993  0.00  0.00    +0.000 A 
ATOM     28  C   UNL     1      35.449  -0.041  16.922  0.00  0.00    +0.000 A 
ATOM     29  C   UNL     1      34.934  -1.319  16.853  0.00  0.00    +0.000 A 
ENDBRANCH  17  27
ENDBRANCH  16  20
ENDBRANCH   1  16
TORSDOF 8
ENDMDL
MODEL 9
REMARK VINA RESULT:      -7.0      1.503      2.087
REMARK  Name = 
REMARK  8 active torsions:
REMARK  status: ('A' for Active; 'I' for Inactive)
REMARK    1  A    between atoms: C_5  and  C_6
REMARK    2  A    between atoms: C_9  and  S_10
REMARK    3  A    between atoms: S_10  and  C_11
REMARK    4  A    between atoms: C_11  and  C_12
REMARK    5  A    between atoms: C_15  and  C_16
REMARK    6  A    between atoms: N_18  and  C_19
REMARK    7  A    between atoms: C_19  and  C_20
REMARK    8  A    between atoms: C_20  and  C_21
REMARK                            x       y       z     vdW  Elec       q    Type
REMARK                         _______ _______ _______ _____ _____    ______ ____
ROOT
ATOM      1  C   UNL     1      34.834   3.354  15.372  0.00  0.00    +0.000 C 
ENDROOT
BRANCH   1   2
ATOM      2  C   UNL     1      35.305   1.951  15.394  0.00  0.00    +0.000 A 
ATOM      3  C   UNL     1      36.037   1.477  14.332  0.00  0.00    +0.000 A 
ATOM      4  C   UNL     1      36.470   0.177  14.361  0.00  0.00    +0.000 A 
ATOM      5  C   UNL     1      36.195  -0.652  15.407  0.00  0.00    +0.000 A 
ATOM      6  C   UNL     1      35.459  -0.179  16.477  0.00  0.00    +0.000 A 
ATOM      7  C   UNL     1      35.030   1.124  16.439  0.00  0.00    +0.000 A 
BRANCH   5   8
ATOM      8  C   UNL     1      36.669  -2.033  15.416  0.00  0.00    +0.000 C 
ATOM      9  O   UNL     1      37.300  -2.515  14.450  0.00  0.00    +0.000 OA
ATOM     10  N   UNL     1      36.423  -2.862  16.527  0.00  0.00    +0.000 NA
BRANCH  10  11
ATOM     11  C   UNL     1      36.824  -4.226  16.674  0.00  0.00    +0.000 C 
BRANCH  11  12
ATOM     12  C   UNL     1      35.752  -5.201  16.220  0.00  0.00    +0.000 C 
BRANCH  12  13
ATOM     13  C   UNL     1      36.247  -6.620  16.409  0.00  0.00    +0.000 C 
ATOM     14  C   UNL     1      37.314  -6.666  17.463  0.00  0.00    +0.000 C 
ATOM     15  C   UNL     1      35.093  -7.480  16.837  0.00  0.00    +0.000 C 
ENDBRANCH  12  13
ENDBRANCH  11  12
ENDBRANCH  10  11
ENDBRANCH   5   8
ENDBRANCH   1   2
BRANCH   1  16
ATOM     16  S   UNL     1      36.027   4.426  14.532  0.00  0.00    +0.000 S 
BRANCH  16  20
ATOM     17  C   UNL     1      39.427   5.646  17.299  0.00  0.00    +0.000 A 
ATOM     18  C   UNL     1      38.580   4.647  17.693  0.00  0.00    +0.000 A 
ATOM     19  C   UNL     1      37.543   4.272  16.857  0.00  0.00    +0.000 A 
ATOM     20  C   UNL     1      37.360   4.890  15.640  0.00  0.00    +0.000 A 
ATOM     21  N   UNL     1      38.222   5.864  15.303  0.00  0.00    +0.000 NA
ATOM     22  N   UNL     1      39.209   6.219  16.105  0.00  0.00    +0.000 NA
BRANCH  17  27
ATOM     23  C   UNL     1      43.794   7.264  20.723  0.00  0.00    +0.000 C 
ATOM     24  C   UNL     1      42.675   6.848  19.836  0.00  0.00    +0.000 A 
ATOM     25  C   UNL     1      41.434   6.524  20.357  0.00  0.00    +0.000 A 
ATOM     26  C   UNL     1      40.384   6.135  19.538  0.00  0.00    +0.000 A 
ATOM     27  C   UNL     1      40.529   6.055  18.170  0.00  0.00    +0.000 A 
ATOM     28  C   UNL     1      41.770   6.379  17.658  0.00  0.00    +0.000 A 
ATOM     29  C   UNL     1      42.819   6.766  18.466  0.00  0.00    +0.000 A 
ENDBRANCH  17  27
ENDBRANCH  16  20
ENDBRANCH   1  16
TORSDOF 8
ENDMDL
MODEL 10
REMARK VINA RESULT:      -7.0      3.799      5.008
REMARK  Name = 
REMARK  8 active torsions:
REMARK  status: ('A' for Active; 'I' for Inactive)
REMARK    1  A    between atoms: C_5  and  C_6
REMARK    2  A    between atoms: C_9  and  S_10
REMARK    3  A    between atoms: S_10  and  C_11
REMARK    4  A    between atoms: C_11  and  C_12
REMARK    5  A    between atoms: C_15  and  C_16
REMARK    6  A    between atoms: N_18  and  C_19
REMARK    7  A    between atoms: C_19  and  C_20
REMARK    8  A    between atoms: C_20  and  C_21
REMARK                            x       y       z     vdW  Elec       q    Type
REMARK                         _______ _______ _______ _____ _____    ______ ____
ROOT
ATOM      1  C   UNL     1      36.716   0.300  14.694  0.00  0.00    +0.000 C 
ENDROOT
BRANCH   1   2
ATOM      2  C   UNL     1      37.932  -0.416  14.246  0.00  0.00    +0.000 A 
ATOM      3  C   UNL     1      37.845  -1.268  13.171  0.00  0.00    +0.000 A 
ATOM      4  C   UNL     1      38.976  -1.926  12.762  0.00  0.00    +0.000 A 
ATOM      5  C   UNL     1      40.175  -1.758  13.389  0.00  0.00    +0.000 A 
ATOM      6  C   UNL     1      40.266  -0.903  14.470  0.00  0.00    +0.000 A 
ATOM      7  C   UNL     1      39.129  -0.248  14.873  0.00  0.00    +0.000 A 
BRANCH   5   8
ATOM      8  C   UNL     1      41.366  -2.469  12.933  0.00  0.00    +0.000 C 
ATOM      9  O   UNL     1      41.295  -3.401  12.103  0.00  0.00    +0.000 OA
ATOM     10  N   UNL     1      42.637  -2.116  13.426  0.00  0.00    +0.000 NA
BRANCH  10  11
ATOM     11  C   UNL     1      43.882  -2.720  13.072  0.00  0.00    +0.000 C 
BRANCH  11  12
ATOM     12  C   UNL     1      45.063  -2.078  13.778  0.00  0.00    +0.000 C 
BRANCH  12  13
ATOM     13  C   UNL     1      44.696  -1.789  15.218  0.00  0.00    +0.000 C 
ATOM     14  C   UNL     1      45.630  -2.504  16.150  0.00  0.00    +0.000 C 
ATOM     15  C   UNL     1      44.800  -0.309  15.454  0.00  0.00    +0.000 C 
ENDBRANCH  12  13
ENDBRANCH  11  12
ENDBRANCH  10  11
ENDBRANCH   5   8
ENDBRANCH   1   2
BRANCH   1  16
ATOM     16  S   UNL     1      36.695   1.999  14.070  0.00  0.00    +0.000 S 
BRANCH  16  20
ATOM     17  C   UNL     1      39.028   4.735  16.860  0.00  0.00    +0.000 A 
ATOM     18  C   UNL     1      39.241   4.828  15.511  0.00  0.00    +0.000 A 
ATOM     19  C   UNL     1      38.536   3.999  14.657  0.00  0.00    +0.000 A 
ATOM     20  C   UNL     1      37.627   3.088  15.150  0.00  0.00    +0.000 A 
ATOM     21  N   UNL     1      37.458   3.040  16.482  0.00  0.00    +0.000 NA
ATOM     22  N   UNL     1      38.134   3.833  17.293  0.00  0.00    +0.000 NA
BRANCH  17  27
ATOM     23  C   UNL     1      41.920   8.170  20.499  0.00  0.00    +0.000 C 
ATOM     24  C   UNL     1      41.170   7.285  19.567  0.00  0.00    +0.000 A 
ATOM     25  C   UNL     1      41.649   7.019  18.296  0.00  0.00    +0.000 A 
ATOM     26  C   UNL     1      40.957   6.195  17.420  0.00  0.00    +0.000 A 
ATOM     27  C   UNL     1      39.764   5.605  17.777  0.00  0.00    +0.000 A 
ATOM     28  C   UNL     1      39.293   5.877  19.046  0.00  0.00    +0.000 A 
ATOM     29  C   UNL     1      39.975   6.695  19.923  0.00  0.00    +0.000 A 
ENDBRANCH  17  27
ENDBRANCH  16  20
ENDBRANCH   1  16
TORSDOF 8
ENDMDL
