MODEL 1
REMARK VINA RESULT:      -8.2      0.000      0.000
REMARK  Name = 
REMARK  8 active torsions:
REMARK  status: ('A' for Active; 'I' for Inactive)
REMARK    1  A    between atoms: C_2  and  O_3
REMARK    2  A    between atoms: O_3  and  C_4
REMARK    3  A    between atoms: C_7  and  C_8
REMARK    4  A    between atoms: C_10  and  C_11
REMARK    5  A    between atoms: N_13  and  C_14
REMARK    6  A    between atoms: C_14  and  C_15
REMARK    7  A    between atoms: C_20  and  O_21
REMARK    8  A    between atoms: O_21  and  C_22
REMARK                            x       y       z     vdW  Elec       q    Type
REMARK                         _______ _______ _______ _____ _____    ______ ____
ROOT
ATOM      1  C   UNL     1      38.809   5.548  16.944  0.00  0.00    +0.000 A 
ATOM      2  C   UNL     1      38.330   4.244  16.979  0.00  0.00    +0.000 A 
ATOM      3  C   UNL     1      37.394   3.825  16.068  0.00  0.00    +0.000 A 
ATOM      4  C   UNL     1      36.951   4.729  15.127  0.00  0.00    +0.000 A 
ATOM      5  C   UNL     1      36.028   4.388  14.168  0.00  0.00    +0.000 A 
ATOM      6  C   UNL     1      35.589   5.294  13.208  0.00  0.00    +0.000 A 
ATOM      7  C   UNL     1      36.066   6.577  13.178  0.00  0.00    +0.000 A 
ATOM      8  C   UNL     1      36.986   6.934  14.125  0.00  0.00    +0.000 A 
ATOM      9  C   UNL     1      37.440   6.040  15.101  0.00  0.00    +0.000 A 
ATOM     10  N   UNL     1      38.344   6.382  16.010  0.00  0.00    +0.000 NA
ENDROOT
BRANCH   1  14
ATOM     11  C   UNL     1      41.603   6.965  19.907  0.00  0.00    +0.000 A 
ATOM     12  C   UNL     1      40.283   6.693  20.178  0.00  0.00    +0.000 A 
ATOM     13  C   UNL     1      39.380   6.240  19.256  0.00  0.00    +0.000 A 
ATOM     14  C   UNL     1      39.775   6.017  17.925  0.00  0.00    +0.000 A 
ATOM     15  C   UNL     1      41.084   6.282  17.636  0.00  0.00    +0.000 A 
ATOM     16  C   UNL     1      41.987   6.741  18.578  0.00  0.00    +0.000 A 
BRANCH  11  17
ATOM     17  O   UNL     1      42.500   7.421  20.848  0.00  0.00    +0.000 OA
BRANCH  17  19
ATOM     18  C   UNL     1      43.915   5.647  21.679  0.00  0.00    +0.000 C 
ATOM     19  C   UNL     1      43.861   6.954  20.865  0.00  0.00    +0.000 C 
ENDBRANCH  17  19
ENDBRANCH  11  17
ENDBRANCH   1  14
BRANCH   3  20
ATOM     20  C   UNL     1      36.814   2.486  16.126  0.00  0.00    +0.000 C 
ATOM     21  O   UNL     1      35.696   2.358  16.719  0.00  0.00    +0.000 OA
ATOM     22  N   UNL     1      37.411   1.349  15.562  0.00  0.00    +0.000 NA
BRANCH  22  23
ATOM     23  C   UNL     1      36.834   0.038  15.627  0.00  0.00    +0.000 C 
BRANCH  23  24
ATOM     24  C   UNL     1      37.918  -0.968  15.786  0.00  0.00    +0.000 A 
ATOM     25  C   UNL     1      38.995  -1.016  14.899  0.00  0.00    +0.000 A 
ATOM     26  C   UNL     1      39.960  -2.018  15.027  0.00  0.00    +0.000 A 
ATOM     27  C   UNL     1      39.825  -2.944  16.028  0.00  0.00    +0.000 A 
ATOM     28  C   UNL     1      38.744  -2.888  16.912  0.00  0.00    +0.000 A 
ATOM     29  C   UNL     1      37.791  -1.900  16.792  0.00  0.00    +0.000 A 
BRANCH  29  30
ATOM     30  O   UNL     1      36.702  -1.780  17.628  0.00  0.00    +0.000 OA
BRANCH  30  31
ATOM     31  C   UNL     1      36.700  -1.356  18.951  0.00  0.00    +0.000 C 
ATOM     32  C   UNL     1      35.746  -0.201  19.228  0.00  0.00    +0.000 C 
ENDBRANCH  30  31
ENDBRANCH  29  30
ENDBRANCH  23  24
ENDBRANCH  22  23
ENDBRANCH   3  20
TORSDOF 8
ENDMDL
MODEL 2
REMARK VINA RESULT:      -8.2      0.796      2.234
REMARK  Name = 
REMARK  8 active torsions:
REMARK  status: ('A' for Active; 'I' for Inactive)
REMARK    1  A    between atoms: C_2  and  O_3
REMARK    2  A    between atoms: O_3  and  C_4
REMARK    3  A    between atoms: C_7  and  C_8
REMARK    4  A    between atoms: C_10  and  C_11
REMARK    5  A    between atoms: N_13  and  C_14
REMARK    6  A    between atoms: C_14  and  C_15
REMARK    7  A    between atoms: C_20  and  O_21
REMARK    8  A    between atoms: O_21  and  C_22
REMARK                            x       y       z     vdW  Elec       q    Type
REMARK                         _______ _______ _______ _____ _____    ______ ____
ROOT
ATOM      1  C   UNL     1      38.732   5.541  16.683  0.00  0.00    +0.000 A 
ATOM      2  C   UNL     1      38.057   4.329  16.757  0.00  0.00    +0.000 A 
ATOM      3  C   UNL     1      37.099   4.011  15.828  0.00  0.00    +0.000 A 
ATOM      4  C   UNL     1      36.833   4.923  14.829  0.00  0.00    +0.000 A 
ATOM      5  C   UNL     1      35.902   4.678  13.849  0.00  0.00    +0.000 A 
ATOM      6  C   UNL     1      35.642   5.590  12.831  0.00  0.00    +0.000 A 
ATOM      7  C   UNL     1      36.312   6.782  12.763  0.00  0.00    +0.000 A 
ATOM      8  C   UNL     1      37.243   7.042  13.730  0.00  0.00    +0.000 A 
ATOM      9  C   UNL     1      37.520   6.141  14.764  0.00  0.00    +0.000 A 
ATOM     10  N   UNL     1      38.434   6.387  15.694  0.00  0.00    +0.000 NA
ENDROOT
BRANCH   1  14
ATOM     11  C   UNL     1      41.607   6.646  19.701  0.00  0.00    +0.000 A 
ATOM     12  C   UNL     1      40.294   6.349  19.977  0.00  0.00    +0.000 A 
ATOM     13  C   UNL     1      39.366   5.992  19.038  0.00  0.00    +0.000 A 
ATOM     14  C   UNL     1      39.725   5.907  17.681  0.00  0.00    +0.000 A 
ATOM     15  C   UNL     1      41.027   6.200  17.386  0.00  0.00    +0.000 A 
ATOM     16  C   UNL     1      41.955   6.560  18.346  0.00  0.00    +0.000 A 
BRANCH  11  17
ATOM     17  O   UNL     1      42.530   7.004  20.659  0.00  0.00    +0.000 OA
BRANCH  17  19
ATOM     18  C   UNL     1      43.904   6.668  22.620  0.00  0.00    +0.000 C 
ATOM     19  C   UNL     1      43.286   6.007  21.372  0.00  0.00    +0.000 C 
ENDBRANCH  17  19
ENDBRANCH  11  17
ENDBRANCH   1  14
BRANCH   3  20
ATOM     20  C   UNL     1      36.318   2.781  15.922  0.00  0.00    +0.000 C 
ATOM     21  O   UNL     1      35.132   2.875  16.373  0.00  0.00    +0.000 OA
ATOM     22  N   UNL     1      36.794   1.520  15.539  0.00  0.00    +0.000 NA
BRANCH  22  23
ATOM     23  C   UNL     1      36.020   0.318  15.638  0.00  0.00    +0.000 C 
BRANCH  23  24
ATOM     24  C   UNL     1      36.336  -0.368  16.920  0.00  0.00    +0.000 A 
ATOM     25  C   UNL     1      35.653  -0.051  18.095  0.00  0.00    +0.000 A 
ATOM     26  C   UNL     1      36.021  -0.656  19.300  0.00  0.00    +0.000 A 
ATOM     27  C   UNL     1      37.056  -1.553  19.302  0.00  0.00    +0.000 A 
ATOM     28  C   UNL     1      37.734  -1.866  18.120  0.00  0.00    +0.000 A 
ATOM     29  C   UNL     1      37.374  -1.274  16.929  0.00  0.00    +0.000 A 
BRANCH  29  30
ATOM     30  O   UNL     1      37.992  -1.535  15.725  0.00  0.00    +0.000 OA
BRANCH  30  31
ATOM     31  C   UNL     1      39.335  -1.365  15.414  0.00  0.00    +0.000 C 
ATOM     32  C   UNL     1      40.128  -2.664  15.365  0.00  0.00    +0.000 C 
ENDBRANCH  30  31
ENDBRANCH  29  30
ENDBRANCH  23  24
ENDBRANCH  22  23
ENDBRANCH   3  20
TORSDOF 8
ENDMDL
MODEL 3
REMARK VINA RESULT:      -7.7      2.994      8.668
REMARK  Name = 
REMARK  8 active torsions:
REMARK  status: ('A' for Active; 'I' for Inactive)
REMARK    1  A    between atoms: C_2  and  O_3
REMARK    2  A    between atoms: O_3  and  C_4
REMARK    3  A    between atoms: C_7  and  C_8
REMARK    4  A    between atoms: C_10  and  C_11
REMARK    5  A    between atoms: N_13  and  C_14
REMARK    6  A    between atoms: C_14  and  C_15
REMARK    7  A    between atoms: C_20  and  O_21
REMARK    8  A    between atoms: O_21  and  C_22
REMARK                            x       y       z     vdW  Elec       q    Type
REMARK                         _______ _______ _______ _____ _____    ______ ____
ROOT
ATOM      1  C   UNL     1      38.529  -1.286  14.573  0.00  0.00    +0.000 A 
ATOM      2  C   UNL     1      38.410   0.094  14.682  0.00  0.00    +0.000 A 
ATOM      3  C   UNL     1      37.351   0.647  15.358  0.00  0.00    +0.000 A 
ATOM      4  C   UNL     1      36.423  -0.202  15.921  0.00  0.00    +0.000 A 
ATOM      5  C   UNL     1      35.343   0.265  16.629  0.00  0.00    +0.000 A 
ATOM      6  C   UNL     1      34.413  -0.590  17.210  0.00  0.00    +0.000 A 
ATOM      7  C   UNL     1      34.537  -1.948  17.101  0.00  0.00    +0.000 A 
ATOM      8  C   UNL     1      35.607  -2.432  16.400  0.00  0.00    +0.000 A 
ATOM      9  C   UNL     1      36.554  -1.592  15.805  0.00  0.00    +0.000 A 
ATOM     10  N   UNL     1      37.601  -2.061  15.138  0.00  0.00    +0.000 NA
ENDROOT
BRANCH   1  14
ATOM     11  C   UNL     1      41.841  -3.020  12.424  0.00  0.00    +0.000 A 
ATOM     12  C   UNL     1      41.943  -2.520  13.699  0.00  0.00    +0.000 A 
ATOM     13  C   UNL     1      40.907  -1.970  14.402  0.00  0.00    +0.000 A 
ATOM     14  C   UNL     1      39.626  -1.885  13.829  0.00  0.00    +0.000 A 
ATOM     15  C   UNL     1      39.504  -2.376  12.558  0.00  0.00    +0.000 A 
ATOM     16  C   UNL     1      40.561  -2.930  11.859  0.00  0.00    +0.000 A 
BRANCH  11  17
ATOM     17  O   UNL     1      42.895  -3.571  11.729  0.00  0.00    +0.000 OA
BRANCH  17  19
ATOM     18  C   UNL     1      45.142  -3.986  12.518  0.00  0.00    +0.000 C 
ATOM     19  C   UNL     1      44.212  -2.993  11.794  0.00  0.00    +0.000 C 
ENDBRANCH  17  19
ENDBRANCH  11  17
ENDBRANCH   1  14
BRANCH   3  20
ATOM     20  C   UNL     1      37.155   2.092  15.425  0.00  0.00    +0.000 C 
ATOM     21  O   UNL     1      36.416   2.623  14.536  0.00  0.00    +0.000 OA
ATOM     22  N   UNL     1      37.722   2.915  16.407  0.00  0.00    +0.000 NA
BRANCH  22  23
ATOM     23  C   UNL     1      37.524   4.334  16.463  0.00  0.00    +0.000 C 
BRANCH  23  24
ATOM     24  C   UNL     1      38.719   4.974  17.075  0.00  0.00    +0.000 A 
ATOM     25  C   UNL     1      38.832   5.116  18.460  0.00  0.00    +0.000 A 
ATOM     26  C   UNL     1      39.930   5.787  19.005  0.00  0.00    +0.000 A 
ATOM     27  C   UNL     1      40.880   6.298  18.161  0.00  0.00    +0.000 A 
ATOM     28  C   UNL     1      40.760   6.150  16.776  0.00  0.00    +0.000 A 
ATOM     29  C   UNL     1      39.681   5.488  16.234  0.00  0.00    +0.000 A 
BRANCH  29  30
ATOM     30  O   UNL     1      39.498   5.299  14.881  0.00  0.00    +0.000 OA
BRANCH  30  31
ATOM     31  C   UNL     1      40.364   4.672  13.993  0.00  0.00    +0.000 C 
ATOM     32  C   UNL     1      39.721   3.547  13.193  0.00  0.00    +0.000 C 
ENDBRANCH  30  31
ENDBRANCH  29  30
ENDBRANCH  23  24
ENDBRANCH  22  23
ENDBRANCH   3  20
TORSDOF 8
ENDMDL
MODEL 4
REMARK VINA RESULT:      -7.5      3.402     10.064
REMARK  Name = 
REMARK  8 active torsions:
REMARK  status: ('A' for Active; 'I' for Inactive)
REMARK    1  A    between atoms: C_2  and  O_3
REMARK    2  A    between atoms: O_3  and  C_4
REMARK    3  A    between atoms: C_7  and  C_8
REMARK    4  A    between atoms: C_10  and  C_11
REMARK    5  A    between atoms: N_13  and  C_14
REMARK    6  A    between atoms: C_14  and  C_15
REMARK    7  A    between atoms: C_20  and  O_21
REMARK    8  A    between atoms: O_21  and  C_22
REMARK                            x       y       z     vdW  Elec       q    Type
REMARK                         _______ _______ _______ _____ _____    ______ ____
ROOT
ATOM      1  C   UNL     1      36.943  -2.647  15.048  0.00  0.00    +0.000 A 
ATOM      2  C   UNL     1      36.462  -1.345  15.123  0.00  0.00    +0.000 A 
ATOM      3  C   UNL     1      37.319  -0.281  14.994  0.00  0.00    +0.000 A 
ATOM      4  C   UNL     1      38.656  -0.543  14.788  0.00  0.00    +0.000 A 
ATOM      5  C   UNL     1      39.579   0.461  14.632  0.00  0.00    +0.000 A 
ATOM      6  C   UNL     1      40.927   0.201  14.409  0.00  0.00    +0.000 A 
ATOM      7  C   UNL     1      41.394  -1.084  14.334  0.00  0.00    +0.000 A 
ATOM      8  C   UNL     1      40.489  -2.098  14.487  0.00  0.00    +0.000 A 
ATOM      9  C   UNL     1      39.130  -1.859  14.713  0.00  0.00    +0.000 A 
ATOM     10  N   UNL     1      38.249  -2.842  14.847  0.00  0.00    +0.000 NA
ENDROOT
BRANCH   1  14
ATOM     11  C   UNL     1      34.375  -6.070  15.582  0.00  0.00    +0.000 A 
ATOM     12  C   UNL     1      35.608  -5.947  16.175  0.00  0.00    +0.000 A 
ATOM     13  C   UNL     1      36.438  -4.870  16.024  0.00  0.00    +0.000 A 
ATOM     14  C   UNL     1      36.053  -3.784  15.218  0.00  0.00    +0.000 A 
ATOM     15  C   UNL     1      34.829  -3.888  14.618  0.00  0.00    +0.000 A 
ATOM     16  C   UNL     1      34.000  -4.983  14.779  0.00  0.00    +0.000 A 
BRANCH  11  17
ATOM     17  O   UNL     1      33.551  -7.162  15.744  0.00  0.00    +0.000 OA
BRANCH  17  19
ATOM     18  C   UNL     1      33.509  -8.475  13.716  0.00  0.00    +0.000 C 
ATOM     19  C   UNL     1      33.906  -8.448  15.205  0.00  0.00    +0.000 C 
ENDBRANCH  17  19
ENDBRANCH  11  17
ENDBRANCH   1  14
BRANCH   3  20
ATOM     20  C   UNL     1      36.858   1.096  15.146  0.00  0.00    +0.000 C 
ATOM     21  O   UNL     1      36.321   1.646  14.133  0.00  0.00    +0.000 OA
ATOM     22  N   UNL     1      36.967   1.832  16.333  0.00  0.00    +0.000 NA
BRANCH  22  23
ATOM     23  C   UNL     1      36.513   3.185  16.471  0.00  0.00    +0.000 C 
BRANCH  23  24
ATOM     24  C   UNL     1      37.677   4.068  16.752  0.00  0.00    +0.000 A 
ATOM     25  C   UNL     1      38.173   4.218  18.048  0.00  0.00    +0.000 A 
ATOM     26  C   UNL     1      39.219   5.111  18.296  0.00  0.00    +0.000 A 
ATOM     27  C   UNL     1      39.738   5.829  17.251  0.00  0.00    +0.000 A 
ATOM     28  C   UNL     1      39.236   5.673  15.956  0.00  0.00    +0.000 A 
ATOM     29  C   UNL     1      38.206   4.792  15.706  0.00  0.00    +0.000 A 
BRANCH  29  30
ATOM     30  O   UNL     1      37.664   4.581  14.457  0.00  0.00    +0.000 OA
BRANCH  30  31
ATOM     31  C   UNL     1      38.299   4.723  13.229  0.00  0.00    +0.000 C 
ATOM     32  C   UNL     1      39.190   3.546  12.853  0.00  0.00    +0.000 C 
ENDBRANCH  30  31
ENDBRANCH  29  30
ENDBRANCH  23  24
ENDBRANCH  22  23
ENDBRANCH   3  20
TORSDOF 8
ENDMDL
MODEL 5
REMARK VINA RESULT:      -7.3      3.403      9.751
REMARK  Name = 
REMARK  8 active torsions:
REMARK  status: ('A' for Active; 'I' for Inactive)
REMARK    1  A    between atoms: C_2  and  O_3
REMARK    2  A    between atoms: O_3  and  C_4
REMARK    3  A    between atoms: C_7  and  C_8
REMARK    4  A    between atoms: C_10  and  C_11
REMARK    5  A    between atoms: N_13  and  C_14
REMARK    6  A    between atoms: C_14  and  C_15
REMARK    7  A    between atoms: C_20  and  O_21
REMARK    8  A    between atoms: O_21  and  C_22
REMARK                            x       y       z     vdW  Elec       q    Type
REMARK                         _______ _______ _______ _____ _____    ______ ____
ROOT
ATOM      1  C   UNL     1      36.412   2.244  15.767  0.00  0.00    +0.000 A 
ATOM      2  C   UNL     1      35.852   3.024  14.762  0.00  0.00    +0.000 A 
ATOM      3  C   UNL     1      36.205   4.344  14.631  0.00  0.00    +0.000 A 
ATOM      4  C   UNL     1      37.124   4.863  15.517  0.00  0.00    +0.000 A 
ATOM      5  C   UNL     1      37.547   6.168  15.446  0.00  0.00    +0.000 A 
ATOM      6  C   UNL     1      38.485   6.691  16.330  0.00  0.00    +0.000 A 
ATOM      7  C   UNL     1      39.034   5.917  17.316  0.00  0.00    +0.000 A 
ATOM      8  C   UNL     1      38.626   4.614  17.401  0.00  0.00    +0.000 A 
ATOM      9  C   UNL     1      37.683   4.067  16.525  0.00  0.00    +0.000 A 
ATOM     10  N   UNL     1      37.298   2.799  16.597  0.00  0.00    +0.000 NA
ENDROOT
BRANCH   1  14
ATOM     11  C   UNL     1      35.282  -1.895  16.196  0.00  0.00    +0.000 A 
ATOM     12  C   UNL     1      36.183  -1.448  15.260  0.00  0.00    +0.000 A 
ATOM     13  C   UNL     1      36.560  -0.142  15.108  0.00  0.00    +0.000 A 
ATOM     14  C   UNL     1      36.020   0.855  15.940  0.00  0.00    +0.000 A 
ATOM     15  C   UNL     1      35.121   0.430  16.878  0.00  0.00    +0.000 A 
ATOM     16  C   UNL     1      34.748  -0.895  17.020  0.00  0.00    +0.000 A 
BRANCH  11  17
ATOM     17  O   UNL     1      34.913  -3.215  16.336  0.00  0.00    +0.000 OA
BRANCH  17  19
ATOM     18  C   UNL     1      33.244  -4.378  15.031  0.00  0.00    +0.000 C 
ATOM     19  C   UNL     1      34.745  -4.066  15.188  0.00  0.00    +0.000 C 
ENDBRANCH  17  19
ENDBRANCH  11  17
ENDBRANCH   1  14
BRANCH   3  20
ATOM     20  C   UNL     1      35.579   5.209  13.636  0.00  0.00    +0.000 C 
ATOM     21  O   UNL     1      36.083   5.217  12.468  0.00  0.00    +0.000 OA
ATOM     22  N   UNL     1      34.461   6.015  13.892  0.00  0.00    +0.000 NA
BRANCH  22  23
ATOM     23  C   UNL     1      33.854   6.863  12.908  0.00  0.00    +0.000 C 
BRANCH  23  24
ATOM     24  C   UNL     1      34.082   8.286  13.278  0.00  0.00    +0.000 A 
ATOM     25  C   UNL     1      33.954   8.719  14.599  0.00  0.00    +0.000 A 
ATOM     26  C   UNL     1      34.099  10.074  14.907  0.00  0.00    +0.000 A 
ATOM     27  C   UNL     1      34.366  10.958  13.895  0.00  0.00    +0.000 A 
ATOM     28  C   UNL     1      34.494  10.517  12.575  0.00  0.00    +0.000 A 
ATOM     29  C   UNL     1      34.353   9.181  12.267  0.00  0.00    +0.000 A 
BRANCH  29  30
ATOM     30  O   UNL     1      34.470   8.673  10.991  0.00  0.00    +0.000 OA
BRANCH  30  31
ATOM     31  C   UNL     1      35.460   8.958  10.059  0.00  0.00    +0.000 C 
ATOM     32  C   UNL     1      34.940   9.603   8.781  0.00  0.00    +0.000 C 
ENDBRANCH  30  31
ENDBRANCH  29  30
ENDBRANCH  23  24
ENDBRANCH  22  23
ENDBRANCH   3  20
TORSDOF 8
ENDMDL
MODEL 6
REMARK VINA RESULT:      -7.3      2.883      7.221
REMARK  Name = 
REMARK  8 active torsions:
REMARK  status: ('A' for Active; 'I' for Inactive)
REMARK    1  A    between atoms: C_2  and  O_3
REMARK    2  A    between atoms: O_3  and  C_4
REMARK    3  A    between atoms: C_7  and  C_8
REMARK    4  A    between atoms: C_10  and  C_11
REMARK    5  A    between atoms: N_13  and  C_14
REMARK    6  A    between atoms: C_14  and  C_15
REMARK    7  A    between atoms: C_20  and  O_21
REMARK    8  A    between atoms: O_21  and  C_22
REMARK                            x       y       z     vdW  Elec       q    Type
REMARK                         _______ _______ _______ _____ _____    ______ ____
ROOT
ATOM      1  C   UNL     1      36.301   5.409  13.519  0.00  0.00    +0.000 A 
ATOM      2  C   UNL     1      36.376   4.034  13.713  0.00  0.00    +0.000 A 
ATOM      3  C   UNL     1      37.000   3.524  14.823  0.00  0.00    +0.000 A 
ATOM      4  C   UNL     1      37.541   4.408  15.730  0.00  0.00    +0.000 A 
ATOM      5  C   UNL     1      38.168   3.984  16.876  0.00  0.00    +0.000 A 
ATOM      6  C   UNL     1      38.702   4.875  17.802  0.00  0.00    +0.000 A 
ATOM      7  C   UNL     1      38.623   6.227  17.606  0.00  0.00    +0.000 A 
ATOM      8  C   UNL     1      38.002   6.668  16.470  0.00  0.00    +0.000 A 
ATOM      9  C   UNL     1      37.459   5.791  15.526  0.00  0.00    +0.000 A 
ATOM     10  N   UNL     1      36.843   6.219  14.431  0.00  0.00    +0.000 NA
ENDROOT
BRANCH   1  14
ATOM     11  C   UNL     1      34.366   7.065  10.040  0.00  0.00    +0.000 A 
ATOM     12  C   UNL     1      33.917   7.263  11.324  0.00  0.00    +0.000 A 
ATOM     13  C   UNL     1      34.516   6.752  12.442  0.00  0.00    +0.000 A 
ATOM     14  C   UNL     1      35.675   5.963  12.330  0.00  0.00    +0.000 A 
ATOM     15  C   UNL     1      36.136   5.753  11.060  0.00  0.00    +0.000 A 
ATOM     16  C   UNL     1      35.520   6.277   9.937  0.00  0.00    +0.000 A 
BRANCH  11  17
ATOM     17  O   UNL     1      33.750   7.588   8.924  0.00  0.00    +0.000 OA
BRANCH  17  19
ATOM     18  C   UNL     1      34.280   7.692   6.568  0.00  0.00    +0.000 C 
ATOM     19  C   UNL     1      33.673   6.839   7.698  0.00  0.00    +0.000 C 
ENDBRANCH  17  19
ENDBRANCH  11  17
ENDBRANCH   1  14
BRANCH   3  20
ATOM     20  C   UNL     1      37.164   2.086  15.017  0.00  0.00    +0.000 C 
ATOM     21  O   UNL     1      38.349   1.626  15.005  0.00  0.00    +0.000 OA
ATOM     22  N   UNL     1      36.099   1.197  15.221  0.00  0.00    +0.000 NA
BRANCH  22  23
ATOM     23  C   UNL     1      36.271  -0.214  15.409  0.00  0.00    +0.000 C 
BRANCH  23  24
ATOM     24  C   UNL     1      36.356  -0.510  16.864  0.00  0.00    +0.000 A 
ATOM     25  C   UNL     1      35.562   0.173  17.788  0.00  0.00    +0.000 A 
ATOM     26  C   UNL     1      35.716  -0.071  19.155  0.00  0.00    +0.000 A 
ATOM     27  C   UNL     1      36.653  -0.983  19.564  0.00  0.00    +0.000 A 
ATOM     28  C   UNL     1      37.443  -1.664  18.633  0.00  0.00    +0.000 A 
ATOM     29  C   UNL     1      37.294  -1.428  17.283  0.00  0.00    +0.000 A 
BRANCH  29  30
ATOM     30  O   UNL     1      38.032  -2.063  16.308  0.00  0.00    +0.000 OA
BRANCH  30  31
ATOM     31  C   UNL     1      38.375  -3.408  16.253  0.00  0.00    +0.000 C 
ATOM     32  C   UNL     1      37.191  -4.339  16.025  0.00  0.00    +0.000 C 
ENDBRANCH  30  31
ENDBRANCH  29  30
ENDBRANCH  23  24
ENDBRANCH  22  23
ENDBRANCH   3  20
TORSDOF 8
ENDMDL
MODEL 7
REMARK VINA RESULT:      -7.2      2.234      8.889
REMARK  Name = 
REMARK  8 active torsions:
REMARK  status: ('A' for Active; 'I' for Inactive)
REMARK    1  A    between atoms: C_2  and  O_3
REMARK    2  A    between atoms: O_3  and  C_4
REMARK    3  A    between atoms: C_7  and  C_8
REMARK    4  A    between atoms: C_10  and  C_11
REMARK    5  A    between atoms: N_13  and  C_14
REMARK    6  A    between atoms: C_14  and  C_15
REMARK    7  A    between atoms: C_20  and  O_21
REMARK    8  A    between atoms: O_21  and  C_22
REMARK                            x       y       z     vdW  Elec       q    Type
REMARK                         _______ _______ _______ _____ _____    ______ ____
ROOT
ATOM      1  C   UNL     1      36.271   2.482  15.755  0.00  0.00    +0.000 A 
ATOM      2  C   UNL     1      37.253   3.068  16.545  0.00  0.00    +0.000 A 
ATOM      3  C   UNL     1      37.641   4.366  16.321  0.00  0.00    +0.000 A 
ATOM      4  C   UNL     1      37.029   5.060  15.300  0.00  0.00    +0.000 A 
ATOM      5  C   UNL     1      37.343   6.367  15.018  0.00  0.00    +0.000 A 
ATOM      6  C   UNL     1      36.717   7.076  13.998  0.00  0.00    +0.000 A 
ATOM      7  C   UNL     1      35.750   6.493  13.225  0.00  0.00    +0.000 A 
ATOM      8  C   UNL     1      35.423   5.193  13.492  0.00  0.00    +0.000 A 
ATOM      9  C   UNL     1      36.040   4.460  14.511  0.00  0.00    +0.000 A 
ATOM     10  N   UNL     1      35.712   3.203  14.780  0.00  0.00    +0.000 NA
ENDROOT
BRANCH   1  14
ATOM     11  C   UNL     1      35.131  -1.644  16.271  0.00  0.00    +0.000 A 
ATOM     12  C   UNL     1      36.027  -1.218  15.321  0.00  0.00    +0.000 A 
ATOM     13  C   UNL     1      36.407   0.083  15.142  0.00  0.00    +0.000 A 
ATOM     14  C   UNL     1      35.877   1.098  15.958  0.00  0.00    +0.000 A 
ATOM     15  C   UNL     1      34.981   0.694  16.910  0.00  0.00    +0.000 A 
ATOM     16  C   UNL     1      34.606  -0.626  17.080  0.00  0.00    +0.000 A 
BRANCH  11  17
ATOM     17  O   UNL     1      34.758  -2.960  16.440  0.00  0.00    +0.000 OA
BRANCH  17  19
ATOM     18  C   UNL     1      33.512  -4.368  14.921  0.00  0.00    +0.000 C 
ATOM     19  C   UNL     1      34.914  -3.918  15.377  0.00  0.00    +0.000 C 
ENDBRANCH  17  19
ENDBRANCH  11  17
ENDBRANCH   1  14
BRANCH   3  20
ATOM     20  C   UNL     1      38.722   4.985  17.081  0.00  0.00    +0.000 C 
ATOM     21  O   UNL     1      39.832   5.157  16.484  0.00  0.00    +0.000 OA
ATOM     22  N   UNL     1      38.603   5.402  18.414  0.00  0.00    +0.000 NA
BRANCH  22  23
ATOM     23  C   UNL     1      39.673   6.007  19.153  0.00  0.00    +0.000 C 
BRANCH  23  24
ATOM     24  C   UNL     1      39.273   7.381  19.560  0.00  0.00    +0.000 A 
ATOM     25  C   UNL     1      37.996   7.873  19.286  0.00  0.00    +0.000 A 
ATOM     26  C   UNL     1      37.671   9.192  19.612  0.00  0.00    +0.000 A 
ATOM     27  C   UNL     1      38.623   9.983  20.198  0.00  0.00    +0.000 A 
ATOM     28  C   UNL     1      39.899   9.483  20.471  0.00  0.00    +0.000 A 
ATOM     29  C   UNL     1      40.224   8.182  20.153  0.00  0.00    +0.000 A 
BRANCH  29  30
ATOM     30  O   UNL     1      41.459   7.619  20.395  0.00  0.00    +0.000 OA
BRANCH  30  31
ATOM     31  C   UNL     1      42.678   7.992  19.843  0.00  0.00    +0.000 C 
ATOM     32  C   UNL     1      43.179   7.051  18.756  0.00  0.00    +0.000 C 
ENDBRANCH  30  31
ENDBRANCH  29  30
ENDBRANCH  23  24
ENDBRANCH  22  23
ENDBRANCH   3  20
TORSDOF 8
ENDMDL
MODEL 8
REMARK VINA RESULT:      -7.2      4.743      8.177
REMARK  Name = 
REMARK  8 active torsions:
REMARK  status: ('A' for Active; 'I' for Inactive)
REMARK    1  A    between atoms: C_2  and  O_3
REMARK    2  A    between atoms: O_3  and  C_4
REMARK    3  A    between atoms: C_7  and  C_8
REMARK    4  A    between atoms: C_10  and  C_11
REMARK    5  A    between atoms: N_13  and  C_14
REMARK    6  A    between atoms: C_14  and  C_15
REMARK    7  A    between atoms: C_20  and  O_21
REMARK    8  A    between atoms: O_21  and  C_22
REMARK                            x       y       z     vdW  Elec       q    Type
REMARK                         _______ _______ _______ _____ _____    ______ ____
ROOT
ATOM      1  C   UNL     1      36.967   0.480  15.967  0.00  0.00    +0.000 A 
ATOM      2  C   UNL     1      37.819  -0.201  15.106  0.00  0.00    +0.000 A 
ATOM      3  C   UNL     1      38.477  -1.329  15.531  0.00  0.00    +0.000 A 
ATOM      4  C   UNL     1      38.264  -1.759  16.822  0.00  0.00    +0.000 A 
ATOM      5  C   UNL     1      38.867  -2.886  17.323  0.00  0.00    +0.000 A 
ATOM      6  C   UNL     1      38.644  -3.332  18.622  0.00  0.00    +0.000 A 
ATOM      7  C   UNL     1      37.801  -2.657  19.464  0.00  0.00    +0.000 A 
ATOM      8  C   UNL     1      37.191  -1.532  18.983  0.00  0.00    +0.000 A 
ATOM      9  C   UNL     1      37.402  -1.065  17.681  0.00  0.00    +0.000 A 
ATOM     10  N   UNL     1      36.798   0.018  17.208  0.00  0.00    +0.000 NA
ENDROOT
BRANCH   1  14
ATOM     11  C   UNL     1      35.047   4.124  14.690  0.00  0.00    +0.000 A 
ATOM     12  C   UNL     1      36.330   3.780  14.340  0.00  0.00    +0.000 A 
ATOM     13  C   UNL     1      36.958   2.629  14.729  0.00  0.00    +0.000 A 
ATOM     14  C   UNL     1      36.292   1.696  15.543  0.00  0.00    +0.000 A 
ATOM     15  C   UNL     1      35.013   2.021  15.903  0.00  0.00    +0.000 A 
ATOM     16  C   UNL     1      34.390   3.189  15.502  0.00  0.00    +0.000 A 
BRANCH  11  17
ATOM     17  O   UNL     1      34.429   5.288  14.289  0.00  0.00    +0.000 OA
BRANCH  17  19
ATOM     18  C   UNL     1      33.835   6.987  12.675  0.00  0.00    +0.000 C 
ATOM     19  C   UNL     1      34.960   6.078  13.210  0.00  0.00    +0.000 C 
ENDBRANCH  17  19
ENDBRANCH  11  17
ENDBRANCH   1  14
BRANCH   3  20
ATOM     20  C   UNL     1      39.437  -2.022  14.678  0.00  0.00    +0.000 C 
ATOM     21  O   UNL     1      38.973  -2.840  13.821  0.00  0.00    +0.000 OA
ATOM     22  N   UNL     1      40.824  -1.832  14.745  0.00  0.00    +0.000 NA
BRANCH  22  23
ATOM     23  C   UNL     1      41.759  -2.520  13.903  0.00  0.00    +0.000 C 
BRANCH  23  24
ATOM     24  C   UNL     1      42.953  -1.659  13.688  0.00  0.00    +0.000 A 
ATOM     25  C   UNL     1      43.499  -0.908  14.731  0.00  0.00    +0.000 A 
ATOM     26  C   UNL     1      44.574  -0.050  14.485  0.00  0.00    +0.000 A 
ATOM     27  C   UNL     1      45.074   0.037  13.212  0.00  0.00    +0.000 A 
ATOM     28  C   UNL     1      44.523  -0.720  12.174  0.00  0.00    +0.000 A 
ATOM     29  C   UNL     1      43.463  -1.568  12.412  0.00  0.00    +0.000 A 
BRANCH  29  30
ATOM     30  O   UNL     1      42.872  -2.348  11.441  0.00  0.00    +0.000 OA
BRANCH  30  31
ATOM     31  C   UNL     1      43.505  -3.202  10.546  0.00  0.00    +0.000 C 
ATOM     32  C   UNL     1      44.414  -4.229  11.209  0.00  0.00    +0.000 C 
ENDBRANCH  30  31
ENDBRANCH  29  30
ENDBRANCH  23  24
ENDBRANCH  22  23
ENDBRANCH   3  20
TORSDOF 8
ENDMDL
MODEL 9
REMARK VINA RESULT:      -7.2     24.681     28.246
REMARK  Name = 
REMARK  8 active torsions:
REMARK  status: ('A' for Active; 'I' for Inactive)
REMARK    1  A    between atoms: C_2  and  O_3
REMARK    2  A    between atoms: O_3  and  C_4
REMARK    3  A    between atoms: C_7  and  C_8
REMARK    4  A    between atoms: C_10  and  C_11
REMARK    5  A    between atoms: N_13  and  C_14
REMARK    6  A    between atoms: C_14  and  C_15
REMARK    7  A    between atoms: C_20  and  O_21
REMARK    8  A    between atoms: O_21  and  C_22
REMARK                            x       y       z     vdW  Elec       q    Type
REMARK                         _______ _______ _______ _____ _____    ______ ____
ROOT
ATOM      1  C   UNL     1      15.092  -0.176  26.844  0.00  0.00    +0.000 A 
ATOM      2  C   UNL     1      13.974  -0.622  26.148  0.00  0.00    +0.000 A 
ATOM      3  C   UNL     1      12.773  -0.777  26.794  0.00  0.00    +0.000 A 
ATOM      4  C   UNL     1      12.712  -0.477  28.137  0.00  0.00    +0.000 A 
ATOM      5  C   UNL     1      11.547  -0.587  28.855  0.00  0.00    +0.000 A 
ATOM      6  C   UNL     1      11.478  -0.271  30.208  0.00  0.00    +0.000 A 
ATOM      7  C   UNL     1      12.582   0.169  30.887  0.00  0.00    +0.000 A 
ATOM      8  C   UNL     1      13.751   0.286  30.188  0.00  0.00    +0.000 A 
ATOM      9  C   UNL     1      13.844  -0.028  28.827  0.00  0.00    +0.000 A 
ATOM     10  N   UNL     1      14.975   0.100  28.145  0.00  0.00    +0.000 NA
ENDROOT
BRANCH   1  14
ATOM     11  C   UNL     1      18.893   0.313  24.867  0.00  0.00    +0.000 A 
ATOM     12  C   UNL     1      18.166   1.359  25.383  0.00  0.00    +0.000 A 
ATOM     13  C   UNL     1      16.962   1.228  26.017  0.00  0.00    +0.000 A 
ATOM     14  C   UNL     1      16.380  -0.041  26.182  0.00  0.00    +0.000 A 
ATOM     15  C   UNL     1      17.087  -1.096  25.674  0.00  0.00    +0.000 A 
ATOM     16  C   UNL     1      18.305  -0.948  25.035  0.00  0.00    +0.000 A 
BRANCH  11  17
ATOM     17  O   UNL     1      20.105   0.462  24.231  0.00  0.00    +0.000 OA
BRANCH  17  19
ATOM     18  C   UNL     1      20.862  -0.233  22.043  0.00  0.00    +0.000 C 
ATOM     19  C   UNL     1      20.177   0.883  22.857  0.00  0.00    +0.000 C 
ENDBRANCH  17  19
ENDBRANCH  11  17
ENDBRANCH   1  14
BRANCH   3  20
ATOM     20  C   UNL     1      11.601  -1.316  26.110  0.00  0.00    +0.000 C 
ATOM     21  O   UNL     1      11.427  -2.575  26.154  0.00  0.00    +0.000 OA
ATOM     22  N   UNL     1      10.663  -0.531  25.426  0.00  0.00    +0.000 NA
BRANCH  22  23
ATOM     23  C   UNL     1       9.516  -1.071  24.757  0.00  0.00    +0.000 C 
BRANCH  23  24
ATOM     24  C   UNL     1       8.471  -0.018  24.644  0.00  0.00    +0.000 A 
ATOM     25  C   UNL     1       8.523   1.138  25.425  0.00  0.00    +0.000 A 
ATOM     26  C   UNL     1       7.490   2.076  25.355  0.00  0.00    +0.000 A 
ATOM     27  C   UNL     1       6.436   1.837  24.513  0.00  0.00    +0.000 A 
ATOM     28  C   UNL     1       6.392   0.678  23.733  0.00  0.00    +0.000 A 
ATOM     29  C   UNL     1       7.409  -0.249  23.798  0.00  0.00    +0.000 A 
BRANCH  29  30
ATOM     30  O   UNL     1       7.436  -1.410  23.057  0.00  0.00    +0.000 OA
BRANCH  30  31
ATOM     31  C   UNL     1       7.632  -1.530  21.686  0.00  0.00    +0.000 C 
ATOM     32  C   UNL     1       6.352  -1.770  20.897  0.00  0.00    +0.000 C 
ENDBRANCH  30  31
ENDBRANCH  29  30
ENDBRANCH  23  24
ENDBRANCH  22  23
ENDBRANCH   3  20
TORSDOF 8
ENDMDL
MODEL 10
REMARK VINA RESULT:      -7.2      3.393      5.801
REMARK  Name = 
REMARK  8 active torsions:
REMARK  status: ('A' for Active; 'I' for Inactive)
REMARK    1  A    between atoms: C_2  and  O_3
REMARK    2  A    between atoms: O_3  and  C_4
REMARK    3  A    between atoms: C_7  and  C_8
REMARK    4  A    between atoms: C_10  and  C_11
REMARK    5  A    between atoms: N_13  and  C_14
REMARK    6  A    between atoms: C_14  and  C_15
REMARK    7  A    between atoms: C_20  and  O_21
REMARK    8  A    between atoms: O_21  and  C_22
REMARK                            x       y       z     vdW  Elec       q    Type
REMARK                         _______ _______ _______ _____ _____    ______ ____
ROOT
ATOM      1  C   UNL     1      41.701   6.741  19.605  0.00  0.00    +0.000 A 
ATOM      2  C   UNL     1      41.280   6.238  18.380  0.00  0.00    +0.000 A 
ATOM      3  C   UNL     1      40.013   6.501  17.921  0.00  0.00    +0.000 A 
ATOM      4  C   UNL     1      39.184   7.273  18.705  0.00  0.00    +0.000 A 
ATOM      5  C   UNL     1      37.909   7.599  18.314  0.00  0.00    +0.000 A 
ATOM      6  C   UNL     1      37.074   8.391  19.096  0.00  0.00    +0.000 A 
ATOM      7  C   UNL     1      37.496   8.885  20.301  0.00  0.00    +0.000 A 
ATOM      8  C   UNL     1      38.764   8.571  20.706  0.00  0.00    +0.000 A 
ATOM      9  C   UNL     1      39.620   7.776  19.937  0.00  0.00    +0.000 A 
ATOM     10  N   UNL     1      40.855   7.484  20.323  0.00  0.00    +0.000 NA
ENDROOT
BRANCH   1  14
ATOM     11  C   UNL     1      45.598   5.844  21.218  0.00  0.00    +0.000 A 
ATOM     12  C   UNL     1      44.423   5.550  21.866  0.00  0.00    +0.000 A 
ATOM     13  C   UNL     1      43.176   5.821  21.373  0.00  0.00    +0.000 A 
ATOM     14  C   UNL     1      43.027   6.441  20.120  0.00  0.00    +0.000 A 
ATOM     15  C   UNL     1      44.186   6.743  19.459  0.00  0.00    +0.000 A 
ATOM     16  C   UNL     1      45.440   6.463  19.970  0.00  0.00    +0.000 A 
BRANCH  11  17
ATOM     17  O   UNL     1      46.846   5.564  21.729  0.00  0.00    +0.000 OA
BRANCH  17  19
ATOM     18  C   UNL     1      47.364   3.347  22.540  0.00  0.00    +0.000 C 
ATOM     19  C   UNL     1      47.001   4.792  22.933  0.00  0.00    +0.000 C 
ENDBRANCH  17  19
ENDBRANCH  11  17
ENDBRANCH   1  14
BRANCH   3  20
ATOM     20  C   UNL     1      39.514   5.924  16.676  0.00  0.00    +0.000 C 
ATOM     21  O   UNL     1      39.555   6.655  15.636  0.00  0.00    +0.000 OA
ATOM     22  N   UNL     1      39.008   4.621  16.564  0.00  0.00    +0.000 NA
BRANCH  22  23
ATOM     23  C   UNL     1      38.519   4.065  15.337  0.00  0.00    +0.000 C 
BRANCH  23  24
ATOM     24  C   UNL     1      37.080   3.719  15.493  0.00  0.00    +0.000 A 
ATOM     25  C   UNL     1      36.667   2.735  16.394  0.00  0.00    +0.000 A 
ATOM     26  C   UNL     1      35.319   2.377  16.466  0.00  0.00    +0.000 A 
ATOM     27  C   UNL     1      34.422   3.005  15.643  0.00  0.00    +0.000 A 
ATOM     28  C   UNL     1      34.843   3.990  14.745  0.00  0.00    +0.000 A 
ATOM     29  C   UNL     1      36.171   4.347  14.671  0.00  0.00    +0.000 A 
BRANCH  29  30
ATOM     30  O   UNL     1      36.659   5.312  13.815  0.00  0.00    +0.000 OA
BRANCH  30  31
ATOM     31  C   UNL     1      36.503   5.370  12.436  0.00  0.00    +0.000 C 
ATOM     32  C   UNL     1      35.360   6.267  11.980  0.00  0.00    +0.000 C 
ENDBRANCH  30  31
ENDBRANCH  29  30
ENDBRANCH  23  24
ENDBRANCH  22  23
ENDBRANCH   3  20
TORSDOF 8
ENDMDL
