MODEL 1
REMARK VINA RESULT:      -5.9      0.000      0.000
REMARK  Name = 
REMARK  4 active torsions:
REMARK  status: ('A' for Active; 'I' for Inactive)
REMARK    1  A    between atoms: C_2  and  O_3
REMARK    2  A    between atoms: O_3  and  C_4
REMARK    3  A    between atoms: C_4  and  C_6
REMARK    4  A    between atoms: C_7  and  C_8
REMARK                            x       y       z     vdW  Elec       q    Type
REMARK                         _______ _______ _______ _____ _____    ______ ____
ROOT
ATOM      1  C   UNL     1      28.881  24.367  23.291  0.00  0.00    +0.000 A 
ATOM      2  C   UNL     1      27.809  24.134  24.092  0.00  0.00    +0.000 A 
ATOM      3  C   UNL     1      26.638  23.899  23.500  0.00  0.00    +0.000 A 
ATOM      4  S   UNL     1      26.960  23.987  21.816  0.00  0.00    +0.000 S 
ATOM      5  C   UNL     1      28.616  24.329  21.944  0.00  0.00    +0.000 A 
ATOM      6  N   UNL     1      29.530  24.533  20.841  0.00  0.00    +0.000 NA
ENDROOT
BRANCH   2   7
ATOM      7  C   UNL     1      28.053  24.162  25.704  0.00  0.00    +0.000 C 
ATOM      8  C   UNL     1      27.779  22.549  25.999  0.00  0.00    +0.000 C 
ATOM      9  O   UNL     1      27.577  22.506  27.391  0.00  0.00    +0.000 OA
ATOM     10  C   UNL     1      26.821  23.423  28.082  0.00  0.00    +0.000 A 
ATOM     11  C   UNL     1      26.562  23.377  29.426  0.00  0.00    +0.000 A 
ATOM     12  C   UNL     1      25.787  24.350  30.036  0.00  0.00    +0.000 A 
ATOM     13  C   UNL     1      25.243  25.403  29.327  0.00  0.00    +0.000 A 
ATOM     14  C   UNL     1      25.512  25.441  27.955  0.00  0.00    +0.000 A 
ATOM     15  C   UNL     1      26.278  24.473  27.369  0.00  0.00    +0.000 A 
ATOM     16  O   UNL     1      26.540  24.522  25.996  0.00  0.00    +0.000 OA
ENDBRANCH   2   7
BRANCH   1  17
ATOM     17  C   UNL     1      30.265  24.650  23.750  0.00  0.00    +0.000 C 
ATOM     18  O   UNL     1      30.676  25.797  24.040  0.00  0.00    +0.000 OA
BRANCH  17  19
ATOM     19  O   UNL     1      31.218  23.653  23.894  0.00  0.00    +0.000 OA
BRANCH  19  21
ATOM     20  C   UNL     1      31.463  23.134  26.197  0.00  0.00    +0.000 C 
ATOM     21  C   UNL     1      32.174  23.649  24.938  0.00  0.00    +0.000 C 
ENDBRANCH  19  21
ENDBRANCH  17  19
ENDBRANCH   1  17
TORSDOF 4
ENDMDL
MODEL 2
REMARK VINA RESULT:      -5.7      2.158      2.938
REMARK  Name = 
REMARK  4 active torsions:
REMARK  status: ('A' for Active; 'I' for Inactive)
REMARK    1  A    between atoms: C_2  and  O_3
REMARK    2  A    between atoms: O_3  and  C_4
REMARK    3  A    between atoms: C_4  and  C_6
REMARK    4  A    between atoms: C_7  and  C_8
REMARK                            x       y       z     vdW  Elec       q    Type
REMARK                         _______ _______ _______ _____ _____    ______ ____
ROOT
ATOM      1  C   UNL     1      27.011  25.123  23.383  0.00  0.00    +0.000 A 
ATOM      2  C   UNL     1      26.662  25.477  24.647  0.00  0.00    +0.000 A 
ATOM      3  C   UNL     1      26.632  26.778  24.936  0.00  0.00    +0.000 A 
ATOM      4  S   UNL     1      27.081  27.572  23.482  0.00  0.00    +0.000 S 
ATOM      5  C   UNL     1      27.294  26.174  22.545  0.00  0.00    +0.000 A 
ATOM      6  N   UNL     1      27.692  26.135  21.155  0.00  0.00    +0.000 NA
ENDROOT
BRANCH   2   7
ATOM      7  C   UNL     1      26.310  24.278  25.695  0.00  0.00    +0.000 C 
ATOM      8  C   UNL     1      25.267  25.131  26.668  0.00  0.00    +0.000 C 
ATOM      9  O   UNL     1      25.188  24.339  27.829  0.00  0.00    +0.000 OA
ATOM     10  C   UNL     1      26.275  23.741  28.420  0.00  0.00    +0.000 A 
ATOM     11  C   UNL     1      26.238  23.010  29.577  0.00  0.00    +0.000 A 
ATOM     12  C   UNL     1      27.390  22.443  30.099  0.00  0.00    +0.000 A 
ATOM     13  C   UNL     1      28.619  22.586  29.485  0.00  0.00    +0.000 A 
ATOM     14  C   UNL     1      28.647  23.334  28.304  0.00  0.00    +0.000 A 
ATOM     15  C   UNL     1      27.502  23.887  27.803  0.00  0.00    +0.000 A 
ATOM     16  O   UNL     1      27.542  24.634  26.622  0.00  0.00    +0.000 OA
ENDBRANCH   2   7
BRANCH   1  17
ATOM     17  C   UNL     1      27.106  23.736  22.862  0.00  0.00    +0.000 C 
ATOM     18  O   UNL     1      26.212  23.193  22.173  0.00  0.00    +0.000 OA
BRANCH  17  19
ATOM     19  O   UNL     1      28.207  22.927  23.104  0.00  0.00    +0.000 OA
BRANCH  19  21
ATOM     20  C   UNL     1      29.935  22.672  24.710  0.00  0.00    +0.000 C 
ATOM     21  C   UNL     1      29.474  23.444  23.466  0.00  0.00    +0.000 C 
ENDBRANCH  19  21
ENDBRANCH  17  19
ENDBRANCH   1  17
TORSDOF 4
ENDMDL
MODEL 3
REMARK VINA RESULT:      -5.7     31.785     33.530
REMARK  Name = 
REMARK  4 active torsions:
REMARK  status: ('A' for Active; 'I' for Inactive)
REMARK    1  A    between atoms: C_2  and  O_3
REMARK    2  A    between atoms: O_3  and  C_4
REMARK    3  A    between atoms: C_4  and  C_6
REMARK    4  A    between atoms: C_7  and  C_8
REMARK                            x       y       z     vdW  Elec       q    Type
REMARK                         _______ _______ _______ _____ _____    ______ ____
ROOT
ATOM      1  C   UNL     1      18.707  -7.392  25.938  0.00  0.00    +0.000 A 
ATOM      2  C   UNL     1      19.941  -6.958  25.573  0.00  0.00    +0.000 A 
ATOM      3  C   UNL     1      20.267  -5.702  25.876  0.00  0.00    +0.000 A 
ATOM      4  S   UNL     1      18.890  -5.062  26.678  0.00  0.00    +0.000 S 
ATOM      5  C   UNL     1      17.935  -6.461  26.588  0.00  0.00    +0.000 A 
ATOM      6  N   UNL     1      16.590  -6.605  27.101  0.00  0.00    +0.000 NA
ENDROOT
BRANCH   2   7
ATOM      7  C   UNL     1      20.912  -8.015  24.798  0.00  0.00    +0.000 C 
ATOM      8  C   UNL     1      21.444  -8.850  26.133  0.00  0.00    +0.000 C 
ATOM      9  O   UNL     1      22.577  -9.534  25.654  0.00  0.00    +0.000 OA
ATOM     10  C   UNL     1      23.521  -8.967  24.832  0.00  0.00    +0.000 A 
ATOM     11  C   UNL     1      24.659  -9.590  24.394  0.00  0.00    +0.000 A 
ATOM     12  C   UNL     1      25.556  -8.935  23.564  0.00  0.00    +0.000 A 
ATOM     13  C   UNL     1      25.348  -7.636  23.142  0.00  0.00    +0.000 A 
ATOM     14  C   UNL     1      24.183  -7.009  23.595  0.00  0.00    +0.000 A 
ATOM     15  C   UNL     1      23.310  -7.669  24.413  0.00  0.00    +0.000 A 
ATOM     16  O   UNL     1      22.148  -7.030  24.860  0.00  0.00    +0.000 OA
ENDBRANCH   2   7
BRANCH   1  17
ATOM     17  C   UNL     1      18.153  -8.748  25.692  0.00  0.00    +0.000 C 
ATOM     18  O   UNL     1      17.526  -9.061  24.654  0.00  0.00    +0.000 OA
BRANCH  17  19
ATOM     19  O   UNL     1      18.290  -9.782  26.606  0.00  0.00    +0.000 OA
BRANCH  19  21
ATOM     20  C   UNL     1      17.786  -9.482  28.906  0.00  0.00    +0.000 C 
ATOM     21  C   UNL     1      17.306 -10.084  27.578  0.00  0.00    +0.000 C 
ENDBRANCH  19  21
ENDBRANCH  17  19
ENDBRANCH   1  17
TORSDOF 4
ENDMDL
MODEL 4
REMARK VINA RESULT:      -5.6     32.118     33.843
REMARK  Name = 
REMARK  4 active torsions:
REMARK  status: ('A' for Active; 'I' for Inactive)
REMARK    1  A    between atoms: C_2  and  O_3
REMARK    2  A    between atoms: O_3  and  C_4
REMARK    3  A    between atoms: C_4  and  C_6
REMARK    4  A    between atoms: C_7  and  C_8
REMARK                            x       y       z     vdW  Elec       q    Type
REMARK                         _______ _______ _______ _____ _____    ______ ____
ROOT
ATOM      1  C   UNL     1      19.638  -9.129  26.700  0.00  0.00    +0.000 A 
ATOM      2  C   UNL     1      20.859  -9.724  26.672  0.00  0.00    +0.000 A 
ATOM      3  C   UNL     1      21.291 -10.295  27.797  0.00  0.00    +0.000 A 
ATOM      4  S   UNL     1      20.037 -10.039  28.940  0.00  0.00    +0.000 S 
ATOM      5  C   UNL     1      18.990  -9.194  27.909  0.00  0.00    +0.000 A 
ATOM      6  N   UNL     1      17.691  -8.665  28.263  0.00  0.00    +0.000 NA
ENDROOT
BRANCH   2   7
ATOM      7  C   UNL     1      21.683  -9.686  25.266  0.00  0.00    +0.000 C 
ATOM      8  C   UNL     1      22.938 -10.680  25.716  0.00  0.00    +0.000 C 
ATOM      9  O   UNL     1      23.917 -10.427  24.737  0.00  0.00    +0.000 OA
ATOM     10  C   UNL     1      24.226  -9.170  24.273  0.00  0.00    +0.000 A 
ATOM     11  C   UNL     1      25.208  -8.887  23.362  0.00  0.00    +0.000 A 
ATOM     12  C   UNL     1      25.448  -7.585  22.953  0.00  0.00    +0.000 A 
ATOM     13  C   UNL     1      24.716  -6.519  23.439  0.00  0.00    +0.000 A 
ATOM     14  C   UNL     1      23.716  -6.818  24.370  0.00  0.00    +0.000 A 
ATOM     15  C   UNL     1      23.493  -8.108  24.762  0.00  0.00    +0.000 A 
ATOM     16  O   UNL     1      22.489  -8.394  25.694  0.00  0.00    +0.000 OA
ENDBRANCH   2   7
BRANCH   1  17
ATOM     17  C   UNL     1      18.980  -8.439  25.561  0.00  0.00    +0.000 C 
ATOM     18  O   UNL     1      18.588  -9.030  24.529  0.00  0.00    +0.000 OA
BRANCH  17  19
ATOM     19  O   UNL     1      18.747  -7.072  25.556  0.00  0.00    +0.000 OA
BRANCH  19  21
ATOM     20  C   UNL     1      19.049  -4.929  26.532  0.00  0.00    +0.000 C 
ATOM     21  C   UNL     1      19.750  -6.122  25.868  0.00  0.00    +0.000 C 
ENDBRANCH  19  21
ENDBRANCH  17  19
ENDBRANCH   1  17
TORSDOF 4
ENDMDL
MODEL 5
REMARK VINA RESULT:      -5.5     27.942     29.594
REMARK  Name = 
REMARK  4 active torsions:
REMARK  status: ('A' for Active; 'I' for Inactive)
REMARK    1  A    between atoms: C_2  and  O_3
REMARK    2  A    between atoms: O_3  and  C_4
REMARK    3  A    between atoms: C_4  and  C_6
REMARK    4  A    between atoms: C_7  and  C_8
REMARK                            x       y       z     vdW  Elec       q    Type
REMARK                         _______ _______ _______ _____ _____    ______ ____
ROOT
ATOM      1  C   UNL     1      33.966  -1.812  35.441  0.00  0.00    +0.000 A 
ATOM      2  C   UNL     1      34.096  -3.087  34.990  0.00  0.00    +0.000 A 
ATOM      3  C   UNL     1      35.200  -3.751  35.333  0.00  0.00    +0.000 A 
ATOM      4  S   UNL     1      36.105  -2.653  36.292  0.00  0.00    +0.000 S 
ATOM      5  C   UNL     1      35.009  -1.361  36.211  0.00  0.00    +0.000 A 
ATOM      6  N   UNL     1      35.174  -0.067  36.836  0.00  0.00    +0.000 NA
ENDROOT
BRANCH   2   7
ATOM      7  C   UNL     1      32.891  -3.687  34.070  0.00  0.00    +0.000 C 
ATOM      8  C   UNL     1      32.706  -5.136  34.863  0.00  0.00    +0.000 C 
ATOM      9  O   UNL     1      31.971  -5.913  33.948  0.00  0.00    +0.000 OA
ATOM     10  C   UNL     1      32.226  -5.947  32.598  0.00  0.00    +0.000 A 
ATOM     11  C   UNL     1      31.565  -6.732  31.692  0.00  0.00    +0.000 A 
ATOM     12  C   UNL     1      31.893  -6.698  30.346  0.00  0.00    +0.000 A 
ATOM     13  C   UNL     1      32.893  -5.880  29.857  0.00  0.00    +0.000 A 
ATOM     14  C   UNL     1      33.563  -5.083  30.790  0.00  0.00    +0.000 A 
ATOM     15  C   UNL     1      33.227  -5.129  32.114  0.00  0.00    +0.000 A 
ATOM     16  O   UNL     1      33.904  -4.326  33.038  0.00  0.00    +0.000 OA
ENDBRANCH   2   7
BRANCH   1  17
ATOM     17  C   UNL     1      32.820  -0.906  35.171  0.00  0.00    +0.000 C 
ATOM     18  O   UNL     1      31.904  -0.685  35.996  0.00  0.00    +0.000 OA
BRANCH  17  19
ATOM     19  O   UNL     1      32.679  -0.227  33.970  0.00  0.00    +0.000 OA
BRANCH  19  21
ATOM     20  C   UNL     1      34.370   0.354  32.409  0.00  0.00    +0.000 C 
ATOM     21  C   UNL     1      33.521   0.845  33.590  0.00  0.00    +0.000 C 
ENDBRANCH  19  21
ENDBRANCH  17  19
ENDBRANCH   1  17
TORSDOF 4
ENDMDL
MODEL 6
REMARK VINA RESULT:      -5.4      3.427      6.843
REMARK  Name = 
REMARK  4 active torsions:
REMARK  status: ('A' for Active; 'I' for Inactive)
REMARK    1  A    between atoms: C_2  and  O_3
REMARK    2  A    between atoms: O_3  and  C_4
REMARK    3  A    between atoms: C_4  and  C_6
REMARK    4  A    between atoms: C_7  and  C_8
REMARK                            x       y       z     vdW  Elec       q    Type
REMARK                         _______ _______ _______ _____ _____    ______ ____
ROOT
ATOM      1  C   UNL     1      26.059  24.412  28.374  0.00  0.00    +0.000 A 
ATOM      2  C   UNL     1      26.711  23.747  27.385  0.00  0.00    +0.000 A 
ATOM      3  C   UNL     1      27.435  22.683  27.732  0.00  0.00    +0.000 A 
ATOM      4  S   UNL     1      27.251  22.550  29.434  0.00  0.00    +0.000 S 
ATOM      5  C   UNL     1      26.233  23.892  29.633  0.00  0.00    +0.000 A 
ATOM      6  N   UNL     1      25.681  24.361  30.885  0.00  0.00    +0.000 NA
ENDROOT
BRANCH   2   7
ATOM      7  C   UNL     1      26.547  24.310  25.864  0.00  0.00    +0.000 C 
ATOM      8  C   UNL     1      26.021  22.899  25.159  0.00  0.00    +0.000 C 
ATOM      9  O   UNL     1      26.209  23.136  23.784  0.00  0.00    +0.000 OA
ATOM     10  C   UNL     1      27.328  23.739  23.260  0.00  0.00    +0.000 A 
ATOM     11  C   UNL     1      27.563  23.933  21.925  0.00  0.00    +0.000 A 
ATOM     12  C   UNL     1      28.724  24.553  21.489  0.00  0.00    +0.000 A 
ATOM     13  C   UNL     1      29.690  24.999  22.370  0.00  0.00    +0.000 A 
ATOM     14  C   UNL     1      29.441  24.795  23.730  0.00  0.00    +0.000 A 
ATOM     15  C   UNL     1      28.291  24.182  24.143  0.00  0.00    +0.000 A 
ATOM     16  O   UNL     1      28.053  23.983  25.507  0.00  0.00    +0.000 OA
ENDBRANCH   2   7
BRANCH   1  17
ATOM     17  C   UNL     1      25.207  25.616  28.198  0.00  0.00    +0.000 C 
ATOM     18  O   UNL     1      25.589  26.778  28.467  0.00  0.00    +0.000 OA
BRANCH  17  19
ATOM     19  O   UNL     1      23.909  25.542  27.717  0.00  0.00    +0.000 OA
BRANCH  19  21
ATOM     20  C   UNL     1      21.660  26.122  27.226  0.00  0.00    +0.000 C 
ATOM     21  C   UNL     1      22.964  26.581  27.893  0.00  0.00    +0.000 C 
ENDBRANCH  19  21
ENDBRANCH  17  19
ENDBRANCH   1  17
TORSDOF 4
ENDMDL
MODEL 7
REMARK VINA RESULT:      -5.4     13.419     15.837
REMARK  Name = 
REMARK  4 active torsions:
REMARK  status: ('A' for Active; 'I' for Inactive)
REMARK    1  A    between atoms: C_2  and  O_3
REMARK    2  A    between atoms: O_3  and  C_4
REMARK    3  A    between atoms: C_4  and  C_6
REMARK    4  A    between atoms: C_7  and  C_8
REMARK                            x       y       z     vdW  Elec       q    Type
REMARK                         _______ _______ _______ _____ _____    ______ ____
ROOT
ATOM      1  C   UNL     1      19.269  22.061  36.845  0.00  0.00    +0.000 A 
ATOM      2  C   UNL     1      19.046  21.429  38.027  0.00  0.00    +0.000 A 
ATOM      3  C   UNL     1      18.860  22.189  39.106  0.00  0.00    +0.000 A 
ATOM      4  S   UNL     1      18.982  23.806  38.543  0.00  0.00    +0.000 S 
ATOM      5  C   UNL     1      19.273  23.432  36.914  0.00  0.00    +0.000 A 
ATOM      6  N   UNL     1      19.479  24.387  35.847  0.00  0.00    +0.000 NA
ENDROOT
BRANCH   2   7
ATOM      7  C   UNL     1      19.026  19.799  38.017  0.00  0.00    +0.000 C 
ATOM      8  C   UNL     1      18.545  19.571  39.592  0.00  0.00    +0.000 C 
ATOM      9  O   UNL     1      18.859  18.221  39.833  0.00  0.00    +0.000 OA
ATOM     10  C   UNL     1      20.028  17.623  39.425  0.00  0.00    +0.000 A 
ATOM     11  C   UNL     1      20.384  16.328  39.690  0.00  0.00    +0.000 A 
ATOM     12  C   UNL     1      21.587  15.812  39.236  0.00  0.00    +0.000 A 
ATOM     13  C   UNL     1      22.477  16.571  38.500  0.00  0.00    +0.000 A 
ATOM     14  C   UNL     1      22.105  17.892  38.235  0.00  0.00    +0.000 A 
ATOM     15  C   UNL     1      20.915  18.385  38.691  0.00  0.00    +0.000 A 
ATOM     16  O   UNL     1      20.553  19.709  38.419  0.00  0.00    +0.000 OA
ENDBRANCH   2   7
BRANCH   1  17
ATOM     17  C   UNL     1      19.501  21.401  35.535  0.00  0.00    +0.000 C 
ATOM     18  O   UNL     1      20.638  21.115  35.097  0.00  0.00    +0.000 OA
BRANCH  17  19
ATOM     19  O   UNL     1      18.461  21.046  34.689  0.00  0.00    +0.000 OA
BRANCH  19  21
ATOM     20  C   UNL     1      17.284  20.348  32.749  0.00  0.00    +0.000 C 
ATOM     21  C   UNL     1      18.661  20.698  33.331  0.00  0.00    +0.000 C 
ENDBRANCH  19  21
ENDBRANCH  17  19
ENDBRANCH   1  17
TORSDOF 4
ENDMDL
MODEL 8
REMARK VINA RESULT:      -5.3     18.294     20.016
REMARK  Name = 
REMARK  4 active torsions:
REMARK  status: ('A' for Active; 'I' for Inactive)
REMARK    1  A    between atoms: C_2  and  O_3
REMARK    2  A    between atoms: O_3  and  C_4
REMARK    3  A    between atoms: C_4  and  C_6
REMARK    4  A    between atoms: C_7  and  C_8
REMARK                            x       y       z     vdW  Elec       q    Type
REMARK                         _______ _______ _______ _____ _____    ______ ____
ROOT
ATOM      1  C   UNL     1      21.739  11.524  38.094  0.00  0.00    +0.000 A 
ATOM      2  C   UNL     1      20.676  10.755  37.742  0.00  0.00    +0.000 A 
ATOM      3  C   UNL     1      20.889   9.774  36.864  0.00  0.00    +0.000 A 
ATOM      4  S   UNL     1      22.561   9.867  36.486  0.00  0.00    +0.000 S 
ATOM      5  C   UNL     1      22.924  11.185  37.489  0.00  0.00    +0.000 A 
ATOM      6  N   UNL     1      24.223  11.800  37.647  0.00  0.00    +0.000 NA
ENDROOT
BRANCH   2   7
ATOM      7  C   UNL     1      19.237  11.100  38.426  0.00  0.00    +0.000 C 
ATOM      8  C   UNL     1      18.660   9.545  38.530  0.00  0.00    +0.000 C 
ATOM      9  O   UNL     1      17.280   9.727  38.743  0.00  0.00    +0.000 OA
ATOM     10  C   UNL     1      16.519  10.651  38.069  0.00  0.00    +0.000 A 
ATOM     11  C   UNL     1      15.167  10.814  38.215  0.00  0.00    +0.000 A 
ATOM     12  C   UNL     1      14.482  11.777  37.489  0.00  0.00    +0.000 A 
ATOM     13  C   UNL     1      15.123  12.610  36.593  0.00  0.00    +0.000 A 
ATOM     14  C   UNL     1      16.503  12.435  36.450  0.00  0.00    +0.000 A 
ATOM     15  C   UNL     1      17.162  11.481  37.173  0.00  0.00    +0.000 A 
ATOM     16  O   UNL     1      18.543  11.316  37.021  0.00  0.00    +0.000 OA
ENDBRANCH   2   7
BRANCH   1  17
ATOM     17  C   UNL     1      21.712  12.661  39.049  0.00  0.00    +0.000 C 
ATOM     18  O   UNL     1      21.920  12.537  40.278  0.00  0.00    +0.000 OA
BRANCH  17  19
ATOM     19  O   UNL     1      21.452  13.962  38.646  0.00  0.00    +0.000 OA
BRANCH  19  21
ATOM     20  C   UNL     1      20.148  15.664  39.663  0.00  0.00    +0.000 C 
ATOM     21  C   UNL     1      20.150  14.519  38.642  0.00  0.00    +0.000 C 
ENDBRANCH  19  21
ENDBRANCH  17  19
ENDBRANCH   1  17
TORSDOF 4
ENDMDL
MODEL 9
REMARK VINA RESULT:      -5.3     24.568     26.244
REMARK  Name = 
REMARK  4 active torsions:
REMARK  status: ('A' for Active; 'I' for Inactive)
REMARK    1  A    between atoms: C_2  and  O_3
REMARK    2  A    between atoms: O_3  and  C_4
REMARK    3  A    between atoms: C_4  and  C_6
REMARK    4  A    between atoms: C_7  and  C_8
REMARK                            x       y       z     vdW  Elec       q    Type
REMARK                         _______ _______ _______ _____ _____    ______ ____
ROOT
ATOM      1  C   UNL     1      35.314   3.507  37.155  0.00  0.00    +0.000 A 
ATOM      2  C   UNL     1      35.127   2.202  37.482  0.00  0.00    +0.000 A 
ATOM      3  C   UNL     1      36.000   1.648  38.324  0.00  0.00    +0.000 A 
ATOM      4  S   UNL     1      37.114   2.897  38.703  0.00  0.00    +0.000 S 
ATOM      5  C   UNL     1      36.401   4.102  37.747  0.00  0.00    +0.000 A 
ATOM      6  N   UNL     1      36.868   5.464  37.608  0.00  0.00    +0.000 NA
ENDROOT
BRANCH   2   7
ATOM      7  C   UNL     1      33.853   1.433  36.816  0.00  0.00    +0.000 C 
ATOM      8  C   UNL     1      33.538   0.393  38.074  0.00  0.00    +0.000 C 
ATOM      9  O   UNL     1      32.714  -0.585  37.485  0.00  0.00    +0.000 OA
ATOM     10  C   UNL     1      32.941  -1.127  36.242  0.00  0.00    +0.000 A 
ATOM     11  C   UNL     1      32.190  -2.116  35.666  0.00  0.00    +0.000 A 
ATOM     12  C   UNL     1      32.497  -2.602  34.404  0.00  0.00    +0.000 A 
ATOM     13  C   UNL     1      33.565  -2.117  33.674  0.00  0.00    +0.000 A 
ATOM     14  C   UNL     1      34.326  -1.108  34.272  0.00  0.00    +0.000 A 
ATOM     15  C   UNL     1      34.010  -0.641  35.516  0.00  0.00    +0.000 A 
ATOM     16  O   UNL     1      34.780   0.368  36.103  0.00  0.00    +0.000 OA
ENDBRANCH   2   7
BRANCH   1  17
ATOM     17  C   UNL     1      34.461   4.305  36.238  0.00  0.00    +0.000 C 
ATOM     18  O   UNL     1      33.538   5.055  36.630  0.00  0.00    +0.000 OA
BRANCH  17  19
ATOM     19  O   UNL     1      34.626   4.279  34.861  0.00  0.00    +0.000 OA
BRANCH  19  21
ATOM     20  C   UNL     1      33.777   2.770  33.237  0.00  0.00    +0.000 C 
ATOM     21  C   UNL     1      33.546   4.104  33.962  0.00  0.00    +0.000 C 
ENDBRANCH  19  21
ENDBRANCH  17  19
ENDBRANCH   1  17
TORSDOF 4
ENDMDL
MODEL 10
REMARK VINA RESULT:      -5.2     33.843     35.469
REMARK  Name = 
REMARK  4 active torsions:
REMARK  status: ('A' for Active; 'I' for Inactive)
REMARK    1  A    between atoms: C_2  and  O_3
REMARK    2  A    between atoms: O_3  and  C_4
REMARK    3  A    between atoms: C_4  and  C_6
REMARK    4  A    between atoms: C_7  and  C_8
REMARK                            x       y       z     vdW  Elec       q    Type
REMARK                         _______ _______ _______ _____ _____    ______ ____
ROOT
ATOM      1  C   UNL     1      14.250  -9.979  26.663  0.00  0.00    +0.000 A 
ATOM      2  C   UNL     1      15.596 -10.148  26.740  0.00  0.00    +0.000 A 
ATOM      3  C   UNL     1      16.051 -11.098  27.557  0.00  0.00    +0.000 A 
ATOM      4  S   UNL     1      14.649 -11.800  28.254  0.00  0.00    +0.000 S 
ATOM      5  C   UNL     1      13.514 -10.827  27.453  0.00  0.00    +0.000 A 
ATOM      6  N   UNL     1      12.077 -10.903  27.598  0.00  0.00    +0.000 NA
ENDROOT
BRANCH   2   7
ATOM      7  C   UNL     1      16.531  -9.175  25.825  0.00  0.00    +0.000 C 
ATOM      8  C   UNL     1      17.953 -10.022  25.978  0.00  0.00    +0.000 C 
ATOM      9  O   UNL     1      18.927  -9.096  25.562  0.00  0.00    +0.000 OA
ATOM     10  C   UNL     1      18.925  -7.771  25.928  0.00  0.00    +0.000 A 
ATOM     11  C   UNL     1      19.887  -6.859  25.583  0.00  0.00    +0.000 A 
ATOM     12  C   UNL     1      19.800  -5.539  26.000  0.00  0.00    +0.000 A 
ATOM     13  C   UNL     1      18.751  -5.085  26.775  0.00  0.00    +0.000 A 
ATOM     14  C   UNL     1      17.775  -6.023  27.122  0.00  0.00    +0.000 A 
ATOM     15  C   UNL     1      17.876  -7.320  26.703  0.00  0.00    +0.000 A 
ATOM     16  O   UNL     1      16.893  -8.250  27.056  0.00  0.00    +0.000 OA
ENDBRANCH   2   7
BRANCH   1  17
ATOM     17  C   UNL     1      13.545  -8.981  25.819  0.00  0.00    +0.000 C 
ATOM     18  O   UNL     1      13.350  -7.795  26.169  0.00  0.00    +0.000 OA
BRANCH  17  19
ATOM     19  O   UNL     1      13.045  -9.292  24.563  0.00  0.00    +0.000 OA
BRANCH  19  21
ATOM     20  C   UNL     1      14.426  -8.675  22.734  0.00  0.00    +0.000 C 
ATOM     21  C   UNL     1      13.844  -9.848  23.535  0.00  0.00    +0.000 C 
ENDBRANCH  19  21
ENDBRANCH  17  19
ENDBRANCH   1  17
TORSDOF 4
ENDMDL
