MODEL 1
REMARK VINA RESULT:      -7.1      0.000      0.000
REMARK  Name = 
REMARK  0 active torsions:
REMARK  status: ('A' for Active; 'I' for Inactive)
REMARK                            x       y       z     vdW  Elec       q    Type
REMARK                         _______ _______ _______ _____ _____    ______ ____
ROOT
ATOM      1  C   UNL     1      28.262  25.532  24.375  0.00  0.00    +0.000 C 
ATOM      2  C   UNL     1      28.957  24.672  23.454  0.00  0.00    +0.000 C 
ATOM      3  C   UNL     1      30.380  24.417  23.598  0.00  0.00    +0.000 C 
ATOM      4  C   UNL     1      30.627  23.087  24.339  0.00  0.00    +0.000 C 
ATOM      5  C   UNL     1      29.572  22.987  25.458  0.00  0.00    +0.000 A 
ATOM      6  C   UNL     1      28.277  23.052  25.029  0.00  0.00    +0.000 A 
ATOM      7  S   UNL     1      27.383  22.931  26.374  0.00  0.00    +0.000 S 
ATOM      8  C   UNL     1      28.607  22.789  27.567  0.00  0.00    +0.000 A 
ATOM      9  C   UNL     1      28.700  22.646  28.947  0.00  0.00    +0.000 A 
ATOM     10  C   UNL     1      29.902  22.557  29.619  0.00  0.00    +0.000 A 
ATOM     11  O   UNL     1      29.987  22.417  30.976  0.00  0.00    +0.000 OA
ATOM     12  C   UNL     1      31.026  22.618  28.835  0.00  0.00    +0.000 A 
ATOM     13  C   UNL     1      30.991  22.756  27.486  0.00  0.00    +0.000 A 
ATOM     14  C   UNL     1      29.747  22.846  26.818  0.00  0.00    +0.000 A 
ATOM     15  C   UNL     1      28.313  23.192  23.444  0.00  0.00    +0.000 C 
ATOM     16  C   UNL     1      26.853  23.878  23.244  0.00  0.00    +0.000 C 
ATOM     17  C   UNL     1      27.206  24.181  21.829  0.00  0.00    +0.000 C 
ATOM     18  C   UNL     1      28.579  25.070  21.924  0.00  0.00    +0.000 C 
ATOM     19  O   UNL     1      29.444  23.971  21.345  0.00  0.00    +0.000 OA
ENDROOT
TORSDOF 0
ENDMDL
MODEL 2
REMARK VINA RESULT:      -7.0      1.859      2.324
REMARK  Name = 
REMARK  0 active torsions:
REMARK  status: ('A' for Active; 'I' for Inactive)
REMARK                            x       y       z     vdW  Elec       q    Type
REMARK                         _______ _______ _______ _____ _____    ______ ____
ROOT
ATOM      1  C   UNL     1      28.907  26.233  24.088  0.00  0.00    +0.000 C 
ATOM      2  C   UNL     1      29.143  25.105  23.225  0.00  0.00    +0.000 C 
ATOM      3  C   UNL     1      29.942  23.978  23.671  0.00  0.00    +0.000 C 
ATOM      4  C   UNL     1      29.041  22.835  24.184  0.00  0.00    +0.000 C 
ATOM      5  C   UNL     1      27.880  23.486  24.962  0.00  0.00    +0.000 A 
ATOM      6  C   UNL     1      27.141  24.380  24.241  0.00  0.00    +0.000 A 
ATOM      7  S   UNL     1      26.010  24.913  25.270  0.00  0.00    +0.000 S 
ATOM      8  C   UNL     1      26.410  24.028  26.683  0.00  0.00    +0.000 A 
ATOM      9  C   UNL     1      25.952  23.894  27.989  0.00  0.00    +0.000 A 
ATOM     10  C   UNL     1      26.533  23.050  28.912  0.00  0.00    +0.000 A 
ATOM     11  O   UNL     1      26.079  22.923  30.195  0.00  0.00    +0.000 OA
ATOM     12  C   UNL     1      27.613  22.332  28.463  0.00  0.00    +0.000 A 
ATOM     13  C   UNL     1      28.100  22.426  27.199  0.00  0.00    +0.000 A 
ATOM     14  C   UNL     1      27.487  23.298  26.269  0.00  0.00    +0.000 A 
ATOM     15  C   UNL     1      27.753  24.421  22.773  0.00  0.00    +0.000 C 
ATOM     16  C   UNL     1      27.219  25.895  22.345  0.00  0.00    +0.000 C 
ATOM     17  C   UNL     1      28.105  25.853  21.149  0.00  0.00    +0.000 C 
ATOM     18  C   UNL     1      29.609  25.615  21.753  0.00  0.00    +0.000 C 
ATOM     19  O   UNL     1      29.706  24.204  21.213  0.00  0.00    +0.000 OA
ENDROOT
TORSDOF 0
ENDMDL
MODEL 3
REMARK VINA RESULT:      -7.0     31.730     32.444
REMARK  Name = 
REMARK  0 active torsions:
REMARK  status: ('A' for Active; 'I' for Inactive)
REMARK                            x       y       z     vdW  Elec       q    Type
REMARK                         _______ _______ _______ _____ _____    ______ ____
ROOT
ATOM      1  C   UNL     1      21.908  -9.038  22.642  0.00  0.00    +0.000 C 
ATOM      2  C   UNL     1      23.088  -8.329  23.062  0.00  0.00    +0.000 C 
ATOM      3  C   UNL     1      23.102  -6.877  23.131  0.00  0.00    +0.000 C 
ATOM      4  C   UNL     1      22.836  -6.395  24.572  0.00  0.00    +0.000 C 
ATOM      5  C   UNL     1      21.757  -7.319  25.170  0.00  0.00    +0.000 A 
ATOM      6  C   UNL     1      22.080  -8.646  25.171  0.00  0.00    +0.000 A 
ATOM      7  S   UNL     1      20.801  -9.387  25.834  0.00  0.00    +0.000 S 
ATOM      8  C   UNL     1      19.776  -8.050  26.151  0.00  0.00    +0.000 A 
ATOM      9  C   UNL     1      18.520  -7.811  26.697  0.00  0.00    +0.000 A 
ATOM     10  C   UNL     1      17.970  -6.550  26.807  0.00  0.00    +0.000 A 
ATOM     11  O   UNL     1      16.734  -6.321  27.343  0.00  0.00    +0.000 OA
ATOM     12  C   UNL     1      18.747  -5.520  26.339  0.00  0.00    +0.000 A 
ATOM     13  C   UNL     1      19.980  -5.699  25.799  0.00  0.00    +0.000 A 
ATOM     14  C   UNL     1      20.523  -7.001  25.696  0.00  0.00    +0.000 A 
ATOM     15  C   UNL     1      23.537  -8.777  24.546  0.00  0.00    +0.000 C 
ATOM     16  C   UNL     1      23.438 -10.324  24.059  0.00  0.00    +0.000 C 
ATOM     17  C   UNL     1      24.698 -10.146  23.285  0.00  0.00    +0.000 C 
ATOM     18  C   UNL     1      24.392  -8.895  22.273  0.00  0.00    +0.000 C 
ATOM     19  O   UNL     1      25.332  -7.955  22.997  0.00  0.00    +0.000 OA
ENDROOT
TORSDOF 0
ENDMDL
MODEL 4
REMARK VINA RESULT:      -6.7      1.918      6.183
REMARK  Name = 
REMARK  0 active torsions:
REMARK  status: ('A' for Active; 'I' for Inactive)
REMARK                            x       y       z     vdW  Elec       q    Type
REMARK                         _______ _______ _______ _____ _____    ______ ____
ROOT
ATOM      1  C   UNL     1      28.601  24.956  28.466  0.00  0.00    +0.000 C 
ATOM      2  C   UNL     1      27.391  24.204  28.669  0.00  0.00    +0.000 C 
ATOM      3  C   UNL     1      26.186  24.513  27.918  0.00  0.00    +0.000 C 
ATOM      4  C   UNL     1      26.042  23.575  26.701  0.00  0.00    +0.000 C 
ATOM      5  C   UNL     1      27.452  23.378  26.109  0.00  0.00    +0.000 A 
ATOM      6  C   UNL     1      28.372  22.875  26.984  0.00  0.00    +0.000 A 
ATOM      7  S   UNL     1      29.745  22.771  26.132  0.00  0.00    +0.000 S 
ATOM      8  C   UNL     1      29.229  23.361  24.607  0.00  0.00    +0.000 A 
ATOM      9  C   UNL     1      29.769  23.594  23.347  0.00  0.00    +0.000 A 
ATOM     10  C   UNL     1      29.037  24.100  22.292  0.00  0.00    +0.000 A 
ATOM     11  O   UNL     1      29.574  24.328  21.056  0.00  0.00    +0.000 OA
ATOM     12  C   UNL     1      27.718  24.366  22.558  0.00  0.00    +0.000 A 
ATOM     13  C   UNL     1      27.142  24.156  23.769  0.00  0.00    +0.000 A 
ATOM     14  C   UNL     1      27.912  23.637  24.837  0.00  0.00    +0.000 A 
ATOM     15  C   UNL     1      27.625  22.636  28.369  0.00  0.00    +0.000 C 
ATOM     16  C   UNL     1      28.926  22.691  29.342  0.00  0.00    +0.000 C 
ATOM     17  C   UNL     1      28.021  22.752  30.523  0.00  0.00    +0.000 C 
ATOM     18  C   UNL     1      27.077  24.065  30.257  0.00  0.00    +0.000 C 
ATOM     19  O   UNL     1      25.832  23.240  30.016  0.00  0.00    +0.000 OA
ENDROOT
TORSDOF 0
ENDMDL
MODEL 5
REMARK VINA RESULT:      -6.6      1.144      1.354
REMARK  Name = 
REMARK  0 active torsions:
REMARK  status: ('A' for Active; 'I' for Inactive)
REMARK                            x       y       z     vdW  Elec       q    Type
REMARK                         _______ _______ _______ _____ _____    ______ ____
ROOT
ATOM      1  C   UNL     1      27.993  25.093  25.248  0.00  0.00    +0.000 C 
ATOM      2  C   UNL     1      28.253  24.047  24.294  0.00  0.00    +0.000 C 
ATOM      3  C   UNL     1      29.610  23.607  24.018  0.00  0.00    +0.000 C 
ATOM      4  C   UNL     1      29.953  22.344  24.834  0.00  0.00    +0.000 C 
ATOM      5  C   UNL     1      29.325  22.519  26.230  0.00  0.00    +0.000 A 
ATOM      6  C   UNL     1      27.974  22.722  26.227  0.00  0.00    +0.000 A 
ATOM      7  S   UNL     1      27.570  22.878  27.787  0.00  0.00    +0.000 S 
ATOM      8  C   UNL     1      29.100  22.692  28.541  0.00  0.00    +0.000 A 
ATOM      9  C   UNL     1      29.630  22.688  29.826  0.00  0.00    +0.000 A 
ATOM     10  C   UNL     1      30.971  22.500  30.090  0.00  0.00    +0.000 A 
ATOM     11  O   UNL     1      31.488  22.498  31.355  0.00  0.00    +0.000 OA
ATOM     12  C   UNL     1      31.772  22.313  28.992  0.00  0.00    +0.000 A 
ATOM     13  C   UNL     1      31.305  22.308  27.717  0.00  0.00    +0.000 A 
ATOM     14  C   UNL     1      29.926  22.502  27.470  0.00  0.00    +0.000 A 
ATOM     15  C   UNL     1      27.496  22.683  24.709  0.00  0.00    +0.000 C 
ATOM     16  C   UNL     1      26.130  23.546  24.879  0.00  0.00    +0.000 C 
ATOM     17  C   UNL     1      26.023  23.639  23.396  0.00  0.00    +0.000 C 
ATOM     18  C   UNL     1      27.431  24.326  22.919  0.00  0.00    +0.000 C 
ATOM     19  O   UNL     1      27.940  23.058  22.268  0.00  0.00    +0.000 OA
ENDROOT
TORSDOF 0
ENDMDL
MODEL 6
REMARK VINA RESULT:      -6.5      1.664      6.146
REMARK  Name = 
REMARK  0 active torsions:
REMARK  status: ('A' for Active; 'I' for Inactive)
REMARK                            x       y       z     vdW  Elec       q    Type
REMARK                         _______ _______ _______ _____ _____    ______ ____
ROOT
ATOM      1  C   UNL     1      30.401  24.761  27.798  0.00  0.00    +0.000 C 
ATOM      2  C   UNL     1      29.995  23.654  28.625  0.00  0.00    +0.000 C 
ATOM      3  C   UNL     1      28.593  23.415  28.916  0.00  0.00    +0.000 C 
ATOM      4  C   UNL     1      28.009  22.347  27.967  0.00  0.00    +0.000 C 
ATOM      5  C   UNL     1      28.613  22.600  26.572  0.00  0.00    +0.000 A 
ATOM      6  C   UNL     1      29.978  22.573  26.528  0.00  0.00    +0.000 A 
ATOM      7  S   UNL     1      30.352  22.867  24.980  0.00  0.00    +0.000 S 
ATOM      8  C   UNL     1      28.791  23.041  24.293  0.00  0.00    +0.000 A 
ATOM      9  C   UNL     1      28.226  23.298  23.049  0.00  0.00    +0.000 A 
ATOM     10  C   UNL     1      26.865  23.374  22.836  0.00  0.00    +0.000 A 
ATOM     11  O   UNL     1      26.316  23.628  21.611  0.00  0.00    +0.000 OA
ATOM     12  C   UNL     1      26.080  23.178  23.944  0.00  0.00    +0.000 A 
ATOM     13  C   UNL     1      26.580  22.924  25.180  0.00  0.00    +0.000 A 
ATOM     14  C   UNL     1      27.979  22.850  25.375  0.00  0.00    +0.000 A 
ATOM     15  C   UNL     1      30.491  22.252  28.000  0.00  0.00    +0.000 C 
ATOM     16  C   UNL     1      31.980  22.889  27.866  0.00  0.00    +0.000 C 
ATOM     17  C   UNL     1      32.149  22.764  29.340  0.00  0.00    +0.000 C 
ATOM     18  C   UNL     1      30.897  23.606  29.977  0.00  0.00    +0.000 C 
ATOM     19  O   UNL     1      30.198  22.365  30.489  0.00  0.00    +0.000 OA
ENDROOT
TORSDOF 0
ENDMDL
MODEL 7
REMARK VINA RESULT:      -6.4     20.742     22.004
REMARK  Name = 
REMARK  0 active torsions:
REMARK  status: ('A' for Active; 'I' for Inactive)
REMARK                            x       y       z     vdW  Elec       q    Type
REMARK                         _______ _______ _______ _____ _____    ______ ____
ROOT
ATOM      1  C   UNL     1      25.381   1.559  16.884  0.00  0.00    +0.000 C 
ATOM      2  C   UNL     1      24.160   2.087  17.433  0.00  0.00    +0.000 C 
ATOM      3  C   UNL     1      24.158   2.807  18.695  0.00  0.00    +0.000 C 
ATOM      4  C   UNL     1      24.191   4.331  18.457  0.00  0.00    +0.000 C 
ATOM      5  C   UNL     1      25.142   4.586  17.270  0.00  0.00    +0.000 A 
ATOM      6  C   UNL     1      24.802   3.937  16.117  0.00  0.00    +0.000 A 
ATOM      7  S   UNL     1      25.942   4.360  15.047  0.00  0.00    +0.000 S 
ATOM      8  C   UNL     1      26.922   5.392  16.005  0.00  0.00    +0.000 A 
ATOM      9  C   UNL     1      28.075   6.155  15.862  0.00  0.00    +0.000 A 
ATOM     10  C   UNL     1      28.619   6.903  16.885  0.00  0.00    +0.000 A 
ATOM     11  O   UNL     1      29.753   7.651  16.739  0.00  0.00    +0.000 OA
ATOM     12  C   UNL     1      27.946   6.853  18.080  0.00  0.00    +0.000 A 
ATOM     13  C   UNL     1      26.817   6.124  18.272  0.00  0.00    +0.000 A 
ATOM     14  C   UNL     1      26.277   5.364  17.208  0.00  0.00    +0.000 A 
ATOM     15  C   UNL     1      23.465   3.125  16.411  0.00  0.00    +0.000 C 
ATOM     16  C   UNL     1      23.618   2.006  15.242  0.00  0.00    +0.000 C 
ATOM     17  C   UNL     1      22.506   1.231  15.859  0.00  0.00    +0.000 C 
ATOM     18  C   UNL     1      22.995   0.954  17.398  0.00  0.00    +0.000 C 
ATOM     19  O   UNL     1      21.964   1.887  17.995  0.00  0.00    +0.000 OA
ENDROOT
TORSDOF 0
ENDMDL
MODEL 8
REMARK VINA RESULT:      -6.1     19.961     21.170
REMARK  Name = 
REMARK  0 active torsions:
REMARK  status: ('A' for Active; 'I' for Inactive)
REMARK                            x       y       z     vdW  Elec       q    Type
REMARK                         _______ _______ _______ _____ _____    ______ ____
ROOT
ATOM      1  C   UNL     1      26.436   6.973  14.987  0.00  0.00    +0.000 C 
ATOM      2  C   UNL     1      27.446   6.843  16.004  0.00  0.00    +0.000 C 
ATOM      3  C   UNL     1      27.121   7.028  17.408  0.00  0.00    +0.000 C 
ATOM      4  C   UNL     1      26.878   5.670  18.098  0.00  0.00    +0.000 C 
ATOM      5  C   UNL     1      26.108   4.783  17.099  0.00  0.00    +0.000 A 
ATOM      6  C   UNL     1      26.736   4.596  15.901  0.00  0.00    +0.000 A 
ATOM      7  S   UNL     1      25.735   3.651  15.048  0.00  0.00    +0.000 S 
ATOM      8  C   UNL     1      24.454   3.436  16.167  0.00  0.00    +0.000 A 
ATOM      9  C   UNL     1      23.231   2.778  16.232  0.00  0.00    +0.000 A 
ATOM     10  C   UNL     1      22.410   2.815  17.340  0.00  0.00    +0.000 A 
ATOM     11  O   UNL     1      21.208   2.166  17.398  0.00  0.00    +0.000 OA
ATOM     12  C   UNL     1      22.875   3.553  18.399  0.00  0.00    +0.000 A 
ATOM     13  C   UNL     1      24.060   4.213  18.388  0.00  0.00    +0.000 A 
ATOM     14  C   UNL     1      24.887   4.161  17.241  0.00  0.00    +0.000 A 
ATOM     15  C   UNL     1      28.120   5.378  15.968  0.00  0.00    +0.000 C 
ATOM     16  C   UNL     1      28.349   5.572  14.370  0.00  0.00    +0.000 C 
ATOM     17  C   UNL     1      29.455   6.526  14.660  0.00  0.00    +0.000 C 
ATOM     18  C   UNL     1      28.771   7.689  15.588  0.00  0.00    +0.000 C 
ATOM     19  O   UNL     1      29.521   7.270  16.834  0.00  0.00    +0.000 OA
ENDROOT
TORSDOF 0
ENDMDL
MODEL 9
REMARK VINA RESULT:      -5.5     38.209     39.534
REMARK  Name = 
REMARK  0 active torsions:
REMARK  status: ('A' for Active; 'I' for Inactive)
REMARK                            x       y       z     vdW  Elec       q    Type
REMARK                         _______ _______ _______ _____ _____    ______ ____
ROOT
ATOM      1  C   UNL     1       4.116  -7.010  20.204  0.00  0.00    +0.000 C 
ATOM      2  C   UNL     1       4.630  -7.035  21.548  0.00  0.00    +0.000 C 
ATOM      3  C   UNL     1       5.283  -5.870  22.120  0.00  0.00    +0.000 C 
ATOM      4  C   UNL     1       4.296  -5.057  22.984  0.00  0.00    +0.000 C 
ATOM      5  C   UNL     1       2.938  -5.067  22.255  0.00  0.00    +0.000 A 
ATOM      6  C   UNL     1       2.432  -6.312  22.008  0.00  0.00    +0.000 A 
ATOM      7  S   UNL     1       1.029  -6.050  21.244  0.00  0.00    +0.000 S 
ATOM      8  C   UNL     1       1.000  -4.336  21.192  0.00  0.00    +0.000 A 
ATOM      9  C   UNL     1       0.170  -3.325  20.722  0.00  0.00    +0.000 A 
ATOM     10  C   UNL     1       0.462  -1.983  20.853  0.00  0.00    +0.000 A 
ATOM     11  O   UNL     1      -0.358  -0.993  20.388  0.00  0.00    +0.000 OA
ATOM     12  C   UNL     1       1.645  -1.692  21.485  0.00  0.00    +0.000 A 
ATOM     13  C   UNL     1       2.491  -2.640  21.962  0.00  0.00    +0.000 A 
ATOM     14  C   UNL     1       2.170  -4.010  21.817  0.00  0.00    +0.000 A 
ATOM     15  C   UNL     1       3.461  -7.366  22.610  0.00  0.00    +0.000 C 
ATOM     16  C   UNL     1       3.047  -8.640  21.689  0.00  0.00    +0.000 C 
ATOM     17  C   UNL     1       4.256  -9.363  22.171  0.00  0.00    +0.000 C 
ATOM     18  C   UNL     1       5.510  -8.381  21.786  0.00  0.00    +0.000 C 
ATOM     19  O   UNL     1       5.801  -8.027  23.228  0.00  0.00    +0.000 OA
ENDROOT
TORSDOF 0
ENDMDL
MODEL 10
REMARK VINA RESULT:      -5.4      3.850      6.504
REMARK  Name = 
REMARK  0 active torsions:
REMARK  status: ('A' for Active; 'I' for Inactive)
REMARK                            x       y       z     vdW  Elec       q    Type
REMARK                         _______ _______ _______ _____ _____    ______ ____
ROOT
ATOM      1  C   UNL     1      28.702  25.143  27.305  0.00  0.00    +0.000 C 
ATOM      2  C   UNL     1      28.334  24.088  28.213  0.00  0.00    +0.000 C 
ATOM      3  C   UNL     1      27.441  24.343  29.330  0.00  0.00    +0.000 C 
ATOM      4  C   UNL     1      25.994  23.944  28.977  0.00  0.00    +0.000 C 
ATOM      5  C   UNL     1      25.751  24.359  27.512  0.00  0.00    +0.000 A 
ATOM      6  C   UNL     1      26.622  23.811  26.613  0.00  0.00    +0.000 A 
ATOM      7  S   UNL     1      26.163  24.399  25.176  0.00  0.00    +0.000 S 
ATOM      8  C   UNL     1      24.831  25.378  25.633  0.00  0.00    +0.000 A 
ATOM      9  C   UNL     1      23.897  26.210  25.026  0.00  0.00    +0.000 A 
ATOM     10  C   UNL     1      22.912  26.877  25.723  0.00  0.00    +0.000 A 
ATOM     11  O   UNL     1      21.996  27.694  25.121  0.00  0.00    +0.000 OA
ATOM     12  C   UNL     1      22.903  26.673  27.080  0.00  0.00    +0.000 A 
ATOM     13  C   UNL     1      23.791  25.872  27.722  0.00  0.00    +0.000 A 
ATOM     14  C   UNL     1      24.793  25.197  26.986  0.00  0.00    +0.000 A 
ATOM     15  C   UNL     1      27.615  22.874  27.430  0.00  0.00    +0.000 C 
ATOM     16  C   UNL     1      28.852  22.880  26.376  0.00  0.00    +0.000 C 
ATOM     17  C   UNL     1      29.717  22.247  27.410  0.00  0.00    +0.000 C 
ATOM     18  C   UNL     1      29.657  23.271  28.687  0.00  0.00    +0.000 C 
ATOM     19  O   UNL     1      28.852  22.314  29.540  0.00  0.00    +0.000 OA
ENDROOT
TORSDOF 0
ENDMDL
