MODEL 1
REMARK VINA RESULT:      -7.4      0.000      0.000
REMARK  Name = 
REMARK  7 active torsions:
REMARK  status: ('A' for Active; 'I' for Inactive)
REMARK    1  A    between atoms: O_2  and  C_3
REMARK    2  A    between atoms: C_9  and  C_10
REMARK    3  A    between atoms: N_13  and  C_14
REMARK    4  A    between atoms: C_14  and  C_15
REMARK    5  A    between atoms: C_15  and  C_17
REMARK    6  A    between atoms: C_17  and  O_18
REMARK    7  A    between atoms: O_18  and  C_19
REMARK                            x       y       z     vdW  Elec       q    Type
REMARK                         _______ _______ _______ _____ _____    ______ ____
ROOT
ATOM      1  C   UNL     1      36.454   3.168  15.552  0.00  0.00    +0.000 C 
ATOM      2  C   UNL     1      35.838   3.618  14.286  0.00  0.00    +0.000 C 
ATOM      3  C   UNL     1      36.881   3.829  13.226  0.00  0.00    +0.000 C 
ATOM      4  N   UNL     1      37.857   4.776  13.807  0.00  0.00    +0.000 NA
ATOM      5  C   UNL     1      38.704   3.888  14.629  0.00  0.00    +0.000 C 
ATOM      6  C   UNL     1      37.865   3.480  15.806  0.00  0.00    +0.000 C 
ENDROOT
BRANCH   1  13
ATOM      7  C   UNL     1      36.373  -1.761  15.123  0.00  0.00    +0.000 A 
ATOM      8  C   UNL     1      35.830  -2.900  15.590  0.00  0.00    +0.000 A 
ATOM      9  C   UNL     1      34.895  -2.950  16.584  0.00  0.00    +0.000 A 
ATOM     10  C   UNL     1      34.510  -1.725  17.118  0.00  0.00    +0.000 A 
ATOM     11  C   UNL     1      35.072  -0.536  16.636  0.00  0.00    +0.000 A 
ATOM     12  S   UNL     1      34.896   1.143  16.996  0.00  0.00    +0.000 S 
ATOM     13  C   UNL     1      36.003   1.795  15.880  0.00  0.00    +0.000 A 
ATOM     14  C   UNL     1      36.475   0.684  15.262  0.00  0.00    +0.000 A 
ATOM     15  C   UNL     1      36.006  -0.514  15.641  0.00  0.00    +0.000 A 
BRANCH   7  17
ATOM     16  C   UNL     1      37.745  -3.063  13.554  0.00  0.00    +0.000 C 
ATOM     17  O   UNL     1      37.327  -1.830  14.097  0.00  0.00    +0.000 OA
ENDBRANCH   7  17
ENDBRANCH   1  13
BRANCH   4  18
ATOM     18  C   UNL     1      37.131   5.625  14.672  0.00  0.00    +0.000 C 
BRANCH  18  19
ATOM     19  C   UNL     1      37.395   7.195  14.244  0.00  0.00    +0.000 C 
ATOM     20  O   UNL     1      38.396   6.818  13.101  0.00  0.00    +0.000 OA
BRANCH  19  21
ATOM     21  C   UNL     1      38.628   7.458  15.321  0.00  0.00    +0.000 C 
BRANCH  21  22
ATOM     22  O   UNL     1      37.996   6.997  16.504  0.00  0.00    +0.000 OA
BRANCH  22  23
ATOM     23  C   UNL     1      38.739   6.907  17.653  0.00  0.00    +0.000 A 
ATOM     24  C   UNL     1      39.845   6.098  17.663  0.00  0.00    +0.000 A 
ATOM     25  C   UNL     1      40.611   5.995  18.818  0.00  0.00    +0.000 A 
ATOM     26  C   UNL     1      40.225   6.720  19.932  0.00  0.00    +0.000 A 
ATOM     27  C   UNL     1      39.115   7.536  19.935  0.00  0.00    +0.000 A 
ATOM     28  N   UNL     1      38.499   8.344  20.829  0.00  0.00    +0.000 NA
ATOM     29  C   UNL     1      37.421   8.927  20.301  0.00  0.00    +0.000 A 
ATOM     30  C   UNL     1      37.309   8.489  18.994  0.00  0.00    +0.000 A 
ATOM     31  C   UNL     1      38.375   7.615  18.763  0.00  0.00    +0.000 A 
ENDBRANCH  22  23
ENDBRANCH  21  22
ENDBRANCH  19  21
ENDBRANCH  18  19
ENDBRANCH   4  18
TORSDOF 7
ENDMDL
MODEL 2
REMARK VINA RESULT:      -7.3     24.392     27.588
REMARK  Name = 
REMARK  7 active torsions:
REMARK  status: ('A' for Active; 'I' for Inactive)
REMARK    1  A    between atoms: O_2  and  C_3
REMARK    2  A    between atoms: C_9  and  C_10
REMARK    3  A    between atoms: N_13  and  C_14
REMARK    4  A    between atoms: C_14  and  C_15
REMARK    5  A    between atoms: C_15  and  C_17
REMARK    6  A    between atoms: C_17  and  O_18
REMARK    7  A    between atoms: O_18  and  C_19
REMARK                            x       y       z     vdW  Elec       q    Type
REMARK                         _______ _______ _______ _____ _____    ______ ____
ROOT
ATOM      1  C   UNL     1      26.726  13.430  40.272  0.00  0.00    +0.000 C 
ATOM      2  C   UNL     1      27.770  14.385  39.842  0.00  0.00    +0.000 C 
ATOM      3  C   UNL     1      27.780  15.600  40.725  0.00  0.00    +0.000 C 
ATOM      4  N   UNL     1      26.403  16.136  40.685  0.00  0.00    +0.000 NA
ATOM      5  C   UNL     1      25.708  15.283  41.672  0.00  0.00    +0.000 C 
ATOM      6  C   UNL     1      25.578  13.928  41.036  0.00  0.00    +0.000 C 
ENDROOT
BRANCH   1  13
ATOM      7  C   UNL     1      26.741   8.768  41.933  0.00  0.00    +0.000 A 
ATOM      8  C   UNL     1      27.514   7.737  42.316  0.00  0.00    +0.000 A 
ATOM      9  C   UNL     1      28.879   7.771  42.340  0.00  0.00    +0.000 A 
ATOM     10  C   UNL     1      29.463   8.966  41.933  0.00  0.00    +0.000 A 
ATOM     11  C   UNL     1      28.663  10.043  41.532  0.00  0.00    +0.000 A 
ATOM     12  S   UNL     1      28.953  11.649  40.971  0.00  0.00    +0.000 S 
ATOM     13  C   UNL     1      27.349  12.170  40.744  0.00  0.00    +0.000 A 
ATOM     14  C   UNL     1      26.637  11.077  41.113  0.00  0.00    +0.000 A 
ATOM     15  C   UNL     1      27.300   9.983  41.518  0.00  0.00    +0.000 A 
BRANCH   7  17
ATOM     16  C   UNL     1      24.635   8.414  43.151  0.00  0.00    +0.000 C 
ATOM     17  O   UNL     1      25.346   8.620  41.949  0.00  0.00    +0.000 OA
ENDBRANCH   7  17
ENDBRANCH   1  13
BRANCH   4  18
ATOM     18  C   UNL     1      25.890  15.841  39.403  0.00  0.00    +0.000 C 
BRANCH  18  19
ATOM     19  C   UNL     1      25.597  17.249  38.596  0.00  0.00    +0.000 C 
ATOM     20  O   UNL     1      24.240  17.504  39.333  0.00  0.00    +0.000 OA
BRANCH  19  21
ATOM     21  C   UNL     1      24.833  16.544  37.304  0.00  0.00    +0.000 C 
BRANCH  21  22
ATOM     22  O   UNL     1      25.814  16.775  36.307  0.00  0.00    +0.000 OA
BRANCH  22  23
ATOM     23  C   UNL     1      25.594  16.294  35.043  0.00  0.00    +0.000 A 
ATOM     24  C   UNL     1      25.840  14.970  34.787  0.00  0.00    +0.000 A 
ATOM     25  C   UNL     1      25.621  14.464  33.512  0.00  0.00    +0.000 A 
ATOM     26  C   UNL     1      25.157  15.323  32.531  0.00  0.00    +0.000 A 
ATOM     27  C   UNL     1      24.906  16.656  32.775  0.00  0.00    +0.000 A 
ATOM     28  N   UNL     1      24.464  17.714  32.056  0.00  0.00    +0.000 NA
ATOM     29  C   UNL     1      24.400  18.819  32.800  0.00  0.00    +0.000 A 
ATOM     30  C   UNL     1      24.818  18.488  34.077  0.00  0.00    +0.000 A 
ATOM     31  C   UNL     1      25.136  17.126  34.061  0.00  0.00    +0.000 A 
ENDBRANCH  22  23
ENDBRANCH  21  22
ENDBRANCH  19  21
ENDBRANCH  18  19
ENDBRANCH   4  18
TORSDOF 7
ENDMDL
MODEL 3
REMARK VINA RESULT:      -7.3      5.212      8.361
REMARK  Name = 
REMARK  7 active torsions:
REMARK  status: ('A' for Active; 'I' for Inactive)
REMARK    1  A    between atoms: O_2  and  C_3
REMARK    2  A    between atoms: C_9  and  C_10
REMARK    3  A    between atoms: N_13  and  C_14
REMARK    4  A    between atoms: C_14  and  C_15
REMARK    5  A    between atoms: C_15  and  C_17
REMARK    6  A    between atoms: C_17  and  O_18
REMARK    7  A    between atoms: O_18  and  C_19
REMARK                            x       y       z     vdW  Elec       q    Type
REMARK                         _______ _______ _______ _____ _____    ______ ____
ROOT
ATOM      1  C   UNL     1      39.107  -0.196  14.826  0.00  0.00    +0.000 C 
ATOM      2  C   UNL     1      37.876  -1.005  14.698  0.00  0.00    +0.000 C 
ATOM      3  C   UNL     1      36.900  -0.350  13.762  0.00  0.00    +0.000 C 
ATOM      4  N   UNL     1      36.688   1.014  14.293  0.00  0.00    +0.000 NA
ATOM      5  C   UNL     1      37.861   1.740  13.763  0.00  0.00    +0.000 C 
ATOM      6  C   UNL     1      39.047   1.241  14.537  0.00  0.00    +0.000 C 
ENDROOT
BRANCH   1  13
ATOM      7  C   UNL     1      43.911  -1.177  14.158  0.00  0.00    +0.000 A 
ATOM      8  C   UNL     1      44.797  -1.998  13.565  0.00  0.00    +0.000 A 
ATOM      9  C   UNL     1      44.450  -3.057  12.776  0.00  0.00    +0.000 A 
ATOM     10  C   UNL     1      43.086  -3.262  12.603  0.00  0.00    +0.000 A 
ATOM     11  C   UNL     1      42.159  -2.412  13.217  0.00  0.00    +0.000 A 
ATOM     12  S   UNL     1      40.437  -2.303  13.273  0.00  0.00    +0.000 S 
ATOM     13  C   UNL     1      40.266  -0.941  14.280  0.00  0.00    +0.000 A 
ATOM     14  C   UNL     1      41.556  -0.614  14.540  0.00  0.00    +0.000 A 
ATOM     15  C   UNL     1      42.532  -1.359  14.001  0.00  0.00    +0.000 A 
BRANCH   7  17
ATOM     16  C   UNL     1      45.202  -0.342  16.076  0.00  0.00    +0.000 C 
ATOM     17  O   UNL     1      44.383  -0.119  14.948  0.00  0.00    +0.000 OA
ENDBRANCH   7  17
ENDBRANCH   1  13
BRANCH   4  18
ATOM     18  C   UNL     1      36.817   0.926  15.697  0.00  0.00    +0.000 C 
BRANCH  18  19
ATOM     19  C   UNL     1      35.322   0.745  16.370  0.00  0.00    +0.000 C 
ATOM     20  O   UNL     1      35.102   2.286  16.537  0.00  0.00    +0.000 OA
BRANCH  19  21
ATOM     21  C   UNL     1      35.860   0.592  17.932  0.00  0.00    +0.000 C 
BRANCH  21  22
ATOM     22  O   UNL     1      35.473  -0.751  18.173  0.00  0.00    +0.000 OA
BRANCH  22  23
ATOM     23  C   UNL     1      36.423  -1.735  18.087  0.00  0.00    +0.000 A 
ATOM     24  C   UNL     1      37.542  -1.644  18.872  0.00  0.00    +0.000 A 
ATOM     25  C   UNL     1      38.516  -2.633  18.799  0.00  0.00    +0.000 A 
ATOM     26  C   UNL     1      38.320  -3.689  17.926  0.00  0.00    +0.000 A 
ATOM     27  C   UNL     1      37.199  -3.791  17.131  0.00  0.00    +0.000 A 
ATOM     28  N   UNL     1      36.731  -4.667  16.210  0.00  0.00    +0.000 NA
ATOM     29  C   UNL     1      35.551  -4.281  15.723  0.00  0.00    +0.000 A 
ATOM     30  C   UNL     1      35.211  -3.093  16.345  0.00  0.00    +0.000 A 
ATOM     31  C   UNL     1      36.248  -2.785  17.231  0.00  0.00    +0.000 A 
ENDBRANCH  22  23
ENDBRANCH  21  22
ENDBRANCH  19  21
ENDBRANCH  18  19
ENDBRANCH   4  18
TORSDOF 7
ENDMDL
MODEL 4
REMARK VINA RESULT:      -7.2     24.023     26.778
REMARK  Name = 
REMARK  7 active torsions:
REMARK  status: ('A' for Active; 'I' for Inactive)
REMARK    1  A    between atoms: O_2  and  C_3
REMARK    2  A    between atoms: C_9  and  C_10
REMARK    3  A    between atoms: N_13  and  C_14
REMARK    4  A    between atoms: C_14  and  C_15
REMARK    5  A    between atoms: C_15  and  C_17
REMARK    6  A    between atoms: C_17  and  O_18
REMARK    7  A    between atoms: O_18  and  C_19
REMARK                            x       y       z     vdW  Elec       q    Type
REMARK                         _______ _______ _______ _____ _____    ______ ____
ROOT
ATOM      1  C   UNL     1      11.930   0.916  26.454  0.00  0.00    +0.000 C 
ATOM      2  C   UNL     1      12.223  -0.502  26.156  0.00  0.00    +0.000 C 
ATOM      3  C   UNL     1      12.544  -1.259  27.414  0.00  0.00    +0.000 C 
ATOM      4  N   UNL     1      13.655  -0.522  28.053  0.00  0.00    +0.000 NA
ATOM      5  C   UNL     1      12.944   0.569  28.752  0.00  0.00    +0.000 C 
ATOM      6  C   UNL     1      12.466   1.510  27.684  0.00  0.00    +0.000 C 
ENDROOT
BRANCH   1  13
ATOM      7  C   UNL     1       7.604   3.267  26.954  0.00  0.00    +0.000 A 
ATOM      8  C   UNL     1       6.354   3.391  26.472  0.00  0.00    +0.000 A 
ATOM      9  C   UNL     1       5.863   2.667  25.424  0.00  0.00    +0.000 A 
ATOM     10  C   UNL     1       6.745   1.758  24.849  0.00  0.00    +0.000 A 
ATOM     11  C   UNL     1       8.047   1.625  25.345  0.00  0.00    +0.000 A 
ATOM     12  S   UNL     1       9.422   0.660  24.949  0.00  0.00    +0.000 S 
ATOM     13  C   UNL     1      10.519   1.227  26.120  0.00  0.00    +0.000 A 
ATOM     14  C   UNL     1       9.779   2.150  26.783  0.00  0.00    +0.000 A 
ATOM     15  C   UNL     1       8.513   2.361  26.395  0.00  0.00    +0.000 A 
BRANCH   7  17
ATOM     16  C   UNL     1       7.765   5.456  28.061  0.00  0.00    +0.000 C 
ATOM     17  O   UNL     1       8.001   4.065  28.037  0.00  0.00    +0.000 OA
ENDBRANCH   7  17
ENDBRANCH   1  13
BRANCH   4  18
ATOM     18  C   UNL     1      14.419   0.044  27.009  0.00  0.00    +0.000 C 
BRANCH  18  19
ATOM     19  C   UNL     1      16.002   0.111  27.466  0.00  0.00    +0.000 C 
ATOM     20  O   UNL     1      16.291   1.402  26.631  0.00  0.00    +0.000 OA
BRANCH  19  21
ATOM     21  C   UNL     1      16.567  -0.872  26.256  0.00  0.00    +0.000 C 
BRANCH  21  22
ATOM     22  O   UNL     1      17.602  -0.042  25.756  0.00  0.00    +0.000 OA
BRANCH  22  23
ATOM     23  C   UNL     1      18.491  -0.570  24.855  0.00  0.00    +0.000 A 
ATOM     24  C   UNL     1      18.495  -1.924  24.647  0.00  0.00    +0.000 A 
ATOM     25  C   UNL     1      19.388  -2.478  23.737  0.00  0.00    +0.000 A 
ATOM     26  C   UNL     1      20.254  -1.632  23.065  0.00  0.00    +0.000 A 
ATOM     27  C   UNL     1      20.260  -0.269  23.266  0.00  0.00    +0.000 A 
ATOM     28  N   UNL     1      20.955   0.786  22.782  0.00  0.00    +0.000 NA
ATOM     29  C   UNL     1      20.550   1.933  23.330  0.00  0.00    +0.000 A 
ATOM     30  C   UNL     1      19.537   1.633  24.223  0.00  0.00    +0.000 A 
ATOM     31  C   UNL     1      19.354   0.247  24.182  0.00  0.00    +0.000 A 
ENDBRANCH  22  23
ENDBRANCH  21  22
ENDBRANCH  19  21
ENDBRANCH  18  19
ENDBRANCH   4  18
TORSDOF 7
ENDMDL
MODEL 5
REMARK VINA RESULT:      -7.2      4.777      7.677
REMARK  Name = 
REMARK  7 active torsions:
REMARK  status: ('A' for Active; 'I' for Inactive)
REMARK    1  A    between atoms: O_2  and  C_3
REMARK    2  A    between atoms: C_9  and  C_10
REMARK    3  A    between atoms: N_13  and  C_14
REMARK    4  A    between atoms: C_14  and  C_15
REMARK    5  A    between atoms: C_15  and  C_17
REMARK    6  A    between atoms: C_17  and  O_18
REMARK    7  A    between atoms: O_18  and  C_19
REMARK                            x       y       z     vdW  Elec       q    Type
REMARK                         _______ _______ _______ _____ _____    ______ ____
ROOT
ATOM      1  C   UNL     1      38.592  -1.833  15.288  0.00  0.00    +0.000 C 
ATOM      2  C   UNL     1      38.996  -2.295  16.633  0.00  0.00    +0.000 C 
ATOM      3  C   UNL     1      38.084  -3.382  17.123  0.00  0.00    +0.000 C 
ATOM      4  N   UNL     1      36.717  -2.822  17.049  0.00  0.00    +0.000 NA
ATOM      5  C   UNL     1      36.376  -3.018  15.625  0.00  0.00    +0.000 C 
ATOM      6  C   UNL     1      37.204  -2.029  14.856  0.00  0.00    +0.000 C 
ENDROOT
BRANCH   1  13
ATOM      7  C   UNL     1      43.248  -2.229  13.657  0.00  0.00    +0.000 A 
ATOM      8  C   UNL     1      44.027  -2.587  12.620  0.00  0.00    +0.000 A 
ATOM      9  C   UNL     1      43.548  -3.058  11.431  0.00  0.00    +0.000 A 
ATOM     10  C   UNL     1      42.164  -3.157  11.331  0.00  0.00    +0.000 A 
ATOM     11  C   UNL     1      41.349  -2.786  12.406  0.00  0.00    +0.000 A 
ATOM     12  S   UNL     1      39.650  -2.749  12.707  0.00  0.00    +0.000 S 
ATOM     13  C   UNL     1      39.651  -2.148  14.300  0.00  0.00    +0.000 A 
ATOM     14  C   UNL     1      40.975  -1.994  14.547  0.00  0.00    +0.000 A 
ATOM     15  C   UNL     1      41.853  -2.318  13.585  0.00  0.00    +0.000 A 
BRANCH   7  17
ATOM     16  C   UNL     1      44.311  -0.429  14.950  0.00  0.00    +0.000 C 
ATOM     17  O   UNL     1      43.850  -1.758  14.833  0.00  0.00    +0.000 OA
ENDBRANCH   7  17
ENDBRANCH   1  13
BRANCH   4  18
ATOM     18  C   UNL     1      36.834  -1.436  17.292  0.00  0.00    +0.000 C 
BRANCH  18  19
ATOM     19  C   UNL     1      35.953  -1.040  18.628  0.00  0.00    +0.000 C 
ATOM     20  O   UNL     1      34.585  -1.126  17.873  0.00  0.00    +0.000 OA
BRANCH  19  21
ATOM     21  C   UNL     1      36.041   0.601  18.406  0.00  0.00    +0.000 C 
BRANCH  21  22
ATOM     22  O   UNL     1      36.542   0.623  17.080  0.00  0.00    +0.000 OA
BRANCH  22  23
ATOM     23  C   UNL     1      36.106   1.606  16.229  0.00  0.00    +0.000 A 
ATOM     24  C   UNL     1      34.847   2.118  16.400  0.00  0.00    +0.000 A 
ATOM     25  C   UNL     1      34.388   3.116  15.548  0.00  0.00    +0.000 A 
ATOM     26  C   UNL     1      35.229   3.562  14.543  0.00  0.00    +0.000 A 
ATOM     27  C   UNL     1      36.496   3.055  14.360  0.00  0.00    +0.000 A 
ATOM     28  N   UNL     1      37.521   3.273  13.504  0.00  0.00    +0.000 NA
ATOM     29  C   UNL     1      38.562   2.484  13.774  0.00  0.00    +0.000 A 
ATOM     30  C   UNL     1      38.220   1.701  14.862  0.00  0.00    +0.000 A 
ATOM     31  C   UNL     1      36.920   2.060  15.231  0.00  0.00    +0.000 A 
ENDBRANCH  22  23
ENDBRANCH  21  22
ENDBRANCH  19  21
ENDBRANCH  18  19
ENDBRANCH   4  18
TORSDOF 7
ENDMDL
MODEL 6
REMARK VINA RESULT:      -7.1      2.460      3.622
REMARK  Name = 
REMARK  7 active torsions:
REMARK  status: ('A' for Active; 'I' for Inactive)
REMARK    1  A    between atoms: O_2  and  C_3
REMARK    2  A    between atoms: C_9  and  C_10
REMARK    3  A    between atoms: N_13  and  C_14
REMARK    4  A    between atoms: C_14  and  C_15
REMARK    5  A    between atoms: C_15  and  C_17
REMARK    6  A    between atoms: C_17  and  O_18
REMARK    7  A    between atoms: O_18  and  C_19
REMARK                            x       y       z     vdW  Elec       q    Type
REMARK                         _______ _______ _______ _____ _____    ______ ____
ROOT
ATOM      1  C   UNL     1      37.540   0.223  15.519  0.00  0.00    +0.000 C 
ATOM      2  C   UNL     1      36.482   0.961  16.242  0.00  0.00    +0.000 C 
ATOM      3  C   UNL     1      35.481   1.539  15.283  0.00  0.00    +0.000 C 
ATOM      4  N   UNL     1      36.263   2.358  14.332  0.00  0.00    +0.000 NA
ATOM      5  C   UNL     1      36.761   1.342  13.381  0.00  0.00    +0.000 C 
ATOM      6  C   UNL     1      37.810   0.559  14.117  0.00  0.00    +0.000 C 
ENDROOT
BRANCH   1  13
ATOM      7  C   UNL     1      35.483  -4.272  15.739  0.00  0.00    +0.000 A 
ATOM      8  C   UNL     1      35.658  -5.547  16.131  0.00  0.00    +0.000 A 
ATOM      9  C   UNL     1      36.785  -6.010  16.746  0.00  0.00    +0.000 A 
ATOM     10  C   UNL     1      37.790  -5.072  16.958  0.00  0.00    +0.000 A 
ATOM     11  C   UNL     1      37.614  -3.744  16.552  0.00  0.00    +0.000 A 
ATOM     12  S   UNL     1      38.562  -2.303  16.612  0.00  0.00    +0.000 S 
ATOM     13  C   UNL     1      37.485  -1.217  15.864  0.00  0.00    +0.000 A 
ATOM     14  C   UNL     1      36.420  -2.012  15.592  0.00  0.00    +0.000 A 
ATOM     15  C   UNL     1      36.476  -3.306  15.939  0.00  0.00    +0.000 A 
BRANCH   7  17
ATOM     16  C   UNL     1      33.678  -4.721  14.131  0.00  0.00    +0.000 C 
ATOM     17  O   UNL     1      34.281  -3.908  15.115  0.00  0.00    +0.000 OA
ENDBRANCH   7  17
ENDBRANCH   1  13
BRANCH   4  18
ATOM     18  C   UNL     1      37.365   2.872  15.050  0.00  0.00    +0.000 C 
BRANCH  18  19
ATOM     19  C   UNL     1      37.114   4.472  15.363  0.00  0.00    +0.000 C 
ATOM     20  O   UNL     1      38.386   4.927  14.572  0.00  0.00    +0.000 OA
BRANCH  19  21
ATOM     21  C   UNL     1      37.930   4.490  16.806  0.00  0.00    +0.000 C 
BRANCH  21  22
ATOM     22  O   UNL     1      38.852   5.531  16.532  0.00  0.00    +0.000 OA
BRANCH  22  23
ATOM     23  C   UNL     1      39.763   5.874  17.497  0.00  0.00    +0.000 A 
ATOM     24  C   UNL     1      39.370   5.867  18.809  0.00  0.00    +0.000 A 
ATOM     25  C   UNL     1      40.280   6.211  19.802  0.00  0.00    +0.000 A 
ATOM     26  C   UNL     1      41.567   6.553  19.427  0.00  0.00    +0.000 A 
ATOM     27  C   UNL     1      41.975   6.564  18.111  0.00  0.00    +0.000 A 
ATOM     28  N   UNL     1      43.120   6.842  17.445  0.00  0.00    +0.000 NA
ATOM     29  C   UNL     1      42.971   6.692  16.129  0.00  0.00    +0.000 A 
ATOM     30  C   UNL     1      41.666   6.296  15.900  0.00  0.00    +0.000 A 
ATOM     31  C   UNL     1      41.039   6.215  17.147  0.00  0.00    +0.000 A 
ENDBRANCH  22  23
ENDBRANCH  21  22
ENDBRANCH  19  21
ENDBRANCH  18  19
ENDBRANCH   4  18
TORSDOF 7
ENDMDL
MODEL 7
REMARK VINA RESULT:      -7.1      2.705      8.626
REMARK  Name = 
REMARK  7 active torsions:
REMARK  status: ('A' for Active; 'I' for Inactive)
REMARK    1  A    between atoms: O_2  and  C_3
REMARK    2  A    between atoms: C_9  and  C_10
REMARK    3  A    between atoms: N_13  and  C_14
REMARK    4  A    between atoms: C_14  and  C_15
REMARK    5  A    between atoms: C_15  and  C_17
REMARK    6  A    between atoms: C_17  and  O_18
REMARK    7  A    between atoms: O_18  and  C_19
REMARK                            x       y       z     vdW  Elec       q    Type
REMARK                         _______ _______ _______ _____ _____    ______ ____
ROOT
ATOM      1  C   UNL     1      38.950   4.638  16.686  0.00  0.00    +0.000 C 
ATOM      2  C   UNL     1      39.647   5.112  15.471  0.00  0.00    +0.000 C 
ATOM      3  C   UNL     1      38.720   5.114  14.289  0.00  0.00    +0.000 C 
ATOM      4  N   UNL     1      38.187   3.738  14.195  0.00  0.00    +0.000 NA
ATOM      5  C   UNL     1      37.098   3.756  15.195  0.00  0.00    +0.000 C 
ATOM      6  C   UNL     1      37.766   3.785  16.540  0.00  0.00    +0.000 C 
ENDROOT
BRANCH   1  13
ATOM      7  C   UNL     1      37.324   8.927  18.543  0.00  0.00    +0.000 A 
ATOM      8  C   UNL     1      37.404   9.781  19.580  0.00  0.00    +0.000 A 
ATOM      9  C   UNL     1      38.199   9.586  20.672  0.00  0.00    +0.000 A 
ATOM     10  C   UNL     1      38.955   8.418  20.672  0.00  0.00    +0.000 A 
ATOM     11  C   UNL     1      38.876   7.526  19.596  0.00  0.00    +0.000 A 
ATOM     12  S   UNL     1      39.608   6.015  19.194  0.00  0.00    +0.000 S 
ATOM     13  C   UNL     1      38.870   5.728  17.687  0.00  0.00    +0.000 A 
ATOM     14  C   UNL     1      38.078   6.819  17.544  0.00  0.00    +0.000 A 
ATOM     15  C   UNL     1      38.073   7.745  18.515  0.00  0.00    +0.000 A 
BRANCH   7  17
ATOM     16  C   UNL     1      35.239   9.890  17.667  0.00  0.00    +0.000 C 
ATOM     17  O   UNL     1      36.472   9.231  17.472  0.00  0.00    +0.000 OA
ENDBRANCH   7  17
ENDBRANCH   1  13
BRANCH   4  18
ATOM     18  C   UNL     1      39.204   2.876  14.662  0.00  0.00    +0.000 C 
BRANCH  18  19
ATOM     19  C   UNL     1      39.781   1.982  13.403  0.00  0.00    +0.000 C 
ATOM     20  O   UNL     1      38.371   1.413  13.032  0.00  0.00    +0.000 OA
BRANCH  19  21
ATOM     21  C   UNL     1      40.152   0.642  14.306  0.00  0.00    +0.000 C 
BRANCH  21  22
ATOM     22  O   UNL     1      38.902   0.447  14.947  0.00  0.00    +0.000 OA
BRANCH  22  23
ATOM     23  C   UNL     1      38.646  -0.764  15.534  0.00  0.00    +0.000 A 
ATOM     24  C   UNL     1      39.638  -1.708  15.563  0.00  0.00    +0.000 A 
ATOM     25  C   UNL     1      39.396  -2.942  16.156  0.00  0.00    +0.000 A 
ATOM     26  C   UNL     1      38.147  -3.177  16.704  0.00  0.00    +0.000 A 
ATOM     27  C   UNL     1      37.142  -2.236  16.681  0.00  0.00    +0.000 A 
ATOM     28  N   UNL     1      35.861  -2.164  17.115  0.00  0.00    +0.000 NA
ATOM     29  C   UNL     1      35.313  -0.983  16.829  0.00  0.00    +0.000 A 
ATOM     30  C   UNL     1      36.268  -0.227  16.173  0.00  0.00    +0.000 A 
ATOM     31  C   UNL     1      37.419  -1.016  16.081  0.00  0.00    +0.000 A 
ENDBRANCH  22  23
ENDBRANCH  21  22
ENDBRANCH  19  21
ENDBRANCH  18  19
ENDBRANCH   4  18
TORSDOF 7
ENDMDL
MODEL 8
REMARK VINA RESULT:      -7.0      1.782      2.495
REMARK  Name = 
REMARK  7 active torsions:
REMARK  status: ('A' for Active; 'I' for Inactive)
REMARK    1  A    between atoms: O_2  and  C_3
REMARK    2  A    between atoms: C_9  and  C_10
REMARK    3  A    between atoms: N_13  and  C_14
REMARK    4  A    between atoms: C_14  and  C_15
REMARK    5  A    between atoms: C_15  and  C_17
REMARK    6  A    between atoms: C_17  and  O_18
REMARK    7  A    between atoms: O_18  and  C_19
REMARK                            x       y       z     vdW  Elec       q    Type
REMARK                         _______ _______ _______ _____ _____    ______ ____
ROOT
ATOM      1  C   UNL     1      37.875   2.793  15.102  0.00  0.00    +0.000 C 
ATOM      2  C   UNL     1      37.086   3.915  14.551  0.00  0.00    +0.000 C 
ATOM      3  C   UNL     1      37.308   4.050  13.071  0.00  0.00    +0.000 C 
ATOM      4  N   UNL     1      38.770   4.182  12.896  0.00  0.00    +0.000 NA
ATOM      5  C   UNL     1      39.219   2.775  12.951  0.00  0.00    +0.000 C 
ATOM      6  C   UNL     1      39.073   2.345  14.383  0.00  0.00    +0.000 C 
ENDROOT
BRANCH   1  13
ATOM      7  C   UNL     1      36.287  -1.850  15.743  0.00  0.00    +0.000 A 
ATOM      8  C   UNL     1      35.353  -2.627  16.322  0.00  0.00    +0.000 A 
ATOM      9  C   UNL     1      34.328  -2.149  17.086  0.00  0.00    +0.000 A 
ATOM     10  C   UNL     1      34.286  -0.768  17.250  0.00  0.00    +0.000 A 
ATOM     11  C   UNL     1      35.255   0.045  16.650  0.00  0.00    +0.000 A 
ATOM     12  S   UNL     1      35.576   1.740  16.594  0.00  0.00    +0.000 S 
ATOM     13  C   UNL     1      36.971   1.737  15.618  0.00  0.00    +0.000 A 
ATOM     14  C   UNL     1      37.143   0.416  15.367  0.00  0.00    +0.000 A 
ATOM     15  C   UNL     1      36.271  -0.459  15.890  0.00  0.00    +0.000 A 
BRANCH   7  17
ATOM     16  C   UNL     1      37.020  -3.504  14.078  0.00  0.00    +0.000 C 
ATOM     17  O   UNL     1      37.297  -2.452  14.977  0.00  0.00    +0.000 OA
ENDBRANCH   7  17
ENDBRANCH   1  13
BRANCH   4  18
ATOM     18  C   UNL     1      39.257   4.849  14.041  0.00  0.00    +0.000 C 
BRANCH  18  19
ATOM     19  C   UNL     1      39.485   6.444  13.687  0.00  0.00    +0.000 C 
ATOM     20  O   UNL     1      41.042   6.349  13.807  0.00  0.00    +0.000 OA
BRANCH  19  21
ATOM     21  C   UNL     1      39.337   6.983  15.248  0.00  0.00    +0.000 C 
BRANCH  21  22
ATOM     22  O   UNL     1      40.197   6.057  15.890  0.00  0.00    +0.000 OA
BRANCH  22  23
ATOM     23  C   UNL     1      40.407   6.180  17.239  0.00  0.00    +0.000 A 
ATOM     24  C   UNL     1      39.346   6.017  18.091  0.00  0.00    +0.000 A 
ATOM     25  C   UNL     1      39.541   6.137  19.462  0.00  0.00    +0.000 A 
ATOM     26  C   UNL     1      40.814   6.421  19.926  0.00  0.00    +0.000 A 
ATOM     27  C   UNL     1      41.888   6.587  19.079  0.00  0.00    +0.000 A 
ATOM     28  N   UNL     1      43.207   6.861  19.217  0.00  0.00    +0.000 NA
ATOM     29  C   UNL     1      43.822   6.914  18.034  0.00  0.00    +0.000 A 
ATOM     30  C   UNL     1      42.873   6.666  17.059  0.00  0.00    +0.000 A 
ATOM     31  C   UNL     1      41.656   6.460  17.717  0.00  0.00    +0.000 A 
ENDBRANCH  22  23
ENDBRANCH  21  22
ENDBRANCH  19  21
ENDBRANCH  18  19
ENDBRANCH   4  18
TORSDOF 7
ENDMDL
MODEL 9
REMARK VINA RESULT:      -6.9      2.835      8.362
REMARK  Name = 
REMARK  7 active torsions:
REMARK  status: ('A' for Active; 'I' for Inactive)
REMARK    1  A    between atoms: O_2  and  C_3
REMARK    2  A    between atoms: C_9  and  C_10
REMARK    3  A    between atoms: N_13  and  C_14
REMARK    4  A    between atoms: C_14  and  C_15
REMARK    5  A    between atoms: C_15  and  C_17
REMARK    6  A    between atoms: C_17  and  O_18
REMARK    7  A    between atoms: O_18  and  C_19
REMARK                            x       y       z     vdW  Elec       q    Type
REMARK                         _______ _______ _______ _____ _____    ______ ____
ROOT
ATOM      1  C   UNL     1      38.693   4.000  16.068  0.00  0.00    +0.000 C 
ATOM      2  C   UNL     1      39.567   4.325  14.921  0.00  0.00    +0.000 C 
ATOM      3  C   UNL     1      38.796   4.293  13.633  0.00  0.00    +0.000 C 
ATOM      4  N   UNL     1      38.173   2.953  13.572  0.00  0.00    +0.000 NA
ATOM      5  C   UNL     1      36.975   3.126  14.420  0.00  0.00    +0.000 C 
ATOM      6  C   UNL     1      37.473   3.219  15.834  0.00  0.00    +0.000 C 
ENDROOT
BRANCH   1  13
ATOM      7  C   UNL     1      39.885   6.820  19.956  0.00  0.00    +0.000 A 
ATOM      8  C   UNL     1      39.608   7.957  20.620  0.00  0.00    +0.000 A 
ATOM      9  C   UNL     1      38.638   8.842  20.250  0.00  0.00    +0.000 A 
ATOM     10  C   UNL     1      37.916   8.508  19.108  0.00  0.00    +0.000 A 
ATOM     11  C   UNL     1      38.200   7.327  18.413  0.00  0.00    +0.000 A 
ATOM     12  S   UNL     1      37.579   6.551  17.001  0.00  0.00    +0.000 S 
ATOM     13  C   UNL     1      38.575   5.171  16.970  0.00  0.00    +0.000 A 
ATOM     14  C   UNL     1      39.359   5.358  18.060  0.00  0.00    +0.000 A 
ATOM     15  C   UNL     1      39.176   6.458  18.805  0.00  0.00    +0.000 A 
BRANCH   7  17
ATOM     16  C   UNL     1      42.202   6.473  20.701  0.00  0.00    +0.000 C 
ATOM     17  O   UNL     1      40.906   5.983  20.430  0.00  0.00    +0.000 OA
ENDBRANCH   7  17
ENDBRANCH   1  13
BRANCH   4  18
ATOM     18  C   UNL     1      39.056   2.066  14.226  0.00  0.00    +0.000 C 
BRANCH  18  19
ATOM     19  C   UNL     1      39.697   1.021  13.122  0.00  0.00    +0.000 C 
ATOM     20  O   UNL     1      38.652   1.393  12.018  0.00  0.00    +0.000 OA
BRANCH  19  21
ATOM     21  C   UNL     1      38.811  -0.295  13.604  0.00  0.00    +0.000 C 
BRANCH  21  22
ATOM     22  O   UNL     1      38.912  -0.133  15.009  0.00  0.00    +0.000 OA
BRANCH  22  23
ATOM     23  C   UNL     1      38.533  -1.172  15.819  0.00  0.00    +0.000 A 
ATOM     24  C   UNL     1      39.438  -2.166  16.087  0.00  0.00    +0.000 A 
ATOM     25  C   UNL     1      39.072  -3.226  16.907  0.00  0.00    +0.000 A 
ATOM     26  C   UNL     1      37.792  -3.243  17.432  0.00  0.00    +0.000 A 
ATOM     27  C   UNL     1      36.873  -2.251  17.170  0.00  0.00    +0.000 A 
ATOM     28  N   UNL     1      35.591  -1.989  17.519  0.00  0.00    +0.000 NA
ATOM     29  C   UNL     1      35.157  -0.853  16.972  0.00  0.00    +0.000 A 
ATOM     30  C   UNL     1      36.194  -0.328  16.222  0.00  0.00    +0.000 A 
ATOM     31  C   UNL     1      37.274  -1.207  16.347  0.00  0.00    +0.000 A 
ENDBRANCH  22  23
ENDBRANCH  21  22
ENDBRANCH  19  21
ENDBRANCH  18  19
ENDBRANCH   4  18
TORSDOF 7
ENDMDL
MODEL 10
REMARK VINA RESULT:      -6.9      4.175      9.600
REMARK  Name = 
REMARK  7 active torsions:
REMARK  status: ('A' for Active; 'I' for Inactive)
REMARK    1  A    between atoms: O_2  and  C_3
REMARK    2  A    between atoms: C_9  and  C_10
REMARK    3  A    between atoms: N_13  and  C_14
REMARK    4  A    between atoms: C_14  and  C_15
REMARK    5  A    between atoms: C_15  and  C_17
REMARK    6  A    between atoms: C_17  and  O_18
REMARK    7  A    between atoms: O_18  and  C_19
REMARK                            x       y       z     vdW  Elec       q    Type
REMARK                         _______ _______ _______ _____ _____    ______ ____
ROOT
ATOM      1  C   UNL     1      40.759   6.230  19.012  0.00  0.00    +0.000 C 
ATOM      2  C   UNL     1      41.166   6.484  17.614  0.00  0.00    +0.000 C 
ATOM      3  C   UNL     1      40.173   7.371  16.919  0.00  0.00    +0.000 C 
ATOM      4  N   UNL     1      38.864   6.699  17.066  0.00  0.00    +0.000 NA
ATOM      5  C   UNL     1      38.454   7.109  18.425  0.00  0.00    +0.000 C 
ATOM      6  C   UNL     1      39.343   6.360  19.375  0.00  0.00    +0.000 C 
ENDROOT
BRANCH   1  13
ATOM      7  C   UNL     1      44.436   6.127  22.322  0.00  0.00    +0.000 A 
ATOM      8  C   UNL     1      45.247   6.874  23.093  0.00  0.00    +0.000 A 
ATOM      9  C   UNL     1      45.211   8.237  23.145  0.00  0.00    +0.000 A 
ATOM     10  C   UNL     1      44.263   8.851  22.332  0.00  0.00    +0.000 A 
ATOM     11  C   UNL     1      43.417   8.079  21.527  0.00  0.00    +0.000 A 
ATOM     12  S   UNL     1      42.147   8.409  20.405  0.00  0.00    +0.000 S 
ATOM     13  C   UNL     1      41.746   6.820  19.947  0.00  0.00    +0.000 A 
ATOM     14  C   UNL     1      42.614   6.082  20.683  0.00  0.00    +0.000 A 
ATOM     15  C   UNL     1      43.473   6.716  21.494  0.00  0.00    +0.000 A 
BRANCH   7  17
ATOM     16  C   UNL     1      45.696   4.076  21.824  0.00  0.00    +0.000 C 
ATOM     17  O   UNL     1      44.562   4.730  22.350  0.00  0.00    +0.000 OA
ENDBRANCH   7  17
ENDBRANCH   1  13
BRANCH   4  18
ATOM     18  C   UNL     1      39.121   5.310  17.079  0.00  0.00    +0.000 C 
BRANCH  18  19
ATOM     19  C   UNL     1      37.917   4.525  16.269  0.00  0.00    +0.000 C 
ATOM     20  O   UNL     1      37.787   3.402  17.352  0.00  0.00    +0.000 OA
BRANCH  19  21
ATOM     21  C   UNL     1      38.923   3.595  15.336  0.00  0.00    +0.000 C 
BRANCH  21  22
ATOM     22  O   UNL     1      37.983   2.639  14.874  0.00  0.00    +0.000 OA
BRANCH  22  23
ATOM     23  C   UNL     1      38.330   1.313  14.892  0.00  0.00    +0.000 A 
ATOM     24  C   UNL     1      39.595   0.955  14.507  0.00  0.00    +0.000 A 
ATOM     25  C   UNL     1      39.965  -0.385  14.521  0.00  0.00    +0.000 A 
ATOM     26  C   UNL     1      39.032  -1.322  14.928  0.00  0.00    +0.000 A 
ATOM     27  C   UNL     1      37.757  -0.975  15.318  0.00  0.00    +0.000 A 
ATOM     28  N   UNL     1      36.656  -1.631  15.753  0.00  0.00    +0.000 NA
ATOM     29  C   UNL     1      35.651  -0.790  16.003  0.00  0.00    +0.000 A 
ATOM     30  C   UNL     1      36.098   0.489  15.722  0.00  0.00    +0.000 A 
ATOM     31  C   UNL     1      37.424   0.372  15.292  0.00  0.00    +0.000 A 
ENDBRANCH  22  23
ENDBRANCH  21  22
ENDBRANCH  19  21
ENDBRANCH  18  19
ENDBRANCH   4  18
TORSDOF 7
ENDMDL
