MODEL 1
REMARK VINA RESULT:      -6.1      0.000      0.000
REMARK  Name = 
REMARK  3 active torsions:
REMARK  status: ('A' for Active; 'I' for Inactive)
REMARK    1  A    between atoms: C_8  and  N_9
REMARK    2  A    between atoms: C_10  and  C_12
REMARK    3  A    between atoms: C_18  and  N_19
REMARK                            x       y       z     vdW  Elec       q    Type
REMARK                         _______ _______ _______ _____ _____    ______ ____
ROOT
ATOM      1  N   UNL     1      12.443  23.093  20.370  0.00  0.00    +0.000 NA
ATOM      2  C   UNL     1      11.474  22.340  21.075  0.00  0.00    +0.000 C 
ATOM      3  O   UNL     1      11.269  22.649  22.269  0.00  0.00    +0.000 OA
ENDROOT
BRANCH   1  11
ATOM      4  C   UNL     1      14.989  22.567  21.402  0.00  0.00    +0.000 C 
ATOM      5  C   UNL     1      14.428  23.952  21.465  0.00  0.00    +0.000 A 
ATOM      6  C   UNL     1      15.197  24.978  22.053  0.00  0.00    +0.000 A 
ATOM      7  C   UNL     1      14.683  26.243  22.118  0.00  0.00    +0.000 A 
ATOM      8  C   UNL     1      13.413  26.457  21.592  0.00  0.00    +0.000 A 
ATOM      9  C   UNL     1      12.666  25.462  21.022  0.00  0.00    +0.000 A 
ATOM     10  C   UNL     1      11.309  25.758  20.492  0.00  0.00    +0.000 C 
ATOM     11  C   UNL     1      13.176  24.171  20.949  0.00  0.00    +0.000 A 
ENDBRANCH   1  11
BRANCH   2  12
ATOM     12  C   UNL     1      10.765  21.261  20.404  0.00  0.00    +0.000 A 
ATOM     13  C   UNL     1      11.267  19.962  20.435  0.00  0.00    +0.000 A 
ATOM     14  C   UNL     1      10.579  18.879  19.885  0.00  0.00    +0.000 A 
ATOM     15  C   UNL     1       9.342  19.150  19.294  0.00  0.00    +0.000 A 
ATOM     16  C   UNL     1       8.828  20.399  19.249  0.00  0.00    +0.000 A 
ATOM     17  C   UNL     1       7.534  20.705  18.622  0.00  0.00    +0.000 C 
ATOM     18  C   UNL     1       9.561  21.454  19.814  0.00  0.00    +0.000 A 
BRANCH  18  19
ATOM     19  N   UNL     1       9.022  22.789  19.699  0.00  0.00    +0.000 N 
ATOM     20  O   UNL     1       9.280  23.468  18.701  0.00  0.00    +0.000 OA
ATOM     21  O   UNL     1       8.211  23.223  20.757  0.00  0.00    +0.000 OA
ENDBRANCH  18  19
ENDBRANCH   2  12
TORSDOF 3
ENDMDL
MODEL 2
REMARK VINA RESULT:      -6.1     17.649     20.695
REMARK  Name = 
REMARK  3 active torsions:
REMARK  status: ('A' for Active; 'I' for Inactive)
REMARK    1  A    between atoms: C_8  and  N_9
REMARK    2  A    between atoms: C_10  and  C_12
REMARK    3  A    between atoms: C_18  and  N_19
REMARK                            x       y       z     vdW  Elec       q    Type
REMARK                         _______ _______ _______ _____ _____    ______ ____
ROOT
ATOM      1  N   UNL     1      30.101  22.234  26.739  0.00  0.00    +0.000 NA
ATOM      2  C   UNL     1      30.604  23.035  27.792  0.00  0.00    +0.000 C 
ATOM      3  O   UNL     1      30.535  24.275  27.649  0.00  0.00    +0.000 OA
ENDROOT
BRANCH   1  11
ATOM      4  C   UNL     1      27.315  22.421  26.579  0.00  0.00    +0.000 C 
ATOM      5  C   UNL     1      28.162  22.877  25.434  0.00  0.00    +0.000 A 
ATOM      6  C   UNL     1      27.537  23.393  24.280  0.00  0.00    +0.000 A 
ATOM      7  C   UNL     1      28.310  23.803  23.229  0.00  0.00    +0.000 A 
ATOM      8  C   UNL     1      29.691  23.691  23.354  0.00  0.00    +0.000 A 
ATOM      9  C   UNL     1      30.298  23.189  24.473  0.00  0.00    +0.000 A 
ATOM     10  C   UNL     1      31.780  23.084  24.535  0.00  0.00    +0.000 C 
ATOM     11  C   UNL     1      29.525  22.769  25.549  0.00  0.00    +0.000 A 
ENDBRANCH   1  11
BRANCH   2  12
ATOM     12  C   UNL     1      31.168  22.406  28.976  0.00  0.00    +0.000 A 
ATOM     13  C   UNL     1      32.448  21.857  28.940  0.00  0.00    +0.000 A 
ATOM     14  C   UNL     1      33.067  21.324  30.073  0.00  0.00    +0.000 A 
ATOM     15  C   UNL     1      32.343  21.365  31.267  0.00  0.00    +0.000 A 
ATOM     16  C   UNL     1      31.100  21.891  31.334  0.00  0.00    +0.000 A 
ATOM     17  C   UNL     1      30.320  21.933  32.579  0.00  0.00    +0.000 C 
ATOM     18  C   UNL     1      30.521  22.411  30.166  0.00  0.00    +0.000 A 
BRANCH  18  19
ATOM     19  N   UNL     1      29.168  22.911  30.248  0.00  0.00    +0.000 N 
ATOM     20  O   UNL     1      28.222  22.154  30.013  0.00  0.00    +0.000 OA
ATOM     21  O   UNL     1      29.026  24.258  30.610  0.00  0.00    +0.000 OA
ENDBRANCH  18  19
ENDBRANCH   2  12
TORSDOF 3
ENDMDL
MODEL 3
REMARK VINA RESULT:      -6.0     30.586     32.800
REMARK  Name = 
REMARK  3 active torsions:
REMARK  status: ('A' for Active; 'I' for Inactive)
REMARK    1  A    between atoms: C_8  and  N_9
REMARK    2  A    between atoms: C_10  and  C_12
REMARK    3  A    between atoms: C_18  and  N_19
REMARK                            x       y       z     vdW  Elec       q    Type
REMARK                         _______ _______ _______ _____ _____    ______ ____
ROOT
ATOM      1  N   UNL     1      21.951  -7.467  23.796  0.00  0.00    +0.000 NA
ATOM      2  C   UNL     1      21.525  -7.754  25.115  0.00  0.00    +0.000 C 
ATOM      3  O   UNL     1      22.220  -8.554  25.778  0.00  0.00    +0.000 OA
ENDROOT
BRANCH   1  11
ATOM      4  C   UNL     1      24.407  -6.196  24.218  0.00  0.00    +0.000 C 
ATOM      5  C   UNL     1      24.341  -7.439  23.390  0.00  0.00    +0.000 A 
ATOM      6  C   UNL     1      25.528  -7.953  22.826  0.00  0.00    +0.000 A 
ATOM      7  C   UNL     1      25.469  -9.086  22.063  0.00  0.00    +0.000 A 
ATOM      8  C   UNL     1      24.225  -9.683  21.882  0.00  0.00    +0.000 A 
ATOM      9  C   UNL     1      23.074  -9.185  22.427  0.00  0.00    +0.000 A 
ATOM     10  C   UNL     1      21.775  -9.867  22.180  0.00  0.00    +0.000 C 
ATOM     11  C   UNL     1      23.119  -8.034  23.205  0.00  0.00    +0.000 A 
ENDBRANCH   1  11
BRANCH   2  12
ATOM     12  C   UNL     1      20.325  -7.124  25.643  0.00  0.00    +0.000 A 
ATOM     13  C   UNL     1      20.342  -5.783  26.022  0.00  0.00    +0.000 A 
ATOM     14  C   UNL     1      19.195  -5.110  26.449  0.00  0.00    +0.000 A 
ATOM     15  C   UNL     1      18.006  -5.843  26.478  0.00  0.00    +0.000 A 
ATOM     16  C   UNL     1      17.958  -7.144  26.117  0.00  0.00    +0.000 A 
ATOM     17  C   UNL     1      16.719  -7.934  26.152  0.00  0.00    +0.000 C 
ATOM     18  C   UNL     1      19.139  -7.776  25.698  0.00  0.00    +0.000 A 
BRANCH  18  19
ATOM     19  N   UNL     1      19.075  -9.182  25.376  0.00  0.00    +0.000 N 
ATOM     20  O   UNL     1      19.252 -10.021  26.265  0.00  0.00    +0.000 OA
ATOM     21  O   UNL     1      18.798  -9.500  24.039  0.00  0.00    +0.000 OA
ENDBRANCH  18  19
ENDBRANCH   2  12
TORSDOF 3
ENDMDL
MODEL 4
REMARK VINA RESULT:      -6.0     16.921     20.130
REMARK  Name = 
REMARK  3 active torsions:
REMARK  status: ('A' for Active; 'I' for Inactive)
REMARK    1  A    between atoms: C_8  and  N_9
REMARK    2  A    between atoms: C_10  and  C_12
REMARK    3  A    between atoms: C_18  and  N_19
REMARK                            x       y       z     vdW  Elec       q    Type
REMARK                         _______ _______ _______ _____ _____    ______ ____
ROOT
ATOM      1  N   UNL     1      29.065  22.363  27.131  0.00  0.00    +0.000 NA
ATOM      2  C   UNL     1      29.908  23.139  27.962  0.00  0.00    +0.000 C 
ATOM      3  O   UNL     1      29.945  24.370  27.747  0.00  0.00    +0.000 OA
ENDROOT
BRANCH   1  11
ATOM      4  C   UNL     1      30.138  22.455  24.550  0.00  0.00    +0.000 C 
ATOM      5  C   UNL     1      28.760  22.976  24.805  0.00  0.00    +0.000 A 
ATOM      6  C   UNL     1      28.019  23.514  23.732  0.00  0.00    +0.000 A 
ATOM      7  C   UNL     1      26.762  23.998  23.965  0.00  0.00    +0.000 A 
ATOM      8  C   UNL     1      26.270  23.931  25.265  0.00  0.00    +0.000 A 
ATOM      9  C   UNL     1      26.988  23.410  26.307  0.00  0.00    +0.000 A 
ATOM     10  C   UNL     1      26.407  23.383  27.675  0.00  0.00    +0.000 C 
ATOM     11  C   UNL     1      28.268  22.915  26.084  0.00  0.00    +0.000 A 
ENDBRANCH   1  11
BRANCH   2  12
ATOM     12  C   UNL     1      30.681  22.496  29.014  0.00  0.00    +0.000 A 
ATOM     13  C   UNL     1      31.960  22.011  28.751  0.00  0.00    +0.000 A 
ATOM     14  C   UNL     1      32.775  21.468  29.746  0.00  0.00    +0.000 A 
ATOM     15  C   UNL     1      32.252  21.432  31.041  0.00  0.00    +0.000 A 
ATOM     16  C   UNL     1      31.015  21.895  31.328  0.00  0.00    +0.000 A 
ATOM     17  C   UNL     1      30.445  21.856  32.682  0.00  0.00    +0.000 C 
ATOM     18  C   UNL     1      30.235  22.428  30.290  0.00  0.00    +0.000 A 
BRANCH  18  19
ATOM     19  N   UNL     1      28.893  22.860  30.609  0.00  0.00    +0.000 N 
ATOM     20  O   UNL     1      27.962  22.052  30.551  0.00  0.00    +0.000 OA
ATOM     21  O   UNL     1      28.746  24.204  30.980  0.00  0.00    +0.000 OA
ENDBRANCH  18  19
ENDBRANCH   2  12
TORSDOF 3
ENDMDL
MODEL 5
REMARK VINA RESULT:      -6.0     21.753     23.754
REMARK  Name = 
REMARK  3 active torsions:
REMARK  status: ('A' for Active; 'I' for Inactive)
REMARK    1  A    between atoms: C_8  and  N_9
REMARK    2  A    between atoms: C_10  and  C_12
REMARK    3  A    between atoms: C_18  and  N_19
REMARK                            x       y       z     vdW  Elec       q    Type
REMARK                         _______ _______ _______ _____ _____    ______ ____
ROOT
ATOM      1  N   UNL     1      18.693   9.794  37.263  0.00  0.00    +0.000 NA
ATOM      2  C   UNL     1      19.835  10.549  37.622  0.00  0.00    +0.000 C 
ATOM      3  O   UNL     1      19.646  11.732  37.983  0.00  0.00    +0.000 OA
ENDROOT
BRANCH   1  11
ATOM      4  C   UNL     1      17.606  10.839  34.907  0.00  0.00    +0.000 C 
ATOM      5  C   UNL     1      16.796  10.831  36.165  0.00  0.00    +0.000 A 
ATOM      6  C   UNL     1      15.489  11.359  36.143  0.00  0.00    +0.000 A 
ATOM      7  C   UNL     1      14.750  11.359  37.294  0.00  0.00    +0.000 A 
ATOM      8  C   UNL     1      15.332  10.829  38.441  0.00  0.00    +0.000 A 
ATOM      9  C   UNL     1      16.601  10.317  38.463  0.00  0.00    +0.000 A 
ATOM     10  C   UNL     1      17.167   9.779  39.728  0.00  0.00    +0.000 C 
ATOM     11  C   UNL     1      17.363  10.310  37.300  0.00  0.00    +0.000 A 
ENDBRANCH   1  11
BRANCH   2  12
ATOM     12  C   UNL     1      21.155   9.941  37.564  0.00  0.00    +0.000 A 
ATOM     13  C   UNL     1      21.885   9.955  36.377  0.00  0.00    +0.000 A 
ATOM     14  C   UNL     1      23.190   9.465  36.295  0.00  0.00    +0.000 A 
ATOM     15  C   UNL     1      23.749   8.955  37.469  0.00  0.00    +0.000 A 
ATOM     16  C   UNL     1      23.067   8.927  38.634  0.00  0.00    +0.000 A 
ATOM     17  C   UNL     1      23.635   8.384  39.876  0.00  0.00    +0.000 C 
ATOM     18  C   UNL     1      21.756   9.429  38.664  0.00  0.00    +0.000 A 
BRANCH  18  19
ATOM     19  N   UNL     1      21.024   9.333  39.906  0.00  0.00    +0.000 N 
ATOM     20  O   UNL     1      20.374   8.314  40.154  0.00  0.00    +0.000 OA
ATOM     21  O   UNL     1      21.119  10.435  40.768  0.00  0.00    +0.000 OA
ENDBRANCH  18  19
ENDBRANCH   2  12
TORSDOF 3
ENDMDL
MODEL 6
REMARK VINA RESULT:      -5.9     15.929     17.115
REMARK  Name = 
REMARK  3 active torsions:
REMARK  status: ('A' for Active; 'I' for Inactive)
REMARK    1  A    between atoms: C_8  and  N_9
REMARK    2  A    between atoms: C_10  and  C_12
REMARK    3  A    between atoms: C_18  and  N_19
REMARK                            x       y       z     vdW  Elec       q    Type
REMARK                         _______ _______ _______ _____ _____    ______ ____
ROOT
ATOM      1  N   UNL     1      27.694  24.511  25.746  0.00  0.00    +0.000 NA
ATOM      2  C   UNL     1      26.673  23.708  26.307  0.00  0.00    +0.000 C 
ATOM      3  O   UNL     1      25.919  23.105  25.513  0.00  0.00    +0.000 OA
ENDROOT
BRANCH   1  11
ATOM      4  C   UNL     1      29.518  22.805  24.486  0.00  0.00    +0.000 C 
ATOM      5  C   UNL     1      28.786  23.837  23.689  0.00  0.00    +0.000 A 
ATOM      6  C   UNL     1      29.032  23.937  22.304  0.00  0.00    +0.000 A 
ATOM      7  C   UNL     1      28.369  24.885  21.574  0.00  0.00    +0.000 A 
ATOM      8  C   UNL     1      27.472  25.711  22.244  0.00  0.00    +0.000 A 
ATOM      9  C   UNL     1      27.233  25.615  23.588  0.00  0.00    +0.000 A 
ATOM     10  C   UNL     1      26.271  26.540  24.243  0.00  0.00    +0.000 C 
ATOM     11  C   UNL     1      27.900  24.656  24.341  0.00  0.00    +0.000 A 
ENDBRANCH   1  11
BRANCH   2  12
ATOM     12  C   UNL     1      26.540  23.610  27.753  0.00  0.00    +0.000 A 
ATOM     13  C   UNL     1      27.172  22.582  28.450  0.00  0.00    +0.000 A 
ATOM     14  C   UNL     1      27.148  22.498  29.844  0.00  0.00    +0.000 A 
ATOM     15  C   UNL     1      26.457  23.502  30.526  0.00  0.00    +0.000 A 
ATOM     16  C   UNL     1      25.835  24.511  29.878  0.00  0.00    +0.000 A 
ATOM     17  C   UNL     1      25.095  25.570  30.579  0.00  0.00    +0.000 C 
ATOM     18  C   UNL     1      25.886  24.549  28.476  0.00  0.00    +0.000 A 
BRANCH  18  19
ATOM     19  N   UNL     1      25.161  25.602  27.803  0.00  0.00    +0.000 N 
ATOM     20  O   UNL     1      24.019  25.388  27.388  0.00  0.00    +0.000 OA
ATOM     21  O   UNL     1      25.827  26.829  27.676  0.00  0.00    +0.000 OA
ENDBRANCH  18  19
ENDBRANCH   2  12
TORSDOF 3
ENDMDL
MODEL 7
REMARK VINA RESULT:      -5.8     22.322     24.309
REMARK  Name = 
REMARK  3 active torsions:
REMARK  status: ('A' for Active; 'I' for Inactive)
REMARK    1  A    between atoms: C_8  and  N_9
REMARK    2  A    between atoms: C_10  and  C_12
REMARK    3  A    between atoms: C_18  and  N_19
REMARK                            x       y       z     vdW  Elec       q    Type
REMARK                         _______ _______ _______ _____ _____    ______ ____
ROOT
ATOM      1  N   UNL     1      18.967   9.527  37.853  0.00  0.00    +0.000 NA
ATOM      2  C   UNL     1      20.103  10.358  38.002  0.00  0.00    +0.000 C 
ATOM      3  O   UNL     1      19.902  11.541  38.354  0.00  0.00    +0.000 OA
ENDROOT
BRANCH   1  11
ATOM      4  C   UNL     1      17.853   9.113  40.385  0.00  0.00    +0.000 C 
ATOM      5  C   UNL     1      17.051   9.784  39.317  0.00  0.00    +0.000 A 
ATOM      6  C   UNL     1      15.733  10.196  39.604  0.00  0.00    +0.000 A 
ATOM      7  C   UNL     1      14.996  10.804  38.625  0.00  0.00    +0.000 A 
ATOM      8  C   UNL     1      15.592  10.988  37.382  0.00  0.00    +0.000 A 
ATOM      9  C   UNL     1      16.870  10.588  37.102  0.00  0.00    +0.000 A 
ATOM     10  C   UNL     1      17.440  10.804  35.746  0.00  0.00    +0.000 C 
ATOM     11  C   UNL     1      17.631   9.969  38.087  0.00  0.00    +0.000 A 
ENDBRANCH   1  11
BRANCH   2  12
ATOM     12  C   UNL     1      21.432   9.822  37.751  0.00  0.00    +0.000 A 
ATOM     13  C   UNL     1      21.975   9.858  36.469  0.00  0.00    +0.000 A 
ATOM     14  C   UNL     1      23.279   9.440  36.195  0.00  0.00    +0.000 A 
ATOM     15  C   UNL     1      24.034   8.979  37.276  0.00  0.00    +0.000 A 
ATOM     16  C   UNL     1      23.536   8.932  38.531  0.00  0.00    +0.000 A 
ATOM     17  C   UNL     1      24.313   8.440  39.677  0.00  0.00    +0.000 C 
ATOM     18  C   UNL     1      22.218   9.361  38.753  0.00  0.00    +0.000 A 
BRANCH  18  19
ATOM     19  N   UNL     1      21.686   9.244  40.090  0.00  0.00    +0.000 N 
ATOM     20  O   UNL     1      21.176   8.180  40.454  0.00  0.00    +0.000 OA
ATOM     21  O   UNL     1      21.802  10.379  40.906  0.00  0.00    +0.000 OA
ENDBRANCH  18  19
ENDBRANCH   2  12
TORSDOF 3
ENDMDL
MODEL 8
REMARK VINA RESULT:      -5.8     30.609     33.056
REMARK  Name = 
REMARK  3 active torsions:
REMARK  status: ('A' for Active; 'I' for Inactive)
REMARK    1  A    between atoms: C_8  and  N_9
REMARK    2  A    between atoms: C_10  and  C_12
REMARK    3  A    between atoms: C_18  and  N_19
REMARK                            x       y       z     vdW  Elec       q    Type
REMARK                         _______ _______ _______ _____ _____    ______ ____
ROOT
ATOM      1  N   UNL     1      20.282  -7.341  24.815  0.00  0.00    +0.000 NA
ATOM      2  C   UNL     1      21.529  -7.862  25.237  0.00  0.00    +0.000 C 
ATOM      3  O   UNL     1      21.556  -8.454  26.337  0.00  0.00    +0.000 OA
ENDROOT
BRANCH   1  11
ATOM      4  C   UNL     1      19.424  -5.142  26.316  0.00  0.00    +0.000 C 
ATOM      5  C   UNL     1      18.627  -6.407  26.321  0.00  0.00    +0.000 A 
ATOM      6  C   UNL     1      17.449  -6.474  27.093  0.00  0.00    +0.000 A 
ATOM      7  C   UNL     1      16.723  -7.633  27.104  0.00  0.00    +0.000 A 
ATOM      8  C   UNL     1      17.188  -8.700  26.342  0.00  0.00    +0.000 A 
ATOM      9  C   UNL     1      18.332  -8.636  25.594  0.00  0.00    +0.000 A 
ATOM     10  C   UNL     1      18.780  -9.820  24.813  0.00  0.00    +0.000 C 
ATOM     11  C   UNL     1      19.080  -7.465  25.573  0.00  0.00    +0.000 A 
ENDBRANCH   1  11
BRANCH   2  12
ATOM     12  C   UNL     1      22.705  -7.698  24.396  0.00  0.00    +0.000 A 
ATOM     13  C   UNL     1      23.555  -6.609  24.580  0.00  0.00    +0.000 A 
ATOM     14  C   UNL     1      24.742  -6.457  23.861  0.00  0.00    +0.000 A 
ATOM     15  C   UNL     1      25.054  -7.456  22.936  0.00  0.00    +0.000 A 
ATOM     16  C   UNL     1      24.250  -8.524  22.736  0.00  0.00    +0.000 A 
ATOM     17  C   UNL     1      24.557  -9.579  21.760  0.00  0.00    +0.000 C 
ATOM     18  C   UNL     1      23.066  -8.629  23.482  0.00  0.00    +0.000 A 
BRANCH  18  19
ATOM     19  N   UNL     1      22.192  -9.746  23.207  0.00  0.00    +0.000 N 
ATOM     20  O   UNL     1      22.329 -10.799  23.836  0.00  0.00    +0.000 OA
ATOM     21  O   UNL     1      21.216  -9.540  22.221  0.00  0.00    +0.000 OA
ENDBRANCH  18  19
ENDBRANCH   2  12
TORSDOF 3
ENDMDL
MODEL 9
REMARK VINA RESULT:      -5.6     15.564     18.810
REMARK  Name = 
REMARK  3 active torsions:
REMARK  status: ('A' for Active; 'I' for Inactive)
REMARK    1  A    between atoms: C_8  and  N_9
REMARK    2  A    between atoms: C_10  and  C_12
REMARK    3  A    between atoms: C_18  and  N_19
REMARK                            x       y       z     vdW  Elec       q    Type
REMARK                         _______ _______ _______ _____ _____    ______ ____
ROOT
ATOM      1  N   UNL     1      28.933  23.715  28.791  0.00  0.00    +0.000 NA
ATOM      2  C   UNL     1      27.640  23.160  28.636  0.00  0.00    +0.000 C 
ATOM      3  O   UNL     1      27.524  21.928  28.813  0.00  0.00    +0.000 OA
ENDROOT
BRANCH   1  11
ATOM      4  C   UNL     1      29.552  23.398  31.500  0.00  0.00    +0.000 C 
ATOM      5  C   UNL     1      30.418  22.769  30.457  0.00  0.00    +0.000 A 
ATOM      6  C   UNL     1      31.546  22.024  30.859  0.00  0.00    +0.000 A 
ATOM      7  C   UNL     1      32.344  21.453  29.906  0.00  0.00    +0.000 A 
ATOM      8  C   UNL     1      31.997  21.638  28.572  0.00  0.00    +0.000 A 
ATOM      9  C   UNL     1      30.903  22.362  28.181  0.00  0.00    +0.000 A 
ATOM     10  C   UNL     1      30.598  22.531  26.735  0.00  0.00    +0.000 C 
ATOM     11  C   UNL     1      30.084  22.947  29.139  0.00  0.00    +0.000 A 
ENDBRANCH   1  11
BRANCH   2  12
ATOM     12  C   UNL     1      26.519  24.019  28.288  0.00  0.00    +0.000 A 
ATOM     13  C   UNL     1      25.777  24.647  29.286  0.00  0.00    +0.000 A 
ATOM     14  C   UNL     1      24.750  25.550  29.001  0.00  0.00    +0.000 A 
ATOM     15  C   UNL     1      24.492  25.808  27.652  0.00  0.00    +0.000 A 
ATOM     16  C   UNL     1      25.194  25.214  26.662  0.00  0.00    +0.000 A 
ATOM     17  C   UNL     1      24.930  25.466  25.238  0.00  0.00    +0.000 C 
ATOM     18  C   UNL     1      26.214  24.312  27.002  0.00  0.00    +0.000 A 
BRANCH  18  19
ATOM     19  N   UNL     1      26.909  23.643  25.927  0.00  0.00    +0.000 N 
ATOM     20  O   UNL     1      26.510  22.543  25.532  0.00  0.00    +0.000 OA
ATOM     21  O   UNL     1      28.014  24.318  25.387  0.00  0.00    +0.000 OA
ENDBRANCH  18  19
ENDBRANCH   2  12
TORSDOF 3
ENDMDL
MODEL 10
REMARK VINA RESULT:      -5.6     23.659     25.622
REMARK  Name = 
REMARK  3 active torsions:
REMARK  status: ('A' for Active; 'I' for Inactive)
REMARK    1  A    between atoms: C_8  and  N_9
REMARK    2  A    between atoms: C_10  and  C_12
REMARK    3  A    between atoms: C_18  and  N_19
REMARK                            x       y       z     vdW  Elec       q    Type
REMARK                         _______ _______ _______ _____ _____    ______ ____
ROOT
ATOM      1  N   UNL     1      19.420   8.813  39.130  0.00  0.00    +0.000 NA
ATOM      2  C   UNL     1      20.466   9.766  39.157  0.00  0.00    +0.000 C 
ATOM      3  O   UNL     1      20.331  10.740  39.929  0.00  0.00    +0.000 OA
ENDROOT
BRANCH   1  11
ATOM      4  C   UNL     1      19.374   7.481  41.589  0.00  0.00    +0.000 C 
ATOM      5  C   UNL     1      18.185   8.272  41.145  0.00  0.00    +0.000 A 
ATOM      6  C   UNL     1      17.048   8.330  41.978  0.00  0.00    +0.000 A 
ATOM      7  C   UNL     1      15.958   9.047  41.570  0.00  0.00    +0.000 A 
ATOM      8  C   UNL     1      16.027   9.693  40.340  0.00  0.00    +0.000 A 
ATOM      9  C   UNL     1      17.129   9.636  39.530  0.00  0.00    +0.000 A 
ATOM     10  C   UNL     1      17.129  10.339  38.220  0.00  0.00    +0.000 C 
ATOM     11  C   UNL     1      18.244   8.912  39.932  0.00  0.00    +0.000 A 
ENDBRANCH   1  11
BRANCH   2  12
ATOM     12  C   UNL     1      21.635   9.583  38.311  0.00  0.00    +0.000 A 
ATOM     13  C   UNL     1      21.618  10.011  36.985  0.00  0.00    +0.000 A 
ATOM     14  C   UNL     1      22.743   9.940  36.160  0.00  0.00    +0.000 A 
ATOM     15  C   UNL     1      23.910   9.419  36.725  0.00  0.00    +0.000 A 
ATOM     16  C   UNL     1      23.958   8.996  38.008  0.00  0.00    +0.000 A 
ATOM     17  C   UNL     1      25.172   8.435  38.616  0.00  0.00    +0.000 C 
ATOM     18  C   UNL     1      22.798   9.086  38.794  0.00  0.00    +0.000 A 
BRANCH  18  19
ATOM     19  N   UNL     1      22.856   8.571  40.143  0.00  0.00    +0.000 N 
ATOM     20  O   UNL     1      23.163   9.324  41.071  0.00  0.00    +0.000 OA
ATOM     21  O   UNL     1      22.539   7.214  40.302  0.00  0.00    +0.000 OA
ENDBRANCH  18  19
ENDBRANCH   2  12
TORSDOF 3
ENDMDL
