MODEL 1
REMARK VINA RESULT:      -7.6      0.000      0.000
REMARK  Name = 
REMARK  4 active torsions:
REMARK  status: ('A' for Active; 'I' for Inactive)
REMARK    1  A    between atoms: C_2  and  C_4
REMARK    2  A    between atoms: C_9  and  N_10
REMARK    3  A    between atoms: C_11  and  C_13
REMARK    4  A    between atoms: C_18  and  N_19
REMARK                            x       y       z     vdW  Elec       q    Type
REMARK                         _______ _______ _______ _____ _____    ______ ____
ROOT
ATOM      1  N   UNL     1      14.315  12.490  35.339  0.00  0.00    +0.000 NA
ATOM      2  C   UNL     1      14.487  11.942  34.087  0.00  0.00    +0.000 C 
ATOM      3  O   UNL     1      14.314  10.674  34.006  0.00  0.00    +0.000 OA
ENDROOT
BRANCH   1   9
ATOM      4  C   UNL     1      14.857  11.426  37.452  0.00  0.00    +0.000 A 
ATOM      5  C   UNL     1      14.460  10.831  38.663  0.00  0.00    +0.000 A 
ATOM      6  C   UNL     1      13.125  10.688  38.937  0.00  0.00    +0.000 A 
ATOM      7  C   UNL     1      12.159  11.125  38.035  0.00  0.00    +0.000 A 
ATOM      8  C   UNL     1      12.602  11.698  36.868  0.00  0.00    +0.000 A 
ATOM      9  C   UNL     1      13.949  11.865  36.544  0.00  0.00    +0.000 A 
BRANCH   4  11
ATOM     10  C   UNL     1      17.102  10.482  37.926  0.00  0.00    +0.000 C 
ATOM     11  C   UNL     1      16.285  11.521  37.242  0.00  0.00    +0.000 C 
ATOM     12  C   UNL     1      16.907  12.853  37.146  0.00  0.00    +0.000 C 
ENDBRANCH   4  11
ENDBRANCH   1   9
BRANCH   2  13
ATOM     13  C   UNL     1      14.844  12.583  32.834  0.00  0.00    +0.000 A 
ATOM     14  C   UNL     1      14.051  13.615  32.315  0.00  0.00    +0.000 A 
ATOM     15  C   UNL     1      14.358  14.159  31.087  0.00  0.00    +0.000 A 
ATOM     16  C   UNL     1      15.427  13.719  30.348  0.00  0.00    +0.000 A 
ATOM     17  C   UNL     1      16.216  12.716  30.832  0.00  0.00    +0.000 A 
ATOM     18  C   UNL     1      15.892  12.160  32.098  0.00  0.00    +0.000 A 
BRANCH  18  19
ATOM     19  N   UNL     1      16.756  11.144  32.555  0.00  0.00    +0.000 N 
ATOM     20  O   UNL     1      16.843  10.076  31.951  0.00  0.00    +0.000 OA
ATOM     21  O   UNL     1      17.476  11.349  33.692  0.00  0.00    +0.000 OA
ENDBRANCH  18  19
ENDBRANCH   2  13
TORSDOF 4
ENDMDL
MODEL 2
REMARK VINA RESULT:      -7.6      2.209      5.787
REMARK  Name = 
REMARK  4 active torsions:
REMARK  status: ('A' for Active; 'I' for Inactive)
REMARK    1  A    between atoms: C_2  and  C_4
REMARK    2  A    between atoms: C_9  and  N_10
REMARK    3  A    between atoms: C_11  and  C_13
REMARK    4  A    between atoms: C_18  and  N_19
REMARK                            x       y       z     vdW  Elec       q    Type
REMARK                         _______ _______ _______ _____ _____    ______ ____
ROOT
ATOM      1  N   UNL     1      14.978  11.645  35.534  0.00  0.00    +0.000 NA
ATOM      2  C   UNL     1      16.158  11.656  36.245  0.00  0.00    +0.000 C 
ATOM      3  O   UNL     1      16.974  12.601  35.954  0.00  0.00    +0.000 OA
ENDROOT
BRANCH   1   9
ATOM      4  C   UNL     1      14.640  12.290  33.219  0.00  0.00    +0.000 A 
ATOM      5  C   UNL     1      14.148  13.188  32.255  0.00  0.00    +0.000 A 
ATOM      6  C   UNL     1      13.533  14.343  32.663  0.00  0.00    +0.000 A 
ATOM      7  C   UNL     1      13.390  14.637  34.016  0.00  0.00    +0.000 A 
ATOM      8  C   UNL     1      13.889  13.725  34.914  0.00  0.00    +0.000 A 
ATOM      9  C   UNL     1      14.522  12.538  34.548  0.00  0.00    +0.000 A 
BRANCH   4  11
ATOM     10  C   UNL     1      16.508  11.352  31.882  0.00  0.00    +0.000 C 
ATOM     11  C   UNL     1      15.287  11.106  32.695  0.00  0.00    +0.000 C 
ATOM     12  C   UNL     1      14.454   9.970  32.262  0.00  0.00    +0.000 C 
ENDBRANCH   4  11
ENDBRANCH   1   9
BRANCH   2  13
ATOM     13  C   UNL     1      16.627  10.752  37.280  0.00  0.00    +0.000 A 
ATOM     14  C   UNL     1      16.116  10.839  38.582  0.00  0.00    +0.000 A 
ATOM     15  C   UNL     1      16.629  10.027  39.571  0.00  0.00    +0.000 A 
ATOM     16  C   UNL     1      17.631   9.126  39.319  0.00  0.00    +0.000 A 
ATOM     17  C   UNL     1      18.145   9.021  38.059  0.00  0.00    +0.000 A 
ATOM     18  C   UNL     1      17.613   9.862  37.046  0.00  0.00    +0.000 A 
BRANCH  18  19
ATOM     19  N   UNL     1      18.166   9.692  35.760  0.00  0.00    +0.000 N 
ATOM     20  O   UNL     1      19.346   9.963  35.545  0.00  0.00    +0.000 OA
ATOM     21  O   UNL     1      17.369   9.245  34.750  0.00  0.00    +0.000 OA
ENDBRANCH  18  19
ENDBRANCH   2  13
TORSDOF 4
ENDMDL
MODEL 3
REMARK VINA RESULT:      -6.6     22.209     23.866
REMARK  Name = 
REMARK  4 active torsions:
REMARK  status: ('A' for Active; 'I' for Inactive)
REMARK    1  A    between atoms: C_2  and  C_4
REMARK    2  A    between atoms: C_9  and  N_10
REMARK    3  A    between atoms: C_11  and  C_13
REMARK    4  A    between atoms: C_18  and  N_19
REMARK                            x       y       z     vdW  Elec       q    Type
REMARK                         _______ _______ _______ _____ _____    ______ ____
ROOT
ATOM      1  N   UNL     1      22.314  -8.448  25.716  0.00  0.00    +0.000 NA
ATOM      2  C   UNL     1      21.009  -8.214  25.340  0.00  0.00    +0.000 C 
ATOM      3  O   UNL     1      20.592  -8.887  24.332  0.00  0.00    +0.000 OA
ENDROOT
BRANCH   1   9
ATOM      4  C   UNL     1      24.085  -9.005  24.153  0.00  0.00    +0.000 A 
ATOM      5  C   UNL     1      25.034  -9.912  23.647  0.00  0.00    +0.000 A 
ATOM      6  C   UNL     1      25.126 -11.165  24.192  0.00  0.00    +0.000 A 
ATOM      7  C   UNL     1      24.293 -11.552  25.238  0.00  0.00    +0.000 A 
ATOM      8  C   UNL     1      23.384 -10.629  25.692  0.00  0.00    +0.000 A 
ATOM      9  C   UNL     1      23.252  -9.342  25.170  0.00  0.00    +0.000 A 
BRANCH   4  11
ATOM     10  C   UNL     1      23.212  -7.633  22.279  0.00  0.00    +0.000 C 
ATOM     11  C   UNL     1      24.050  -7.712  23.505  0.00  0.00    +0.000 C 
ATOM     12  C   UNL     1      25.271  -6.887  23.493  0.00  0.00    +0.000 C 
ENDBRANCH   4  11
ENDBRANCH   1   9
BRANCH   2  13
ATOM     13  C   UNL     1      20.027  -7.309  25.911  0.00  0.00    +0.000 A 
ATOM     14  C   UNL     1      20.085  -5.936  25.635  0.00  0.00    +0.000 A 
ATOM     15  C   UNL     1      19.194  -5.080  26.247  0.00  0.00    +0.000 A 
ATOM     16  C   UNL     1      18.242  -5.534  27.125  0.00  0.00    +0.000 A 
ATOM     17  C   UNL     1      18.165  -6.867  27.408  0.00  0.00    +0.000 A 
ATOM     18  C   UNL     1      19.087  -7.742  26.775  0.00  0.00    +0.000 A 
BRANCH  18  19
ATOM     19  N   UNL     1      18.943  -9.108  27.089  0.00  0.00    +0.000 N 
ATOM     20  O   UNL     1      19.596  -9.614  28.001  0.00  0.00    +0.000 OA
ATOM     21  O   UNL     1      18.089  -9.871  26.352  0.00  0.00    +0.000 OA
ENDBRANCH  18  19
ENDBRANCH   2  13
TORSDOF 4
ENDMDL
MODEL 4
REMARK VINA RESULT:      -6.5     17.081     19.433
REMARK  Name = 
REMARK  4 active torsions:
REMARK  status: ('A' for Active; 'I' for Inactive)
REMARK    1  A    between atoms: C_2  and  C_4
REMARK    2  A    between atoms: C_9  and  N_10
REMARK    3  A    between atoms: C_11  and  C_13
REMARK    4  A    between atoms: C_18  and  N_19
REMARK                            x       y       z     vdW  Elec       q    Type
REMARK                         _______ _______ _______ _____ _____    ______ ____
ROOT
ATOM      1  N   UNL     1      28.480  22.616  27.138  0.00  0.00    +0.000 NA
ATOM      2  C   UNL     1      28.062  23.657  26.338  0.00  0.00    +0.000 C 
ATOM      3  O   UNL     1      28.240  24.833  26.817  0.00  0.00    +0.000 OA
ENDROOT
BRANCH   1   9
ATOM      4  C   UNL     1      28.405  22.608  29.563  0.00  0.00    +0.000 A 
ATOM      5  C   UNL     1      29.056  22.617  30.810  0.00  0.00    +0.000 A 
ATOM      6  C   UNL     1      30.424  22.674  30.856  0.00  0.00    +0.000 A 
ATOM      7  C   UNL     1      31.177  22.722  29.686  0.00  0.00    +0.000 A 
ATOM      8  C   UNL     1      30.491  22.711  28.496  0.00  0.00    +0.000 A 
ATOM      9  C   UNL     1      29.100  22.654  28.399  0.00  0.00    +0.000 A 
BRANCH   4  11
ATOM     10  C   UNL     1      26.279  23.884  29.627  0.00  0.00    +0.000 C 
ATOM     11  C   UNL     1      26.960  22.562  29.614  0.00  0.00    +0.000 C 
ATOM     12  C   UNL     1      26.307  21.503  30.404  0.00  0.00    +0.000 C 
ENDBRANCH   4  11
ENDBRANCH   1   9
BRANCH   2  13
ATOM     13  C   UNL     1      27.440  23.629  25.026  0.00  0.00    +0.000 A 
ATOM     14  C   UNL     1      26.073  23.347  24.896  0.00  0.00    +0.000 A 
ATOM     15  C   UNL     1      25.515  23.245  23.640  0.00  0.00    +0.000 A 
ATOM     16  C   UNL     1      26.261  23.413  22.501  0.00  0.00    +0.000 A 
ATOM     17  C   UNL     1      27.594  23.689  22.601  0.00  0.00    +0.000 A 
ATOM     18  C   UNL     1      28.162  23.791  23.898  0.00  0.00    +0.000 A 
BRANCH  18  19
ATOM     19  N   UNL     1      29.537  24.101  23.938  0.00  0.00    +0.000 N 
ATOM     20  O   UNL     1      29.915  25.270  23.984  0.00  0.00    +0.000 OA
ATOM     21  O   UNL     1      30.445  23.087  23.899  0.00  0.00    +0.000 OA
ENDBRANCH  18  19
ENDBRANCH   2  13
TORSDOF 4
ENDMDL
MODEL 5
REMARK VINA RESULT:      -6.5     22.195     23.565
REMARK  Name = 
REMARK  4 active torsions:
REMARK  status: ('A' for Active; 'I' for Inactive)
REMARK    1  A    between atoms: C_2  and  C_4
REMARK    2  A    between atoms: C_9  and  N_10
REMARK    3  A    between atoms: C_11  and  C_13
REMARK    4  A    between atoms: C_18  and  N_19
REMARK                            x       y       z     vdW  Elec       q    Type
REMARK                         _______ _______ _______ _____ _____    ______ ____
ROOT
ATOM      1  N   UNL     1      21.822  -7.232  25.688  0.00  0.00    +0.000 NA
ATOM      2  C   UNL     1      22.357  -7.742  24.525  0.00  0.00    +0.000 C 
ATOM      3  O   UNL     1      21.508  -8.114  23.639  0.00  0.00    +0.000 OA
ENDROOT
BRANCH   1   9
ATOM      4  C   UNL     1      19.693  -8.019  26.547  0.00  0.00    +0.000 A 
ATOM      5  C   UNL     1      18.356  -7.782  26.916  0.00  0.00    +0.000 A 
ATOM      6  C   UNL     1      17.826  -6.529  26.760  0.00  0.00    +0.000 A 
ATOM      7  C   UNL     1      18.592  -5.488  26.242  0.00  0.00    +0.000 A 
ATOM      8  C   UNL     1      19.890  -5.774  25.898  0.00  0.00    +0.000 A 
ATOM      9  C   UNL     1      20.474  -7.033  26.038  0.00  0.00    +0.000 A 
BRANCH   4  11
ATOM     10  C   UNL     1      19.651 -10.368  25.749  0.00  0.00    +0.000 C 
ATOM     11  C   UNL     1      20.161  -9.375  26.733  0.00  0.00    +0.000 C 
ATOM     12  C   UNL     1      20.356  -9.882  28.103  0.00  0.00    +0.000 C 
ENDBRANCH   4  11
ENDBRANCH   1   9
BRANCH   2  13
ATOM     13  C   UNL     1      23.746  -7.930  24.147  0.00  0.00    +0.000 A 
ATOM     14  C   UNL     1      24.482  -6.870  23.601  0.00  0.00    +0.000 A 
ATOM     15  C   UNL     1      25.774  -7.085  23.174  0.00  0.00    +0.000 A 
ATOM     16  C   UNL     1      26.370  -8.317  23.268  0.00  0.00    +0.000 A 
ATOM     17  C   UNL     1      25.675  -9.366  23.797  0.00  0.00    +0.000 A 
ATOM     18  C   UNL     1      24.344  -9.136  24.233  0.00  0.00    +0.000 A 
BRANCH  18  19
ATOM     19  N   UNL     1      23.685 -10.250  24.791  0.00  0.00    +0.000 N 
ATOM     20  O   UNL     1      23.138 -11.082  24.069  0.00  0.00    +0.000 OA
ATOM     21  O   UNL     1      23.639 -10.382  26.146  0.00  0.00    +0.000 OA
ENDBRANCH  18  19
ENDBRANCH   2  13
TORSDOF 4
ENDMDL
MODEL 6
REMARK VINA RESULT:      -6.4     17.382     20.608
REMARK  Name = 
REMARK  4 active torsions:
REMARK  status: ('A' for Active; 'I' for Inactive)
REMARK    1  A    between atoms: C_2  and  C_4
REMARK    2  A    between atoms: C_9  and  N_10
REMARK    3  A    between atoms: C_11  and  C_13
REMARK    4  A    between atoms: C_18  and  N_19
REMARK                            x       y       z     vdW  Elec       q    Type
REMARK                         _______ _______ _______ _____ _____    ______ ____
ROOT
ATOM      1  N   UNL     1      27.982  24.606  25.710  0.00  0.00    +0.000 NA
ATOM      2  C   UNL     1      27.332  23.591  26.378  0.00  0.00    +0.000 C 
ATOM      3  O   UNL     1      26.869  22.648  25.642  0.00  0.00    +0.000 OA
ENDROOT
BRANCH   1   9
ATOM      4  C   UNL     1      29.387  24.317  23.752  0.00  0.00    +0.000 A 
ATOM      5  C   UNL     1      29.603  24.445  22.368  0.00  0.00    +0.000 A 
ATOM      6  C   UNL     1      28.634  25.017  21.585  0.00  0.00    +0.000 A 
ATOM      7  C   UNL     1      27.442  25.470  22.141  0.00  0.00    +0.000 A 
ATOM      8  C   UNL     1      27.283  25.322  23.497  0.00  0.00    +0.000 A 
ATOM      9  C   UNL     1      28.239  24.747  24.335  0.00  0.00    +0.000 A 
BRANCH   4  11
ATOM     10  C   UNL     1      31.798  24.367  24.336  0.00  0.00    +0.000 C 
ATOM     11  C   UNL     1      30.470  23.716  24.500  0.00  0.00    +0.000 C 
ATOM     12  C   UNL     1      30.497  22.252  24.666  0.00  0.00    +0.000 C 
ENDBRANCH   4  11
ENDBRANCH   1   9
BRANCH   2  13
ATOM     13  C   UNL     1      27.081  23.425  27.798  0.00  0.00    +0.000 A 
ATOM     14  C   UNL     1      27.714  22.400  28.514  0.00  0.00    +0.000 A 
ATOM     15  C   UNL     1      27.405  22.206  29.843  0.00  0.00    +0.000 A 
ATOM     16  C   UNL     1      26.491  22.993  30.496  0.00  0.00    +0.000 A 
ATOM     17  C   UNL     1      25.862  23.999  29.821  0.00  0.00    +0.000 A 
ATOM     18  C   UNL     1      26.184  24.192  28.451  0.00  0.00    +0.000 A 
BRANCH  18  19
ATOM     19  N   UNL     1      25.520  25.260  27.814  0.00  0.00    +0.000 N 
ATOM     20  O   UNL     1      25.965  26.405  27.882  0.00  0.00    +0.000 OA
ATOM     21  O   UNL     1      24.363  25.013  27.140  0.00  0.00    +0.000 OA
ENDBRANCH  18  19
ENDBRANCH   2  13
TORSDOF 4
ENDMDL
MODEL 7
REMARK VINA RESULT:      -6.3     17.744     19.575
REMARK  Name = 
REMARK  4 active torsions:
REMARK  status: ('A' for Active; 'I' for Inactive)
REMARK    1  A    between atoms: C_2  and  C_4
REMARK    2  A    between atoms: C_9  and  N_10
REMARK    3  A    between atoms: C_11  and  C_13
REMARK    4  A    between atoms: C_18  and  N_19
REMARK                            x       y       z     vdW  Elec       q    Type
REMARK                         _______ _______ _______ _____ _____    ______ ____
ROOT
ATOM      1  N   UNL     1      26.375  25.056  26.088  0.00  0.00    +0.000 NA
ATOM      2  C   UNL     1      26.761  23.814  25.635  0.00  0.00    +0.000 C 
ATOM      3  O   UNL     1      25.812  22.978  25.427  0.00  0.00    +0.000 OA
ENDROOT
BRANCH   1   9
ATOM      4  C   UNL     1      24.581  25.718  27.583  0.00  0.00    +0.000 A 
ATOM      5  C   UNL     1      23.296  26.247  27.797  0.00  0.00    +0.000 A 
ATOM      6  C   UNL     1      22.527  26.607  26.722  0.00  0.00    +0.000 A 
ATOM      7  C   UNL     1      23.002  26.457  25.422  0.00  0.00    +0.000 A 
ATOM      8  C   UNL     1      24.263  25.935  25.270  0.00  0.00    +0.000 A 
ATOM      9  C   UNL     1      25.083  25.554  26.333  0.00  0.00    +0.000 A 
BRANCH   4  11
ATOM     10  C   UNL     1      25.716  23.923  28.867  0.00  0.00    +0.000 C 
ATOM     11  C   UNL     1      25.313  25.353  28.777  0.00  0.00    +0.000 C 
ATOM     12  C   UNL     1      24.959  25.994  30.055  0.00  0.00    +0.000 C 
ENDBRANCH   4  11
ENDBRANCH   1   9
BRANCH   2  13
ATOM     13  C   UNL     1      28.090  23.298  25.359  0.00  0.00    +0.000 A 
ATOM     14  C   UNL     1      28.840  22.692  26.376  0.00  0.00    +0.000 A 
ATOM     15  C   UNL     1      30.129  22.279  26.119  0.00  0.00    +0.000 A 
ATOM     16  C   UNL     1      30.709  22.443  24.886  0.00  0.00    +0.000 A 
ATOM     17  C   UNL     1      29.999  23.029  23.879  0.00  0.00    +0.000 A 
ATOM     18  C   UNL     1      28.671  23.453  24.152  0.00  0.00    +0.000 A 
BRANCH  18  19
ATOM     19  N   UNL     1      27.981  24.030  23.067  0.00  0.00    +0.000 N 
ATOM     20  O   UNL     1      27.366  23.324  22.269  0.00  0.00    +0.000 OA
ATOM     21  O   UNL     1      28.024  25.380  22.897  0.00  0.00    +0.000 OA
ENDBRANCH  18  19
ENDBRANCH   2  13
TORSDOF 4
ENDMDL
MODEL 8
REMARK VINA RESULT:      -6.3     17.685     19.997
REMARK  Name = 
REMARK  4 active torsions:
REMARK  status: ('A' for Active; 'I' for Inactive)
REMARK    1  A    between atoms: C_2  and  C_4
REMARK    2  A    between atoms: C_9  and  N_10
REMARK    3  A    between atoms: C_11  and  C_13
REMARK    4  A    between atoms: C_18  and  N_19
REMARK                            x       y       z     vdW  Elec       q    Type
REMARK                         _______ _______ _______ _____ _____    ______ ____
ROOT
ATOM      1  N   UNL     1      28.495  22.545  26.934  0.00  0.00    +0.000 NA
ATOM      2  C   UNL     1      28.869  23.349  27.989  0.00  0.00    +0.000 C 
ATOM      3  O   UNL     1      28.586  24.594  27.867  0.00  0.00    +0.000 OA
ENDROOT
BRANCH   1   9
ATOM      4  C   UNL     1      28.463  23.320  24.635  0.00  0.00    +0.000 A 
ATOM      5  C   UNL     1      27.765  23.625  23.453  0.00  0.00    +0.000 A 
ATOM      6  C   UNL     1      26.403  23.482  23.419  0.00  0.00    +0.000 A 
ATOM      7  C   UNL     1      25.703  23.037  24.538  0.00  0.00    +0.000 A 
ATOM      8  C   UNL     1      26.434  22.755  25.665  0.00  0.00    +0.000 A 
ATOM      9  C   UNL     1      27.821  22.886  25.748  0.00  0.00    +0.000 A 
BRANCH   4  11
ATOM     10  C   UNL     1      30.349  24.703  23.806  0.00  0.00    +0.000 C 
ATOM     11  C   UNL     1      29.896  23.517  24.582  0.00  0.00    +0.000 C 
ATOM     12  C   UNL     1      30.776  22.338  24.511  0.00  0.00    +0.000 C 
ENDBRANCH   4  11
ENDBRANCH   1   9
BRANCH   2  13
ATOM     13  C   UNL     1      29.545  23.003  29.226  0.00  0.00    +0.000 A 
ATOM     14  C   UNL     1      30.945  22.984  29.287  0.00  0.00    +0.000 A 
ATOM     15  C   UNL     1      31.572  22.577  30.444  0.00  0.00    +0.000 A 
ATOM     16  C   UNL     1      30.863  22.186  31.552  0.00  0.00    +0.000 A 
ATOM     17  C   UNL     1      29.498  22.197  31.519  0.00  0.00    +0.000 A 
ATOM     18  C   UNL     1      28.860  22.617  30.322  0.00  0.00    +0.000 A 
BRANCH  18  19
ATOM     19  N   UNL     1      27.451  22.629  30.355  0.00  0.00    +0.000 N 
ATOM     20  O   UNL     1      26.840  23.646  30.680  0.00  0.00    +0.000 OA
ATOM     21  O   UNL     1      26.771  21.490  30.047  0.00  0.00    +0.000 OA
ENDBRANCH  18  19
ENDBRANCH   2  13
TORSDOF 4
ENDMDL
MODEL 9
REMARK VINA RESULT:      -6.3     17.554     19.716
REMARK  Name = 
REMARK  4 active torsions:
REMARK  status: ('A' for Active; 'I' for Inactive)
REMARK    1  A    between atoms: C_2  and  C_4
REMARK    2  A    between atoms: C_9  and  N_10
REMARK    3  A    between atoms: C_11  and  C_13
REMARK    4  A    between atoms: C_18  and  N_19
REMARK                            x       y       z     vdW  Elec       q    Type
REMARK                         _______ _______ _______ _____ _____    ______ ____
ROOT
ATOM      1  N   UNL     1      27.664  24.670  26.942  0.00  0.00    +0.000 NA
ATOM      2  C   UNL     1      26.481  24.279  27.530  0.00  0.00    +0.000 C 
ATOM      3  O   UNL     1      26.138  23.059  27.333  0.00  0.00    +0.000 OA
ENDROOT
BRANCH   1   9
ATOM      4  C   UNL     1      28.439  23.747  24.836  0.00  0.00    +0.000 A 
ATOM      5  C   UNL     1      29.378  23.013  24.090  0.00  0.00    +0.000 A 
ATOM      6  C   UNL     1      30.455  22.453  24.726  0.00  0.00    +0.000 A 
ATOM      7  C   UNL     1      30.630  22.603  26.099  0.00  0.00    +0.000 A 
ATOM      8  C   UNL     1      29.682  23.328  26.779  0.00  0.00    +0.000 A 
ATOM      9  C   UNL     1      28.571  23.916  26.176  0.00  0.00    +0.000 A 
BRANCH   4  11
ATOM     10  C   UNL     1      26.235  23.326  23.776  0.00  0.00    +0.000 C 
ATOM     11  C   UNL     1      27.329  24.288  24.081  0.00  0.00    +0.000 C 
ATOM     12  C   UNL     1      27.596  25.296  23.041  0.00  0.00    +0.000 C 
ENDBRANCH   4  11
ENDBRANCH   1   9
BRANCH   2  13
ATOM     13  C   UNL     1      25.550  25.043  28.341  0.00  0.00    +0.000 A 
ATOM     14  C   UNL     1      24.635  25.916  27.736  0.00  0.00    +0.000 A 
ATOM     15  C   UNL     1      23.813  26.693  28.522  0.00  0.00    +0.000 A 
ATOM     16  C   UNL     1      23.859  26.639  29.893  0.00  0.00    +0.000 A 
ATOM     17  C   UNL     1      24.741  25.796  30.505  0.00  0.00    +0.000 A 
ATOM     18  C   UNL     1      25.586  24.999  29.688  0.00  0.00    +0.000 A 
BRANCH  18  19
ATOM     19  N   UNL     1      26.458  24.132  30.377  0.00  0.00    +0.000 N 
ATOM     20  O   UNL     1      26.069  23.033  30.769  0.00  0.00    +0.000 OA
ATOM     21  O   UNL     1      27.734  24.538  30.627  0.00  0.00    +0.000 OA
ENDBRANCH  18  19
ENDBRANCH   2  13
TORSDOF 4
ENDMDL
MODEL 10
REMARK VINA RESULT:      -6.2     18.725     21.379
REMARK  Name = 
REMARK  4 active torsions:
REMARK  status: ('A' for Active; 'I' for Inactive)
REMARK    1  A    between atoms: C_2  and  C_4
REMARK    2  A    between atoms: C_9  and  N_10
REMARK    3  A    between atoms: C_11  and  C_13
REMARK    4  A    between atoms: C_18  and  N_19
REMARK                            x       y       z     vdW  Elec       q    Type
REMARK                         _______ _______ _______ _____ _____    ______ ____
ROOT
ATOM      1  N   UNL     1      29.402  24.292  25.112  0.00  0.00    +0.000 NA
ATOM      2  C   UNL     1      30.583  23.586  25.200  0.00  0.00    +0.000 C 
ATOM      3  O   UNL     1      30.537  22.373  24.787  0.00  0.00    +0.000 OA
ENDROOT
BRANCH   1   9
ATOM      4  C   UNL     1      27.153  23.431  25.403  0.00  0.00    +0.000 A 
ATOM      5  C   UNL     1      25.904  23.058  24.874  0.00  0.00    +0.000 A 
ATOM      6  C   UNL     1      25.689  23.153  23.524  0.00  0.00    +0.000 A 
ATOM      7  C   UNL     1      26.689  23.614  22.672  0.00  0.00    +0.000 A 
ATOM      8  C   UNL     1      27.888  23.964  23.242  0.00  0.00    +0.000 A 
ATOM      9  C   UNL     1      28.155  23.884  24.609  0.00  0.00    +0.000 A 
BRANCH   4  11
ATOM     10  C   UNL     1      27.930  22.015  27.287  0.00  0.00    +0.000 C 
ATOM     11  C   UNL     1      27.293  23.282  26.836  0.00  0.00    +0.000 C 
ATOM     12  C   UNL     1      26.234  23.808  27.715  0.00  0.00    +0.000 C 
ENDBRANCH   4  11
ENDBRANCH   1   9
BRANCH   2  13
ATOM     13  C   UNL     1      31.881  24.006  25.698  0.00  0.00    +0.000 A 
ATOM     14  C   UNL     1      32.841  24.527  24.821  0.00  0.00    +0.000 A 
ATOM     15  C   UNL     1      34.095  24.847  25.294  0.00  0.00    +0.000 A 
ATOM     16  C   UNL     1      34.437  24.670  26.611  0.00  0.00    +0.000 A 
ATOM     17  C   UNL     1      33.519  24.165  27.486  0.00  0.00    +0.000 A 
ATOM     18  C   UNL     1      32.229  23.837  26.990  0.00  0.00    +0.000 A 
BRANCH  18  19
ATOM     19  N   UNL     1      31.318  23.342  27.944  0.00  0.00    +0.000 N 
ATOM     20  O   UNL     1      30.558  24.104  28.540  0.00  0.00    +0.000 OA
ATOM     21  O   UNL     1      31.305  22.008  28.217  0.00  0.00    +0.000 OA
ENDBRANCH  18  19
ENDBRANCH   2  13
TORSDOF 4
ENDMDL
