MODEL 1
REMARK VINA RESULT:      -8.2      0.000      0.000
REMARK  Name = 
REMARK  8 active torsions:
REMARK  status: ('A' for Active; 'I' for Inactive)
REMARK    1  A    between atoms: O_2  and  C_3
REMARK    2  A    between atoms: C_8  and  O_9
REMARK    3  A    between atoms: O_9  and  C_10
REMARK    4  A    between atoms: C_10  and  C_11
REMARK    5  A    between atoms: C_11  and  N_12
REMARK    6  A    between atoms: C_14  and  C_15
REMARK    7  A    between atoms: C_15  and  O_16
REMARK    8  A    between atoms: O_16  and  C_17
REMARK                            x       y       z     vdW  Elec       q    Type
REMARK                         _______ _______ _______ _____ _____    ______ ____
ROOT
ATOM      1  N   UNL     1      36.838   3.387  15.794  0.00  0.00    +0.000 N 
ATOM      2  C   UNL     1      36.460   2.455  16.841  0.00  0.00    +0.000 C 
ATOM      3  C   UNL     1      34.918   2.156  16.350  0.00  0.00    +0.000 C 
ATOM      4  O   UNL     1      35.335   1.887  14.875  0.00  0.00    +0.000 OA
ATOM      5  C   UNL     1      36.250   2.871  14.606  0.00  0.00    +0.000 C 
ATOM      6  O   UNL     1      36.544   3.279  13.449  0.00  0.00    +0.000 OA
ENDROOT
BRANCH   1   7
ATOM      7  C   UNL     1      37.643   4.580  15.955  0.00  0.00    +0.000 C 
BRANCH   7   8
ATOM      8  C   UNL     1      38.228   4.582  17.361  0.00  0.00    +0.000 C 
BRANCH   8   9
ATOM      9  O   UNL     1      39.084   5.666  17.569  0.00  0.00    +0.000 OA
BRANCH   9  15
ATOM     10  C   UNL     1      39.544   6.775  19.629  0.00  0.00    +0.000 A 
ATOM     11  C   UNL     1      39.214   7.755  20.536  0.00  0.00    +0.000 A 
ATOM     12  C   UNL     1      38.139   8.586  20.321  0.00  0.00    +0.000 A 
ATOM     13  C   UNL     1      37.351   8.463  19.177  0.00  0.00    +0.000 A 
ATOM     14  C   UNL     1      37.703   7.470  18.280  0.00  0.00    +0.000 A 
ATOM     15  C   UNL     1      38.764   6.644  18.487  0.00  0.00    +0.000 A 
BRANCH  10  17
ATOM     16  C   UNL     1      41.792   6.396  20.450  0.00  0.00    +0.000 C 
ATOM     17  O   UNL     1      40.623   5.925  19.825  0.00  0.00    +0.000 OA
ENDBRANCH  10  17
ENDBRANCH   9  15
ENDBRANCH   8   9
ENDBRANCH   7   8
ENDBRANCH   1   7
BRANCH   3  18
ATOM     18  C   UNL     1      34.901   0.581  16.780  0.00  0.00    +0.000 C 
BRANCH  18  19
ATOM     19  O   UNL     1      36.031   0.093  17.181  0.00  0.00    +0.000 OA
BRANCH  19  20
ATOM     20  C   UNL     1      36.774  -0.827  17.772  0.00  0.00    +0.000 A 
ATOM     21  C   UNL     1      36.743  -1.189  19.101  0.00  0.00    +0.000 A 
ATOM     22  C   UNL     1      37.508  -2.138  19.700  0.00  0.00    +0.000 A 
ATOM     23  C   UNL     1      38.412  -2.819  18.918  0.00  0.00    +0.000 A 
ATOM     24  C   UNL     1      38.496  -2.509  17.578  0.00  0.00    +0.000 A 
ATOM     25  N   UNL     1      39.287  -3.021  16.613  0.00  0.00    +0.000 NA
ATOM     26  C   UNL     1      39.039  -2.422  15.436  0.00  0.00    +0.000 A 
ATOM     27  C   UNL     1      39.584  -2.599  14.173  0.00  0.00    +0.000 A 
ATOM     28  C   UNL     1      39.106  -1.815  13.149  0.00  0.00    +0.000 A 
ATOM     29  C   UNL     1      38.115  -0.881  13.370  0.00  0.00    +0.000 A 
ATOM     30  C   UNL     1      37.560  -0.694  14.639  0.00  0.00    +0.000 A 
ATOM     31  C   UNL     1      38.041  -1.481  15.657  0.00  0.00    +0.000 A 
ATOM     32  C   UNL     1      37.711  -1.544  16.997  0.00  0.00    +0.000 A 
ENDBRANCH  19  20
ENDBRANCH  18  19
ENDBRANCH   3  18
TORSDOF 8
ENDMDL
MODEL 2
REMARK VINA RESULT:      -8.2     24.811     28.252
REMARK  Name = 
REMARK  8 active torsions:
REMARK  status: ('A' for Active; 'I' for Inactive)
REMARK    1  A    between atoms: O_2  and  C_3
REMARK    2  A    between atoms: C_8  and  O_9
REMARK    3  A    between atoms: O_9  and  C_10
REMARK    4  A    between atoms: C_10  and  C_11
REMARK    5  A    between atoms: C_11  and  N_12
REMARK    6  A    between atoms: C_14  and  C_15
REMARK    7  A    between atoms: C_15  and  O_16
REMARK    8  A    between atoms: O_16  and  C_17
REMARK                            x       y       z     vdW  Elec       q    Type
REMARK                         _______ _______ _______ _____ _____    ______ ____
ROOT
ATOM      1  N   UNL     1      25.283  14.555  40.426  0.00  0.00    +0.000 N 
ATOM      2  C   UNL     1      26.050  15.113  39.328  0.00  0.00    +0.000 C 
ATOM      3  C   UNL     1      24.827  15.270  38.238  0.00  0.00    +0.000 C 
ATOM      4  O   UNL     1      23.880  15.971  39.253  0.00  0.00    +0.000 OA
ATOM      5  C   UNL     1      24.043  15.253  40.409  0.00  0.00    +0.000 C 
ATOM      6  O   UNL     1      23.204  15.209  41.350  0.00  0.00    +0.000 OA
ENDROOT
BRANCH   1   7
ATOM      7  C   UNL     1      25.713  13.510  41.332  0.00  0.00    +0.000 C 
BRANCH   7   8
ATOM      8  C   UNL     1      26.654  12.578  40.581  0.00  0.00    +0.000 C 
BRANCH   8   9
ATOM      9  O   UNL     1      26.368  11.233  40.832  0.00  0.00    +0.000 OA
BRANCH   9  15
ATOM     10  C   UNL     1      27.101   9.133  41.689  0.00  0.00    +0.000 A 
ATOM     11  C   UNL     1      28.127   8.240  41.897  0.00  0.00    +0.000 A 
ATOM     12  C   UNL     1      29.407   8.525  41.481  0.00  0.00    +0.000 A 
ATOM     13  C   UNL     1      29.705   9.725  40.835  0.00  0.00    +0.000 A 
ATOM     14  C   UNL     1      28.655  10.605  40.638  0.00  0.00    +0.000 A 
ATOM     15  C   UNL     1      27.388  10.330  41.048  0.00  0.00    +0.000 A 
BRANCH  10  17
ATOM     16  C   UNL     1      25.412   9.119  43.428  0.00  0.00    +0.000 C 
ATOM     17  O   UNL     1      25.803   8.867  42.100  0.00  0.00    +0.000 OA
ENDBRANCH  10  17
ENDBRANCH   9  15
ENDBRANCH   8   9
ENDBRANCH   7   8
ENDBRANCH   1   7
BRANCH   3  18
ATOM     18  C   UNL     1      25.368  16.658  37.568  0.00  0.00    +0.000 C 
BRANCH  18  19
ATOM     19  O   UNL     1      25.682  16.594  36.314  0.00  0.00    +0.000 OA
BRANCH  19  20
ATOM     20  C   UNL     1      25.569  16.095  35.095  0.00  0.00    +0.000 A 
ATOM     21  C   UNL     1      25.887  14.817  34.689  0.00  0.00    +0.000 A 
ATOM     22  C   UNL     1      25.764  14.312  33.434  0.00  0.00    +0.000 A 
ATOM     23  C   UNL     1      25.276  15.144  32.454  0.00  0.00    +0.000 A 
ATOM     24  C   UNL     1      24.937  16.437  32.789  0.00  0.00    +0.000 A 
ATOM     25  N   UNL     1      24.445  17.435  32.027  0.00  0.00    +0.000 NA
ATOM     26  C   UNL     1      24.258  18.541  32.765  0.00  0.00    +0.000 A 
ATOM     27  C   UNL     1      23.780  19.803  32.440  0.00  0.00    +0.000 A 
ATOM     28  C   UNL     1      23.706  20.741  33.443  0.00  0.00    +0.000 A 
ATOM     29  C   UNL     1      24.094  20.440  34.732  0.00  0.00    +0.000 A 
ATOM     30  C   UNL     1      24.578  19.172  35.069  0.00  0.00    +0.000 A 
ATOM     31  C   UNL     1      24.649  18.239  34.063  0.00  0.00    +0.000 A 
ATOM     32  C   UNL     1      25.071  16.924  34.066  0.00  0.00    +0.000 A 
ENDBRANCH  19  20
ENDBRANCH  18  19
ENDBRANCH   3  18
TORSDOF 8
ENDMDL
MODEL 3
REMARK VINA RESULT:      -8.1      1.492      2.294
REMARK  Name = 
REMARK  8 active torsions:
REMARK  status: ('A' for Active; 'I' for Inactive)
REMARK    1  A    between atoms: O_2  and  C_3
REMARK    2  A    between atoms: C_8  and  O_9
REMARK    3  A    between atoms: O_9  and  C_10
REMARK    4  A    between atoms: C_10  and  C_11
REMARK    5  A    between atoms: C_11  and  N_12
REMARK    6  A    between atoms: C_14  and  C_15
REMARK    7  A    between atoms: C_15  and  O_16
REMARK    8  A    between atoms: O_16  and  C_17
REMARK                            x       y       z     vdW  Elec       q    Type
REMARK                         _______ _______ _______ _____ _____    ______ ____
ROOT
ATOM      1  N   UNL     1      36.891   4.858  14.492  0.00  0.00    +0.000 N 
ATOM      2  C   UNL     1      37.133   3.470  14.840  0.00  0.00    +0.000 C 
ATOM      3  C   UNL     1      35.716   3.170  15.622  0.00  0.00    +0.000 C 
ATOM      4  O   UNL     1      34.846   3.779  14.485  0.00  0.00    +0.000 OA
ATOM      5  C   UNL     1      35.517   4.919  14.129  0.00  0.00    +0.000 C 
ATOM      6  O   UNL     1      34.992   5.908  13.549  0.00  0.00    +0.000 OA
ENDROOT
BRANCH   1   7
ATOM      7  C   UNL     1      37.862   5.933  14.519  0.00  0.00    +0.000 C 
BRANCH   7   8
ATOM      8  C   UNL     1      38.703   5.793  15.780  0.00  0.00    +0.000 C 
BRANCH   8   9
ATOM      9  O   UNL     1      37.959   6.043  16.935  0.00  0.00    +0.000 OA
BRANCH   9  15
ATOM     10  C   UNL     1      38.144   7.682  18.656  0.00  0.00    +0.000 A 
ATOM     11  C   UNL     1      38.770   8.121  19.800  0.00  0.00    +0.000 A 
ATOM     12  C   UNL     1      39.799   7.403  20.364  0.00  0.00    +0.000 A 
ATOM     13  C   UNL     1      40.240   6.209  19.795  0.00  0.00    +0.000 A 
ATOM     14  C   UNL     1      39.595   5.789  18.645  0.00  0.00    +0.000 A 
ATOM     15  C   UNL     1      38.578   6.495  18.082  0.00  0.00    +0.000 A 
BRANCH  10  17
ATOM     16  C   UNL     1      37.179   9.789  17.946  0.00  0.00    +0.000 C 
ATOM     17  O   UNL     1      37.104   8.389  18.071  0.00  0.00    +0.000 OA
ENDBRANCH  10  17
ENDBRANCH   9  15
ENDBRANCH   8   9
ENDBRANCH   7   8
ENDBRANCH   1   7
BRANCH   3  18
ATOM     18  C   UNL     1      35.558   1.627  15.109  0.00  0.00    +0.000 C 
BRANCH  18  19
ATOM     19  O   UNL     1      36.158   0.731  15.825  0.00  0.00    +0.000 OA
BRANCH  19  20
ATOM     20  C   UNL     1      36.339   0.038  16.936  0.00  0.00    +0.000 A 
ATOM     21  C   UNL     1      35.644   0.171  18.119  0.00  0.00    +0.000 A 
ATOM     22  C   UNL     1      35.835  -0.547  19.256  0.00  0.00    +0.000 A 
ATOM     23  C   UNL     1      36.817  -1.510  19.247  0.00  0.00    +0.000 A 
ATOM     24  C   UNL     1      37.552  -1.699  18.097  0.00  0.00    +0.000 A 
ATOM     25  N   UNL     1      38.553  -2.563  17.834  0.00  0.00    +0.000 NA
ATOM     26  C   UNL     1      38.991  -2.405  16.573  0.00  0.00    +0.000 A 
ATOM     27  C   UNL     1      39.985  -3.047  15.850  0.00  0.00    +0.000 A 
ATOM     28  C   UNL     1      40.196  -2.649  14.551  0.00  0.00    +0.000 A 
ATOM     29  C   UNL     1      39.443  -1.643  13.983  0.00  0.00    +0.000 A 
ATOM     30  C   UNL     1      38.439  -0.989  14.703  0.00  0.00    +0.000 A 
ATOM     31  C   UNL     1      38.233  -1.391  16.001  0.00  0.00    +0.000 A 
ATOM     32  C   UNL     1      37.339  -0.959  16.960  0.00  0.00    +0.000 A 
ENDBRANCH  19  20
ENDBRANCH  18  19
ENDBRANCH   3  18
TORSDOF 8
ENDMDL
MODEL 4
REMARK VINA RESULT:      -7.8     24.733     28.812
REMARK  Name = 
REMARK  8 active torsions:
REMARK  status: ('A' for Active; 'I' for Inactive)
REMARK    1  A    between atoms: O_2  and  C_3
REMARK    2  A    between atoms: C_8  and  O_9
REMARK    3  A    between atoms: O_9  and  C_10
REMARK    4  A    between atoms: C_10  and  C_11
REMARK    5  A    between atoms: C_11  and  N_12
REMARK    6  A    between atoms: C_14  and  C_15
REMARK    7  A    between atoms: C_15  and  O_16
REMARK    8  A    between atoms: O_16  and  C_17
REMARK                            x       y       z     vdW  Elec       q    Type
REMARK                         _______ _______ _______ _____ _____    ______ ____
ROOT
ATOM      1  N   UNL     1      25.005  15.425  40.577  0.00  0.00    +0.000 N 
ATOM      2  C   UNL     1      26.143  15.960  39.851  0.00  0.00    +0.000 C 
ATOM      3  C   UNL     1      26.170  14.872  38.616  0.00  0.00    +0.000 C 
ATOM      4  O   UNL     1      24.647  15.010  38.330  0.00  0.00    +0.000 OA
ATOM      5  C   UNL     1      24.076  15.027  39.577  0.00  0.00    +0.000 C 
ATOM      6  O   UNL     1      22.875  14.727  39.819  0.00  0.00    +0.000 OA
ENDROOT
BRANCH   1   7
ATOM      7  C   UNL     1      24.872  15.330  42.017  0.00  0.00    +0.000 C 
BRANCH   7   8
ATOM      8  C   UNL     1      25.727  14.169  42.505  0.00  0.00    +0.000 C 
BRANCH   8   9
ATOM      9  O   UNL     1      25.095  12.938  42.313  0.00  0.00    +0.000 OA
BRANCH   9  15
ATOM     10  C   UNL     1      25.653  10.698  42.908  0.00  0.00    +0.000 A 
ATOM     11  C   UNL     1      26.400   9.568  42.666  0.00  0.00    +0.000 A 
ATOM     12  C   UNL     1      27.307   9.527  41.633  0.00  0.00    +0.000 A 
ATOM     13  C   UNL     1      27.498  10.628  40.798  0.00  0.00    +0.000 A 
ATOM     14  C   UNL     1      26.735  11.752  41.062  0.00  0.00    +0.000 A 
ATOM     15  C   UNL     1      25.837  11.799  42.083  0.00  0.00    +0.000 A 
BRANCH  10  17
ATOM     16  C   UNL     1      23.458  10.182  43.798  0.00  0.00    +0.000 C 
ATOM     17  O   UNL     1      24.732  10.761  43.944  0.00  0.00    +0.000 OA
ENDBRANCH  10  17
ENDBRANCH   9  15
ENDBRANCH   8   9
ENDBRANCH   7   8
ENDBRANCH   1   7
BRANCH   3  18
ATOM     18  C   UNL     1      26.626  15.932  37.461  0.00  0.00    +0.000 C 
BRANCH  18  19
ATOM     19  O   UNL     1      25.881  15.969  36.403  0.00  0.00    +0.000 OA
BRANCH  19  20
ATOM     20  C   UNL     1      25.654  15.778  35.115  0.00  0.00    +0.000 A 
ATOM     21  C   UNL     1      25.868  14.620  34.399  0.00  0.00    +0.000 A 
ATOM     22  C   UNL     1      25.628  14.431  33.075  0.00  0.00    +0.000 A 
ATOM     23  C   UNL     1      25.120  15.489  32.359  0.00  0.00    +0.000 A 
ATOM     24  C   UNL     1      24.879  16.678  33.012  0.00  0.00    +0.000 A 
ATOM     25  N   UNL     1      24.392  17.846  32.546  0.00  0.00    +0.000 NA
ATOM     26  C   UNL     1      24.321  18.753  33.534  0.00  0.00    +0.000 A 
ATOM     27  C   UNL     1      23.894  20.073  33.552  0.00  0.00    +0.000 A 
ATOM     28  C   UNL     1      23.944  20.750  34.748  0.00  0.00    +0.000 A 
ATOM     29  C   UNL     1      24.406  20.138  35.895  0.00  0.00    +0.000 A 
ATOM     30  C   UNL     1      24.839  18.809  35.887  0.00  0.00    +0.000 A 
ATOM     31  C   UNL     1      24.785  18.138  34.689  0.00  0.00    +0.000 A 
ATOM     32  C   UNL     1      25.131  16.844  34.351  0.00  0.00    +0.000 A 
ENDBRANCH  19  20
ENDBRANCH  18  19
ENDBRANCH   3  18
TORSDOF 8
ENDMDL
MODEL 5
REMARK VINA RESULT:      -7.7      1.314      3.122
REMARK  Name = 
REMARK  8 active torsions:
REMARK  status: ('A' for Active; 'I' for Inactive)
REMARK    1  A    between atoms: O_2  and  C_3
REMARK    2  A    between atoms: C_8  and  O_9
REMARK    3  A    between atoms: O_9  and  C_10
REMARK    4  A    between atoms: C_10  and  C_11
REMARK    5  A    between atoms: C_11  and  N_12
REMARK    6  A    between atoms: C_14  and  C_15
REMARK    7  A    between atoms: C_15  and  O_16
REMARK    8  A    between atoms: O_16  and  C_17
REMARK                            x       y       z     vdW  Elec       q    Type
REMARK                         _______ _______ _______ _____ _____    ______ ____
ROOT
ATOM      1  N   UNL     1      37.839   3.890  15.187  0.00  0.00    +0.000 N 
ATOM      2  C   UNL     1      36.897   2.790  15.092  0.00  0.00    +0.000 C 
ATOM      3  C   UNL     1      37.023   2.507  13.476  0.00  0.00    +0.000 C 
ATOM      4  O   UNL     1      38.578   2.491  13.500  0.00  0.00    +0.000 OA
ATOM      5  C   UNL     1      38.907   3.544  14.314  0.00  0.00    +0.000 C 
ATOM      6  O   UNL     1      40.018   4.141  14.299  0.00  0.00    +0.000 OA
ENDROOT
BRANCH   1   7
ATOM      7  C   UNL     1      37.696   5.076  16.006  0.00  0.00    +0.000 C 
BRANCH   7   8
ATOM      8  C   UNL     1      38.486   4.875  17.291  0.00  0.00    +0.000 C 
BRANCH   8   9
ATOM      9  O   UNL     1      39.263   5.991  17.607  0.00  0.00    +0.000 OA
BRANCH   9  15
ATOM     10  C   UNL     1      39.449   6.957  19.779  0.00  0.00    +0.000 A 
ATOM     11  C   UNL     1      39.001   7.877  20.699  0.00  0.00    +0.000 A 
ATOM     12  C   UNL     1      37.962   8.727  20.402  0.00  0.00    +0.000 A 
ATOM     13  C   UNL     1      37.330   8.685  19.160  0.00  0.00    +0.000 A 
ATOM     14  C   UNL     1      37.798   7.752  18.251  0.00  0.00    +0.000 A 
ATOM     15  C   UNL     1      38.825   6.908  18.540  0.00  0.00    +0.000 A 
BRANCH  10  17
ATOM     16  C   UNL     1      41.823   6.554  20.048  0.00  0.00    +0.000 C 
ATOM     17  O   UNL     1      40.495   6.090  20.057  0.00  0.00    +0.000 OA
ENDBRANCH  10  17
ENDBRANCH   9  15
ENDBRANCH   8   9
ENDBRANCH   7   8
ENDBRANCH   1   7
BRANCH   3  18
ATOM     18  C   UNL     1      36.864   0.884  13.571  0.00  0.00    +0.000 C 
BRANCH  18  19
ATOM     19  O   UNL     1      37.663   0.287  14.396  0.00  0.00    +0.000 OA
BRANCH  19  20
ATOM     20  C   UNL     1      38.419  -0.728  14.777  0.00  0.00    +0.000 A 
ATOM     21  C   UNL     1      39.414  -1.341  14.046  0.00  0.00    +0.000 A 
ATOM     22  C   UNL     1      40.190  -2.382  14.447  0.00  0.00    +0.000 A 
ATOM     23  C   UNL     1      39.977  -2.891  15.707  0.00  0.00    +0.000 A 
ATOM     24  C   UNL     1      38.998  -2.325  16.494  0.00  0.00    +0.000 A 
ATOM     25  N   UNL     1      38.598  -2.634  17.745  0.00  0.00    +0.000 NA
ATOM     26  C   UNL     1      37.602  -1.821  18.134  0.00  0.00    +0.000 A 
ATOM     27  C   UNL     1      36.873  -1.745  19.313  0.00  0.00    +0.000 A 
ATOM     28  C   UNL     1      35.898  -0.780  19.406  0.00  0.00    +0.000 A 
ATOM     29  C   UNL     1      35.649   0.085  18.361  0.00  0.00    +0.000 A 
ATOM     30  C   UNL     1      36.376   0.017  17.169  0.00  0.00    +0.000 A 
ATOM     31  C   UNL     1      37.350  -0.949  17.082  0.00  0.00    +0.000 A 
ATOM     32  C   UNL     1      38.227  -1.273  16.066  0.00  0.00    +0.000 A 
ENDBRANCH  19  20
ENDBRANCH  18  19
ENDBRANCH   3  18
TORSDOF 8
ENDMDL
MODEL 6
REMARK VINA RESULT:      -7.7      1.280      3.407
REMARK  Name = 
REMARK  8 active torsions:
REMARK  status: ('A' for Active; 'I' for Inactive)
REMARK    1  A    between atoms: O_2  and  C_3
REMARK    2  A    between atoms: C_8  and  O_9
REMARK    3  A    between atoms: O_9  and  C_10
REMARK    4  A    between atoms: C_10  and  C_11
REMARK    5  A    between atoms: C_11  and  N_12
REMARK    6  A    between atoms: C_14  and  C_15
REMARK    7  A    between atoms: C_15  and  O_16
REMARK    8  A    between atoms: O_16  and  C_17
REMARK                            x       y       z     vdW  Elec       q    Type
REMARK                         _______ _______ _______ _____ _____    ______ ____
ROOT
ATOM      1  N   UNL     1      36.980   4.265  14.631  0.00  0.00    +0.000 N 
ATOM      2  C   UNL     1      37.376   2.868  14.646  0.00  0.00    +0.000 C 
ATOM      3  C   UNL     1      36.057   2.255  15.416  0.00  0.00    +0.000 C 
ATOM      4  O   UNL     1      35.050   2.999  14.493  0.00  0.00    +0.000 OA
ATOM      5  C   UNL     1      35.583   4.255  14.364  0.00  0.00    +0.000 C 
ATOM      6  O   UNL     1      34.926   5.284  14.050  0.00  0.00    +0.000 OA
ENDROOT
BRANCH   1   7
ATOM      7  C   UNL     1      37.847   5.406  14.844  0.00  0.00    +0.000 C 
BRANCH   7   8
ATOM      8  C   UNL     1      38.405   5.330  16.259  0.00  0.00    +0.000 C 
BRANCH   8   9
ATOM      9  O   UNL     1      38.734   6.592  16.759  0.00  0.00    +0.000 OA
BRANCH   9  15
ATOM     10  C   UNL     1      38.840   7.288  19.037  0.00  0.00    +0.000 A 
ATOM     11  C   UNL     1      39.568   7.404  20.198  0.00  0.00    +0.000 A 
ATOM     12  C   UNL     1      40.870   6.965  20.265  0.00  0.00    +0.000 A 
ATOM     13  C   UNL     1      41.493   6.388  19.158  0.00  0.00    +0.000 A 
ATOM     14  C   UNL     1      40.740   6.282  18.002  0.00  0.00    +0.000 A 
ATOM     15  C   UNL     1      39.452   6.715  17.930  0.00  0.00    +0.000 A 
BRANCH  10  17
ATOM     16  C   UNL     1      37.234   9.099  18.921  0.00  0.00    +0.000 C 
ATOM     17  O   UNL     1      37.526   7.723  18.947  0.00  0.00    +0.000 OA
ENDBRANCH  10  17
ENDBRANCH   9  15
ENDBRANCH   8   9
ENDBRANCH   7   8
ENDBRANCH   1   7
BRANCH   3  18
ATOM     18  C   UNL     1      36.005   0.853  14.581  0.00  0.00    +0.000 C 
BRANCH  18  19
ATOM     19  O   UNL     1      36.847  -0.057  14.953  0.00  0.00    +0.000 OA
BRANCH  19  20
ATOM     20  C   UNL     1      37.823  -0.920  14.732  0.00  0.00    +0.000 A 
ATOM     21  C   UNL     1      38.472  -1.149  13.538  0.00  0.00    +0.000 A 
ATOM     22  C   UNL     1      39.478  -2.036  13.319  0.00  0.00    +0.000 A 
ATOM     23  C   UNL     1      39.906  -2.793  14.384  0.00  0.00    +0.000 A 
ATOM     24  C   UNL     1      39.302  -2.616  15.610  0.00  0.00    +0.000 A 
ATOM     25  N   UNL     1      39.533  -3.223  16.792  0.00  0.00    +0.000 NA
ATOM     26  C   UNL     1      38.707  -2.744  17.736  0.00  0.00    +0.000 A 
ATOM     27  C   UNL     1      38.562  -3.046  19.083  0.00  0.00    +0.000 A 
ATOM     28  C   UNL     1      37.605  -2.365  19.796  0.00  0.00    +0.000 A 
ATOM     29  C   UNL     1      36.810  -1.411  19.194  0.00  0.00    +0.000 A 
ATOM     30  C   UNL     1      36.947  -1.099  17.839  0.00  0.00    +0.000 A 
ATOM     31  C   UNL     1      37.906  -1.783  17.131  0.00  0.00    +0.000 A 
ATOM     32  C   UNL     1      38.287  -1.713  15.805  0.00  0.00    +0.000 A 
ENDBRANCH  19  20
ENDBRANCH  18  19
ENDBRANCH   3  18
TORSDOF 8
ENDMDL
MODEL 7
REMARK VINA RESULT:      -7.6      1.698      2.784
REMARK  Name = 
REMARK  8 active torsions:
REMARK  status: ('A' for Active; 'I' for Inactive)
REMARK    1  A    between atoms: O_2  and  C_3
REMARK    2  A    between atoms: C_8  and  O_9
REMARK    3  A    between atoms: O_9  and  C_10
REMARK    4  A    between atoms: C_10  and  C_11
REMARK    5  A    between atoms: C_11  and  N_12
REMARK    6  A    between atoms: C_14  and  C_15
REMARK    7  A    between atoms: C_15  and  O_16
REMARK    8  A    between atoms: O_16  and  C_17
REMARK                            x       y       z     vdW  Elec       q    Type
REMARK                         _______ _______ _______ _____ _____    ______ ____
ROOT
ATOM      1  N   UNL     1      37.953   5.295  16.191  0.00  0.00    +0.000 N 
ATOM      2  C   UNL     1      37.859   3.853  16.329  0.00  0.00    +0.000 C 
ATOM      3  C   UNL     1      36.395   3.640  15.609  0.00  0.00    +0.000 C 
ATOM      4  O   UNL     1      36.768   4.503  14.370  0.00  0.00    +0.000 OA
ATOM      5  C   UNL     1      37.422   5.583  14.903  0.00  0.00    +0.000 C 
ATOM      6  O   UNL     1      37.544   6.701  14.332  0.00  0.00    +0.000 OA
ENDROOT
BRANCH   1   7
ATOM      7  C   UNL     1      38.480   6.220  17.173  0.00  0.00    +0.000 C 
BRANCH   7   8
ATOM      8  C   UNL     1      39.002   5.420  18.359  0.00  0.00    +0.000 C 
BRANCH   8   9
ATOM      9  O   UNL     1      39.065   6.191  19.522  0.00  0.00    +0.000 OA
BRANCH   9  15
ATOM     10  C   UNL     1      40.202   8.252  19.906  0.00  0.00    +0.000 A 
ATOM     11  C   UNL     1      41.363   8.910  20.238  0.00  0.00    +0.000 A 
ATOM     12  C   UNL     1      42.518   8.214  20.512  0.00  0.00    +0.000 A 
ATOM     13  C   UNL     1      42.548   6.821  20.462  0.00  0.00    +0.000 A 
ATOM     14  C   UNL     1      41.367   6.182  20.126  0.00  0.00    +0.000 A 
ATOM     15  C   UNL     1      40.223   6.864  19.853  0.00  0.00    +0.000 A 
BRANCH  10  17
ATOM     16  C   UNL     1      38.237   9.445  20.672  0.00  0.00    +0.000 C 
ATOM     17  O   UNL     1      39.026   8.933  19.627  0.00  0.00    +0.000 OA
ENDBRANCH  10  17
ENDBRANCH   9  15
ENDBRANCH   8   9
ENDBRANCH   7   8
ENDBRANCH   1   7
BRANCH   3  18
ATOM     18  C   UNL     1      36.756   2.213  14.901  0.00  0.00    +0.000 C 
BRANCH  18  19
ATOM     19  O   UNL     1      36.873   1.201  15.699  0.00  0.00    +0.000 OA
BRANCH  19  20
ATOM     20  C   UNL     1      36.458   0.061  16.224  0.00  0.00    +0.000 A 
ATOM     21  C   UNL     1      35.253  -0.173  16.850  0.00  0.00    +0.000 A 
ATOM     22  C   UNL     1      34.833  -1.349  17.385  0.00  0.00    +0.000 A 
ATOM     23  C   UNL     1      35.682  -2.429  17.304  0.00  0.00    +0.000 A 
ATOM     24  C   UNL     1      36.904  -2.267  16.690  0.00  0.00    +0.000 A 
ATOM     25  N   UNL     1      37.901  -3.152  16.485  0.00  0.00    +0.000 NA
ATOM     26  C   UNL     1      38.925  -2.566  15.842  0.00  0.00    +0.000 A 
ATOM     27  C   UNL     1      40.152  -3.053  15.415  0.00  0.00    +0.000 A 
ATOM     28  C   UNL     1      41.000  -2.184  14.769  0.00  0.00    +0.000 A 
ATOM     29  C   UNL     1      40.645  -0.869  14.553  0.00  0.00    +0.000 A 
ATOM     30  C   UNL     1      39.411  -0.368  14.980  0.00  0.00    +0.000 A 
ATOM     31  C   UNL     1      38.568  -1.241  15.624  0.00  0.00    +0.000 A 
ATOM     32  C   UNL     1      37.306  -1.067  16.157  0.00  0.00    +0.000 A 
ENDBRANCH  19  20
ENDBRANCH  18  19
ENDBRANCH   3  18
TORSDOF 8
ENDMDL
MODEL 8
REMARK VINA RESULT:      -7.6     23.081     26.127
REMARK  Name = 
REMARK  8 active torsions:
REMARK  status: ('A' for Active; 'I' for Inactive)
REMARK    1  A    between atoms: O_2  and  C_3
REMARK    2  A    between atoms: C_8  and  O_9
REMARK    3  A    between atoms: O_9  and  C_10
REMARK    4  A    between atoms: C_10  and  C_11
REMARK    5  A    between atoms: C_11  and  N_12
REMARK    6  A    between atoms: C_14  and  C_15
REMARK    7  A    between atoms: C_15  and  O_16
REMARK    8  A    between atoms: O_16  and  C_17
REMARK                            x       y       z     vdW  Elec       q    Type
REMARK                         _______ _______ _______ _____ _____    ______ ____
ROOT
ATOM      1  N   UNL     1      16.657  -0.562  26.619  0.00  0.00    +0.000 N 
ATOM      2  C   UNL     1      15.385  -0.602  25.921  0.00  0.00    +0.000 C 
ATOM      3  C   UNL     1      14.392  -0.542  27.232  0.00  0.00    +0.000 C 
ATOM      4  O   UNL     1      15.144   0.661  27.870  0.00  0.00    +0.000 OA
ATOM      5  C   UNL     1      16.468   0.358  27.688  0.00  0.00    +0.000 C 
ATOM      6  O   UNL     1      17.413   0.830  28.378  0.00  0.00    +0.000 OA
ENDROOT
BRANCH   1   7
ATOM      7  C   UNL     1      17.850  -1.309  26.277  0.00  0.00    +0.000 C 
BRANCH   7   8
ATOM      8  C   UNL     1      18.817  -0.376  25.563  0.00  0.00    +0.000 C 
BRANCH   8   9
ATOM      9  O   UNL     1      19.690  -1.071  24.723  0.00  0.00    +0.000 OA
BRANCH   9  15
ATOM     10  C   UNL     1      20.291  -1.554  22.466  0.00  0.00    +0.000 A 
ATOM     11  C   UNL     1      20.518  -1.101  21.187  0.00  0.00    +0.000 A 
ATOM     12  C   UNL     1      20.384   0.231  20.874  0.00  0.00    +0.000 A 
ATOM     13  C   UNL     1      20.014   1.166  21.841  0.00  0.00    +0.000 A 
ATOM     14  C   UNL     1      19.790   0.685  23.120  0.00  0.00    +0.000 A 
ATOM     15  C   UNL     1      19.922  -0.631  23.436  0.00  0.00    +0.000 A 
BRANCH  10  17
ATOM     16  C   UNL     1      19.623  -3.865  22.172  0.00  0.00    +0.000 C 
ATOM     17  O   UNL     1      20.419  -2.893  22.805  0.00  0.00    +0.000 OA
ENDBRANCH  10  17
ENDBRANCH   9  15
ENDBRANCH   8   9
ENDBRANCH   7   8
ENDBRANCH   1   7
BRANCH   3  18
ATOM     18  C   UNL     1      13.234   0.371  26.531  0.00  0.00    +0.000 C 
BRANCH  18  19
ATOM     19  O   UNL     1      12.706   1.285  27.280  0.00  0.00    +0.000 OA
BRANCH  19  20
ATOM     20  C   UNL     1      11.777   2.180  27.569  0.00  0.00    +0.000 A 
ATOM     21  C   UNL     1      11.173   3.059  26.697  0.00  0.00    +0.000 A 
ATOM     22  C   UNL     1      10.216   3.974  27.002  0.00  0.00    +0.000 A 
ATOM     23  C   UNL     1       9.792   4.046  28.309  0.00  0.00    +0.000 A 
ATOM     24  C   UNL     1      10.353   3.194  29.236  0.00  0.00    +0.000 A 
ATOM     25  N   UNL     1      10.116   3.066  30.557  0.00  0.00    +0.000 NA
ATOM     26  C   UNL     1      10.893   2.104  31.083  0.00  0.00    +0.000 A 
ATOM     27  C   UNL     1      11.012   1.611  32.374  0.00  0.00    +0.000 A 
ATOM     28  C   UNL     1      11.917   0.600  32.596  0.00  0.00    +0.000 A 
ATOM     29  C   UNL     1      12.684   0.090  31.568  0.00  0.00    +0.000 A 
ATOM     30  C   UNL     1      12.572   0.580  30.264  0.00  0.00    +0.000 A 
ATOM     31  C   UNL     1      11.665   1.590  30.048  0.00  0.00    +0.000 A 
ATOM     32  C   UNL     1      11.320   2.278  28.902  0.00  0.00    +0.000 A 
ENDBRANCH  19  20
ENDBRANCH  18  19
ENDBRANCH   3  18
TORSDOF 8
ENDMDL
MODEL 9
REMARK VINA RESULT:      -7.5     23.141     26.059
REMARK  Name = 
REMARK  8 active torsions:
REMARK  status: ('A' for Active; 'I' for Inactive)
REMARK    1  A    between atoms: O_2  and  C_3
REMARK    2  A    between atoms: C_8  and  O_9
REMARK    3  A    between atoms: O_9  and  C_10
REMARK    4  A    between atoms: C_10  and  C_11
REMARK    5  A    between atoms: C_11  and  N_12
REMARK    6  A    between atoms: C_14  and  C_15
REMARK    7  A    between atoms: C_15  and  O_16
REMARK    8  A    between atoms: O_16  and  C_17
REMARK                            x       y       z     vdW  Elec       q    Type
REMARK                         _______ _______ _______ _____ _____    ______ ____
ROOT
ATOM      1  N   UNL     1      16.069  -0.629  26.453  0.00  0.00    +0.000 N 
ATOM      2  C   UNL     1      14.731  -0.742  25.900  0.00  0.00    +0.000 C 
ATOM      3  C   UNL     1      13.890  -0.761  27.315  0.00  0.00    +0.000 C 
ATOM      4  O   UNL     1      14.633   0.480  27.888  0.00  0.00    +0.000 OA
ATOM      5  C   UNL     1      15.945   0.264  27.553  0.00  0.00    +0.000 C 
ATOM      6  O   UNL     1      16.930   0.788  28.142  0.00  0.00    +0.000 OA
ENDROOT
BRANCH   1   7
ATOM      7  C   UNL     1      17.259  -1.295  25.966  0.00  0.00    +0.000 C 
BRANCH   7   8
ATOM      8  C   UNL     1      18.052  -0.309  25.119  0.00  0.00    +0.000 C 
BRANCH   8   9
ATOM      9  O   UNL     1      19.385  -0.701  24.970  0.00  0.00    +0.000 OA
BRANCH   9  15
ATOM     10  C   UNL     1      20.154  -1.639  22.918  0.00  0.00    +0.000 A 
ATOM     11  C   UNL     1      20.799  -1.468  21.715  0.00  0.00    +0.000 A 
ATOM     12  C   UNL     1      21.309  -0.242  21.354  0.00  0.00    +0.000 A 
ATOM     13  C   UNL     1      21.188   0.864  22.194  0.00  0.00    +0.000 A 
ATOM     14  C   UNL     1      20.535   0.666  23.398  0.00  0.00    +0.000 A 
ATOM     15  C   UNL     1      20.030  -0.543  23.761  0.00  0.00    +0.000 A 
BRANCH  10  17
ATOM     16  C   UNL     1      19.765  -3.988  22.465  0.00  0.00    +0.000 C 
ATOM     17  O   UNL     1      19.631  -2.865  23.302  0.00  0.00    +0.000 OA
ENDBRANCH  10  17
ENDBRANCH   9  15
ENDBRANCH   8   9
ENDBRANCH   7   8
ENDBRANCH   1   7
BRANCH   3  18
ATOM     18  C   UNL     1      12.606   0.084  26.765  0.00  0.00    +0.000 C 
BRANCH  18  19
ATOM     19  O   UNL     1      11.935  -0.469  25.806  0.00  0.00    +0.000 OA
BRANCH  19  20
ATOM     20  C   UNL     1      11.263  -1.468  25.263  0.00  0.00    +0.000 A 
ATOM     21  C   UNL     1      11.703  -2.761  25.080  0.00  0.00    +0.000 A 
ATOM     22  C   UNL     1      11.004  -3.785  24.524  0.00  0.00    +0.000 A 
ATOM     23  C   UNL     1       9.724  -3.525  24.093  0.00  0.00    +0.000 A 
ATOM     24  C   UNL     1       9.217  -2.253  24.246  0.00  0.00    +0.000 A 
ATOM     25  N   UNL     1       8.012  -1.749  23.911  0.00  0.00    +0.000 NA
ATOM     26  C   UNL     1       7.939  -0.448  24.241  0.00  0.00    +0.000 A 
ATOM     27  C   UNL     1       6.925   0.489  24.101  0.00  0.00    +0.000 A 
ATOM     28  C   UNL     1       7.163   1.767  24.548  0.00  0.00    +0.000 A 
ATOM     29  C   UNL     1       8.372   2.110  25.117  0.00  0.00    +0.000 A 
ATOM     30  C   UNL     1       9.401   1.174  25.261  0.00  0.00    +0.000 A 
ATOM     31  C   UNL     1       9.156  -0.102  24.814  0.00  0.00    +0.000 A 
ATOM     32  C   UNL     1       9.945  -1.235  24.811  0.00  0.00    +0.000 A 
ENDBRANCH  19  20
ENDBRANCH  18  19
ENDBRANCH   3  18
TORSDOF 8
ENDMDL
MODEL 10
REMARK VINA RESULT:      -7.5      2.029      2.785
REMARK  Name = 
REMARK  8 active torsions:
REMARK  status: ('A' for Active; 'I' for Inactive)
REMARK    1  A    between atoms: O_2  and  C_3
REMARK    2  A    between atoms: C_8  and  O_9
REMARK    3  A    between atoms: O_9  and  C_10
REMARK    4  A    between atoms: C_10  and  C_11
REMARK    5  A    between atoms: C_11  and  N_12
REMARK    6  A    between atoms: C_14  and  C_15
REMARK    7  A    between atoms: C_15  and  O_16
REMARK    8  A    between atoms: O_16  and  C_17
REMARK                            x       y       z     vdW  Elec       q    Type
REMARK                         _______ _______ _______ _____ _____    ______ ____
ROOT
ATOM      1  N   UNL     1      36.746   2.802  14.139  0.00  0.00    +0.000 N 
ATOM      2  C   UNL     1      36.611   2.515  15.555  0.00  0.00    +0.000 C 
ATOM      3  C   UNL     1      35.501   1.304  15.448  0.00  0.00    +0.000 C 
ATOM      4  O   UNL     1      36.292   0.543  14.345  0.00  0.00    +0.000 OA
ATOM      5  C   UNL     1      36.710   1.534  13.495  0.00  0.00    +0.000 C 
ATOM      6  O   UNL     1      37.027   1.356  12.287  0.00  0.00    +0.000 OA
ENDROOT
BRANCH   1   7
ATOM      7  C   UNL     1      36.886   4.112  13.537  0.00  0.00    +0.000 C 
BRANCH   7   8
ATOM      8  C   UNL     1      36.751   5.163  14.630  0.00  0.00    +0.000 C 
BRANCH   8   9
ATOM      9  O   UNL     1      37.985   5.721  14.974  0.00  0.00    +0.000 OA
BRANCH   9  15
ATOM     10  C   UNL     1      38.247   7.209  16.818  0.00  0.00    +0.000 A 
ATOM     11  C   UNL     1      38.581   7.397  18.139  0.00  0.00    +0.000 A 
ATOM     12  C   UNL     1      38.974   6.341  18.927  0.00  0.00    +0.000 A 
ATOM     13  C   UNL     1      39.046   5.046  18.413  0.00  0.00    +0.000 A 
ATOM     14  C   UNL     1      38.705   4.883  17.082  0.00  0.00    +0.000 A 
ATOM     15  C   UNL     1      38.317   5.924  16.297  0.00  0.00    +0.000 A 
BRANCH  10  17
ATOM     16  C   UNL     1      36.593   8.868  16.196  0.00  0.00    +0.000 C 
ATOM     17  O   UNL     1      37.848   8.260  16.005  0.00  0.00    +0.000 OA
ENDBRANCH  10  17
ENDBRANCH   9  15
ENDBRANCH   8   9
ENDBRANCH   7   8
ENDBRANCH   1   7
BRANCH   3  18
ATOM     18  C   UNL     1      36.094   0.416  16.684  0.00  0.00    +0.000 C 
BRANCH  18  19
ATOM     19  O   UNL     1      36.892  -0.549  16.353  0.00  0.00    +0.000 OA
BRANCH  19  20
ATOM     20  C   UNL     1      37.409  -1.755  16.508  0.00  0.00    +0.000 A 
ATOM     21  C   UNL     1      36.825  -2.833  17.139  0.00  0.00    +0.000 A 
ATOM     22  C   UNL     1      37.362  -4.071  17.291  0.00  0.00    +0.000 A 
ATOM     23  C   UNL     1      38.615  -4.294  16.769  0.00  0.00    +0.000 A 
ATOM     24  C   UNL     1      39.258  -3.260  16.123  0.00  0.00    +0.000 A 
ATOM     25  N   UNL     1      40.471  -3.220  15.535  0.00  0.00    +0.000 NA
ATOM     26  C   UNL     1      40.705  -2.000  15.023  0.00  0.00    +0.000 A 
ATOM     27  C   UNL     1      41.790  -1.475  14.336  0.00  0.00    +0.000 A 
ATOM     28  C   UNL     1      41.724  -0.162  13.934  0.00  0.00    +0.000 A 
ATOM     29  C   UNL     1      40.615   0.612  14.207  0.00  0.00    +0.000 A 
ATOM     30  C   UNL     1      39.517   0.093  14.899  0.00  0.00    +0.000 A 
ATOM     31  C   UNL     1      39.589  -1.220  15.297  0.00  0.00    +0.000 A 
ATOM     32  C   UNL     1      38.694  -2.017  15.983  0.00  0.00    +0.000 A 
ENDBRANCH  19  20
ENDBRANCH  18  19
ENDBRANCH   3  18
TORSDOF 8
ENDMDL
