MODEL 1
REMARK VINA RESULT:      -6.4      0.000      0.000
REMARK  Name = 
REMARK  4 active torsions:
REMARK  status: ('A' for Active; 'I' for Inactive)
REMARK    1  A    between atoms: C_7  and  C_8
REMARK    2  A    between atoms: C_8  and  O_9
REMARK    3  A    between atoms: O_9  and  C_10
REMARK    4  A    between atoms: C_13  and  C_14
REMARK                            x       y       z     vdW  Elec       q    Type
REMARK                         _______ _______ _______ _____ _____    ______ ____
ROOT
ATOM      1  O   UNL     1      16.376  11.640  34.177  0.00  0.00    +0.000 OA
ENDROOT
BRANCH   1   2
ATOM      2  C   UNL     1      16.832  11.024  35.322  0.00  0.00    +0.000 A 
ATOM      3  C   UNL     1      16.319  11.402  36.536  0.00  0.00    +0.000 A 
ATOM      4  C   UNL     1      16.728  10.832  37.698  0.00  0.00    +0.000 A 
ATOM      5  C   UNL     1      17.690   9.845  37.662  0.00  0.00    +0.000 A 
ATOM      6  C   UNL     1      18.213   9.458  36.448  0.00  0.00    +0.000 A 
ATOM      7  C   UNL     1      17.789  10.042  35.284  0.00  0.00    +0.000 A 
BRANCH   5   8
ATOM      8  C   UNL     1      18.107   9.256  38.922  0.00  0.00    +0.000 C 
ATOM      9  N   UNL     1      17.290   9.347  40.069  0.00  0.00    +0.000 NA
ATOM     10  O   UNL     1      19.202   8.657  39.001  0.00  0.00    +0.000 OA
ENDBRANCH   5   8
ENDBRANCH   1   2
BRANCH   1  11
ATOM     11  C   UNL     1      14.996  11.822  33.992  0.00  0.00    +0.000 C 
BRANCH  11  18
ATOM     12  C   UNL     1      15.727  10.987  31.078  0.00  0.00    +0.000 C 
ATOM     13  N   UNL     1      14.997  12.160  31.476  0.00  0.00    +0.000 N 
ATOM     14  C   UNL     1      14.523  13.076  30.595  0.00  0.00    +0.000 A 
ATOM     15  C   UNL     1      13.892  14.036  31.329  0.00  0.00    +0.000 A 
ATOM     16  N   UNL     1      14.000  13.677  32.633  0.00  0.00    +0.000 N 
ATOM     17  C   UNL     1      13.434  14.486  33.698  0.00  0.00    +0.000 C 
ATOM     18  C   UNL     1      14.680  12.525  32.727  0.00  0.00    +0.000 A 
ENDBRANCH  11  18
ENDBRANCH   1  11
TORSDOF 4
ENDMDL
MODEL 2
REMARK VINA RESULT:      -6.3      0.699      1.867
REMARK  Name = 
REMARK  4 active torsions:
REMARK  status: ('A' for Active; 'I' for Inactive)
REMARK    1  A    between atoms: C_7  and  C_8
REMARK    2  A    between atoms: C_8  and  O_9
REMARK    3  A    between atoms: O_9  and  C_10
REMARK    4  A    between atoms: C_13  and  C_14
REMARK                            x       y       z     vdW  Elec       q    Type
REMARK                         _______ _______ _______ _____ _____    ______ ____
ROOT
ATOM      1  O   UNL     1      16.483  11.443  33.800  0.00  0.00    +0.000 OA
ENDROOT
BRANCH   1   2
ATOM      2  C   UNL     1      16.940  10.881  34.972  0.00  0.00    +0.000 A 
ATOM      3  C   UNL     1      16.587  11.448  36.169  0.00  0.00    +0.000 A 
ATOM      4  C   UNL     1      17.006  10.940  37.356  0.00  0.00    +0.000 A 
ATOM      5  C   UNL     1      17.812   9.821  37.363  0.00  0.00    +0.000 A 
ATOM      6  C   UNL     1      18.173   9.244  36.166  0.00  0.00    +0.000 A 
ATOM      7  C   UNL     1      17.742   9.768  34.977  0.00  0.00    +0.000 A 
BRANCH   5   8
ATOM      8  C   UNL     1      18.243   9.303  38.648  0.00  0.00    +0.000 C 
ATOM      9  N   UNL     1      17.354   9.249  39.744  0.00  0.00    +0.000 NA
ATOM     10  O   UNL     1      19.416   8.895  38.798  0.00  0.00    +0.000 OA
ENDBRANCH   5   8
ENDBRANCH   1   2
BRANCH   1  11
ATOM     11  C   UNL     1      15.148  11.247  33.414  0.00  0.00    +0.000 C 
BRANCH  11  18
ATOM     12  C   UNL     1      13.954  13.734  34.868  0.00  0.00    +0.000 C 
ATOM     13  N   UNL     1      14.033  13.528  33.447  0.00  0.00    +0.000 N 
ATOM     14  C   UNL     1      13.580  14.427  32.539  0.00  0.00    +0.000 A 
ATOM     15  C   UNL     1      13.821  13.896  31.307  0.00  0.00    +0.000 A 
ATOM     16  N   UNL     1      14.413  12.691  31.501  0.00  0.00    +0.000 N 
ATOM     17  C   UNL     1      14.808  11.845  30.388  0.00  0.00    +0.000 C 
ATOM     18  C   UNL     1      14.545  12.461  32.816  0.00  0.00    +0.000 A 
ENDBRANCH  11  18
ENDBRANCH   1  11
TORSDOF 4
ENDMDL
MODEL 3
REMARK VINA RESULT:      -6.1      1.793      7.172
REMARK  Name = 
REMARK  4 active torsions:
REMARK  status: ('A' for Active; 'I' for Inactive)
REMARK    1  A    between atoms: C_7  and  C_8
REMARK    2  A    between atoms: C_8  and  O_9
REMARK    3  A    between atoms: O_9  and  C_10
REMARK    4  A    between atoms: C_13  and  C_14
REMARK                            x       y       z     vdW  Elec       q    Type
REMARK                         _______ _______ _______ _____ _____    ______ ____
ROOT
ATOM      1  O   UNL     1      16.824  10.249  35.549  0.00  0.00    +0.000 OA
ENDROOT
BRANCH   1   2
ATOM      2  C   UNL     1      16.300  10.893  34.449  0.00  0.00    +0.000 A 
ATOM      3  C   UNL     1      15.351  11.865  34.631  0.00  0.00    +0.000 A 
ATOM      4  C   UNL     1      14.798  12.533  33.587  0.00  0.00    +0.000 A 
ATOM      5  C   UNL     1      15.199  12.227  32.303  0.00  0.00    +0.000 A 
ATOM      6  C   UNL     1      16.150  11.252  32.110  0.00  0.00    +0.000 A 
ATOM      7  C   UNL     1      16.700  10.586  33.173  0.00  0.00    +0.000 A 
BRANCH   5   8
ATOM      8  C   UNL     1      14.588  12.960  31.209  0.00  0.00    +0.000 C 
ATOM      9  N   UNL     1      13.373  13.655  31.390  0.00  0.00    +0.000 NA
ATOM     10  O   UNL     1      15.138  12.982  30.086  0.00  0.00    +0.000 OA
ENDBRANCH   5   8
ENDBRANCH   1   2
BRANCH   1  11
ATOM     11  C   UNL     1      17.386  11.006  36.590  0.00  0.00    +0.000 C 
BRANCH  11  18
ATOM     12  C   UNL     1      14.724  11.197  38.203  0.00  0.00    +0.000 C 
ATOM     13  N   UNL     1      15.931  10.534  38.616  0.00  0.00    +0.000 N 
ATOM     14  C   UNL     1      16.056   9.890  39.803  0.00  0.00    +0.000 A 
ATOM     15  C   UNL     1      17.324   9.391  39.846  0.00  0.00    +0.000 A 
ATOM     16  N   UNL     1      17.932   9.745  38.687  0.00  0.00    +0.000 N 
ATOM     17  C   UNL     1      19.306   9.373  38.399  0.00  0.00    +0.000 C 
ATOM     18  C   UNL     1      17.079  10.449  37.928  0.00  0.00    +0.000 A 
ENDBRANCH  11  18
ENDBRANCH   1  11
TORSDOF 4
ENDMDL
MODEL 4
REMARK VINA RESULT:      -5.9      2.044      7.444
REMARK  Name = 
REMARK  4 active torsions:
REMARK  status: ('A' for Active; 'I' for Inactive)
REMARK    1  A    between atoms: C_7  and  C_8
REMARK    2  A    between atoms: C_8  and  O_9
REMARK    3  A    between atoms: O_9  and  C_10
REMARK    4  A    between atoms: C_13  and  C_14
REMARK                            x       y       z     vdW  Elec       q    Type
REMARK                         _______ _______ _______ _____ _____    ______ ____
ROOT
ATOM      1  O   UNL     1      17.513  10.869  36.438  0.00  0.00    +0.000 OA
ENDROOT
BRANCH   1   2
ATOM      2  C   UNL     1      16.848  11.089  35.251  0.00  0.00    +0.000 A 
ATOM      3  C   UNL     1      15.746  11.905  35.242  0.00  0.00    +0.000 A 
ATOM      4  C   UNL     1      15.049  12.159  34.105  0.00  0.00    +0.000 A 
ATOM      5  C   UNL     1      15.459  11.581  32.921  0.00  0.00    +0.000 A 
ATOM      6  C   UNL     1      16.564  10.760  32.920  0.00  0.00    +0.000 A 
ATOM      7  C   UNL     1      17.256  10.513  34.075  0.00  0.00    +0.000 A 
BRANCH   5   8
ATOM      8  C   UNL     1      14.692  11.872  31.723  0.00  0.00    +0.000 C 
ATOM      9  N   UNL     1      14.017  13.103  31.576  0.00  0.00    +0.000 NA
ATOM     10  O   UNL     1      14.625  11.028  30.802  0.00  0.00    +0.000 OA
ENDBRANCH   5   8
ENDBRANCH   1   2
BRANCH   1  11
ATOM     11  C   UNL     1      18.072   9.607  36.693  0.00  0.00    +0.000 C 
BRANCH  11  18
ATOM     12  C   UNL     1      17.348   9.423  39.721  0.00  0.00    +0.000 C 
ATOM     13  N   UNL     1      18.668   9.536  39.160  0.00  0.00    +0.000 N 
ATOM     14  C   UNL     1      19.795   9.577  39.913  0.00  0.00    +0.000 A 
ATOM     15  C   UNL     1      20.841   9.685  39.047  0.00  0.00    +0.000 A 
ATOM     16  N   UNL     1      20.322   9.706  37.794  0.00  0.00    +0.000 N 
ATOM     17  C   UNL     1      21.167   9.816  36.617  0.00  0.00    +0.000 C 
ATOM     18  C   UNL     1      18.985   9.615  37.860  0.00  0.00    +0.000 A 
ENDBRANCH  11  18
ENDBRANCH   1  11
TORSDOF 4
ENDMDL
MODEL 5
REMARK VINA RESULT:      -5.8      2.032      7.285
REMARK  Name = 
REMARK  4 active torsions:
REMARK  status: ('A' for Active; 'I' for Inactive)
REMARK    1  A    between atoms: C_7  and  C_8
REMARK    2  A    between atoms: C_8  and  O_9
REMARK    3  A    between atoms: O_9  and  C_10
REMARK    4  A    between atoms: C_13  and  C_14
REMARK                            x       y       z     vdW  Elec       q    Type
REMARK                         _______ _______ _______ _____ _____    ______ ____
ROOT
ATOM      1  O   UNL     1      17.133  10.292  36.714  0.00  0.00    +0.000 OA
ENDROOT
BRANCH   1   2
ATOM      2  C   UNL     1      16.808  10.621  35.416  0.00  0.00    +0.000 A 
ATOM      3  C   UNL     1      15.792  11.513  35.186  0.00  0.00    +0.000 A 
ATOM      4  C   UNL     1      15.426  11.876  33.930  0.00  0.00    +0.000 A 
ATOM      5  C   UNL     1      16.091  11.334  32.851  0.00  0.00    +0.000 A 
ATOM      6  C   UNL     1      17.112  10.437  33.071  0.00  0.00    +0.000 A 
ATOM      7  C   UNL     1      17.471  10.080  34.344  0.00  0.00    +0.000 A 
BRANCH   5   8
ATOM      8  C   UNL     1      15.675  11.742  31.522  0.00  0.00    +0.000 C 
ATOM      9  N   UNL     1      14.576  11.127  30.885  0.00  0.00    +0.000 NA
ATOM     10  O   UNL     1      16.292  12.652  30.925  0.00  0.00    +0.000 OA
ENDBRANCH   5   8
ENDBRANCH   1   2
BRANCH   1  11
ATOM     11  C   UNL     1      18.086   9.288  36.954  0.00  0.00    +0.000 C 
BRANCH  11  18
ATOM     12  C   UNL     1      21.144   9.894  36.905  0.00  0.00    +0.000 C 
ATOM     13  N   UNL     1      20.293   9.871  38.064  0.00  0.00    +0.000 N 
ATOM     14  C   UNL     1      20.741  10.121  39.320  0.00  0.00    +0.000 A 
ATOM     15  C   UNL     1      19.664  10.011  40.148  0.00  0.00    +0.000 A 
ATOM     16  N   UNL     1      18.594   9.699  39.374  0.00  0.00    +0.000 N 
ATOM     17  C   UNL     1      17.271   9.505  39.940  0.00  0.00    +0.000 C 
ATOM     18  C   UNL     1      18.978   9.611  38.092  0.00  0.00    +0.000 A 
ENDBRANCH  11  18
ENDBRANCH   1  11
TORSDOF 4
ENDMDL
MODEL 6
REMARK VINA RESULT:      -5.8     18.943     20.822
REMARK  Name = 
REMARK  4 active torsions:
REMARK  status: ('A' for Active; 'I' for Inactive)
REMARK    1  A    between atoms: C_7  and  C_8
REMARK    2  A    between atoms: C_8  and  O_9
REMARK    3  A    between atoms: O_9  and  C_10
REMARK    4  A    between atoms: C_13  and  C_14
REMARK                            x       y       z     vdW  Elec       q    Type
REMARK                         _______ _______ _______ _____ _____    ______ ____
ROOT
ATOM      1  O   UNL     1      30.305  22.038  27.520  0.00  0.00    +0.000 OA
ENDROOT
BRANCH   1   2
ATOM      2  C   UNL     1      29.921  22.426  26.255  0.00  0.00    +0.000 A 
ATOM      3  C   UNL     1      28.587  22.568  25.973  0.00  0.00    +0.000 A 
ATOM      4  C   UNL     1      28.147  22.947  24.747  0.00  0.00    +0.000 A 
ATOM      5  C   UNL     1      29.066  23.199  23.750  0.00  0.00    +0.000 A 
ATOM      6  C   UNL     1      30.409  23.060  24.022  0.00  0.00    +0.000 A 
ATOM      7  C   UNL     1      30.837  22.676  25.265  0.00  0.00    +0.000 A 
BRANCH   5   8
ATOM      8  C   UNL     1      28.564  23.603  22.450  0.00  0.00    +0.000 C 
ATOM      9  N   UNL     1      29.417  24.200  21.496  0.00  0.00    +0.000 NA
ATOM     10  O   UNL     1      27.361  23.423  22.160  0.00  0.00    +0.000 OA
ENDBRANCH   5   8
ENDBRANCH   1   2
BRANCH   1  11
ATOM     11  C   UNL     1      30.715  23.009  28.447  0.00  0.00    +0.000 C 
BRANCH  11  18
ATOM     12  C   UNL     1      28.582  23.160  30.716  0.00  0.00    +0.000 C 
ATOM     13  N   UNL     1      29.879  22.545  30.799  0.00  0.00    +0.000 N 
ATOM     14  C   UNL     1      30.343  21.936  31.918  0.00  0.00    +0.000 A 
ATOM     15  C   UNL     1      31.593  21.477  31.625  0.00  0.00    +0.000 A 
ATOM     16  N   UNL     1      31.852  21.820  30.338  0.00  0.00    +0.000 N 
ATOM     17  C   UNL     1      33.111  21.483  29.696  0.00  0.00    +0.000 C 
ATOM     18  C   UNL     1      30.801  22.477  29.827  0.00  0.00    +0.000 A 
ENDBRANCH  11  18
ENDBRANCH   1  11
TORSDOF 4
ENDMDL
MODEL 7
REMARK VINA RESULT:      -5.8      3.787      5.166
REMARK  Name = 
REMARK  4 active torsions:
REMARK  status: ('A' for Active; 'I' for Inactive)
REMARK    1  A    between atoms: C_7  and  C_8
REMARK    2  A    between atoms: C_8  and  O_9
REMARK    3  A    between atoms: O_9  and  C_10
REMARK    4  A    between atoms: C_13  and  C_14
REMARK                            x       y       z     vdW  Elec       q    Type
REMARK                         _______ _______ _______ _____ _____    ______ ____
ROOT
ATOM      1  O   UNL     1      18.298  10.771  37.905  0.00  0.00    +0.000 OA
ENDROOT
BRANCH   1   2
ATOM      2  C   UNL     1      19.647  10.737  37.630  0.00  0.00    +0.000 A 
ATOM      3  C   UNL     1      20.470  11.679  38.192  0.00  0.00    +0.000 A 
ATOM      4  C   UNL     1      21.807  11.697  37.958  0.00  0.00    +0.000 A 
ATOM      5  C   UNL     1      22.359  10.742  37.131  0.00  0.00    +0.000 A 
ATOM      6  C   UNL     1      21.542   9.792  36.561  0.00  0.00    +0.000 A 
ATOM      7  C   UNL     1      20.195   9.786  36.806  0.00  0.00    +0.000 A 
BRANCH   5   8
ATOM      8  C   UNL     1      23.791  10.789  36.901  0.00  0.00    +0.000 C 
ATOM      9  N   UNL     1      24.564  11.879  37.358  0.00  0.00    +0.000 NA
ATOM     10  O   UNL     1      24.359   9.856  36.292  0.00  0.00    +0.000 OA
ENDBRANCH   5   8
ENDBRANCH   1   2
BRANCH   1  11
ATOM     11  C   UNL     1      17.429   9.914  37.211  0.00  0.00    +0.000 C 
BRANCH  11  18
ATOM     12  C   UNL     1      14.795  11.386  37.998  0.00  0.00    +0.000 C 
ATOM     13  N   UNL     1      15.356  11.279  36.678  0.00  0.00    +0.000 N 
ATOM     14  C   UNL     1      14.781  11.828  35.579  0.00  0.00    +0.000 A 
ATOM     15  C   UNL     1      15.586  11.523  34.523  0.00  0.00    +0.000 A 
ATOM     16  N   UNL     1      16.626  10.800  35.008  0.00  0.00    +0.000 N 
ATOM     17  C   UNL     1      17.684  10.306  34.144  0.00  0.00    +0.000 C 
ATOM     18  C   UNL     1      16.488  10.647  36.333  0.00  0.00    +0.000 A 
ENDBRANCH  11  18
ENDBRANCH   1  11
TORSDOF 4
ENDMDL
MODEL 8
REMARK VINA RESULT:      -5.8     18.123     20.126
REMARK  Name = 
REMARK  4 active torsions:
REMARK  status: ('A' for Active; 'I' for Inactive)
REMARK    1  A    between atoms: C_7  and  C_8
REMARK    2  A    between atoms: C_8  and  O_9
REMARK    3  A    between atoms: O_9  and  C_10
REMARK    4  A    between atoms: C_13  and  C_14
REMARK                            x       y       z     vdW  Elec       q    Type
REMARK                         _______ _______ _______ _____ _____    ______ ____
ROOT
ATOM      1  O   UNL     1      28.368  22.022  27.020  0.00  0.00    +0.000 OA
ENDROOT
BRANCH   1   2
ATOM      2  C   UNL     1      28.438  22.576  25.760  0.00  0.00    +0.000 A 
ATOM      3  C   UNL     1      27.288  23.013  25.155  0.00  0.00    +0.000 A 
ATOM      4  C   UNL     1      27.293  23.567  23.916  0.00  0.00    +0.000 A 
ATOM      5  C   UNL     1      28.488  23.694  23.240  0.00  0.00    +0.000 A 
ATOM      6  C   UNL     1      29.649  23.257  23.837  0.00  0.00    +0.000 A 
ATOM      7  C   UNL     1      29.628  22.701  25.089  0.00  0.00    +0.000 A 
BRANCH   5   8
ATOM      8  C   UNL     1      28.459  24.289  21.917  0.00  0.00    +0.000 C 
ATOM      9  N   UNL     1      29.611  24.299  21.100  0.00  0.00    +0.000 NA
ATOM     10  O   UNL     1      27.404  24.802  21.483  0.00  0.00    +0.000 OA
ENDBRANCH   5   8
ENDBRANCH   1   2
BRANCH   1  11
ATOM     11  C   UNL     1      28.795  22.771  28.128  0.00  0.00    +0.000 C 
BRANCH  11  18
ATOM     12  C   UNL     1      26.689  21.782  30.205  0.00  0.00    +0.000 C 
ATOM     13  N   UNL     1      26.789  23.104  29.649  0.00  0.00    +0.000 N 
ATOM     14  C   UNL     1      25.945  24.114  29.977  0.00  0.00    +0.000 A 
ATOM     15  C   UNL     1      26.343  25.204  29.261  0.00  0.00    +0.000 A 
ATOM     16  N   UNL     1      27.414  24.827  28.520  0.00  0.00    +0.000 N 
ATOM     17  C   UNL     1      28.094  25.753  27.631  0.00  0.00    +0.000 C 
ATOM     18  C   UNL     1      27.692  23.536  28.756  0.00  0.00    +0.000 A 
ENDBRANCH  11  18
ENDBRANCH   1  11
TORSDOF 4
ENDMDL
MODEL 9
REMARK VINA RESULT:      -5.7     18.764     20.637
REMARK  Name = 
REMARK  4 active torsions:
REMARK  status: ('A' for Active; 'I' for Inactive)
REMARK    1  A    between atoms: C_7  and  C_8
REMARK    2  A    between atoms: C_8  and  O_9
REMARK    3  A    between atoms: O_9  and  C_10
REMARK    4  A    between atoms: C_13  and  C_14
REMARK                            x       y       z     vdW  Elec       q    Type
REMARK                         _______ _______ _______ _____ _____    ______ ____
ROOT
ATOM      1  O   UNL     1      29.715  22.154  27.545  0.00  0.00    +0.000 OA
ENDROOT
BRANCH   1   2
ATOM      2  C   UNL     1      29.346  22.516  26.268  0.00  0.00    +0.000 A 
ATOM      3  C   UNL     1      30.301  22.586  25.288  0.00  0.00    +0.000 A 
ATOM      4  C   UNL     1      29.998  22.937  24.012  0.00  0.00    +0.000 A 
ATOM      5  C   UNL     1      28.691  23.234  23.688  0.00  0.00    +0.000 A 
ATOM      6  C   UNL     1      27.724  23.168  24.664  0.00  0.00    +0.000 A 
ATOM      7  C   UNL     1      28.045  22.812  25.947  0.00  0.00    +0.000 A 
BRANCH   5   8
ATOM      8  C   UNL     1      28.400  23.606  22.315  0.00  0.00    +0.000 C 
ATOM      9  N   UNL     1      27.077  23.587  21.823  0.00  0.00    +0.000 NA
ATOM     10  O   UNL     1      29.328  23.952  21.550  0.00  0.00    +0.000 OA
ENDBRANCH   5   8
ENDBRANCH   1   2
BRANCH   1  11
ATOM     11  C   UNL     1      30.298  23.109  28.393  0.00  0.00    +0.000 C 
BRANCH  11  18
ATOM     12  C   UNL     1      32.789  21.507  29.370  0.00  0.00    +0.000 C 
ATOM     13  N   UNL     1      31.649  21.885  30.161  0.00  0.00    +0.000 N 
ATOM     14  C   UNL     1      31.520  21.577  31.475  0.00  0.00    +0.000 A 
ATOM     15  C   UNL     1      30.326  22.094  31.883  0.00  0.00    +0.000 A 
ATOM     16  N   UNL     1      29.765  22.700  30.808  0.00  0.00    +0.000 N 
ATOM     17  C   UNL     1      28.474  23.361  30.890  0.00  0.00    +0.000 C 
ATOM     18  C   UNL     1      30.575  22.574  29.746  0.00  0.00    +0.000 A 
ENDBRANCH  11  18
ENDBRANCH   1  11
TORSDOF 4
ENDMDL
MODEL 10
REMARK VINA RESULT:      -5.7     18.085     19.992
REMARK  Name = 
REMARK  4 active torsions:
REMARK  status: ('A' for Active; 'I' for Inactive)
REMARK    1  A    between atoms: C_7  and  C_8
REMARK    2  A    between atoms: C_8  and  O_9
REMARK    3  A    between atoms: O_9  and  C_10
REMARK    4  A    between atoms: C_13  and  C_14
REMARK                            x       y       z     vdW  Elec       q    Type
REMARK                         _______ _______ _______ _____ _____    ______ ____
ROOT
ATOM      1  O   UNL     1      29.151  22.094  27.587  0.00  0.00    +0.000 OA
ENDROOT
BRANCH   1   2
ATOM      2  C   UNL     1      29.011  22.464  26.267  0.00  0.00    +0.000 A 
ATOM      3  C   UNL     1      27.762  22.750  25.780  0.00  0.00    +0.000 A 
ATOM      4  C   UNL     1      27.560  23.120  24.490  0.00  0.00    +0.000 A 
ATOM      5  C   UNL     1      28.642  23.211  23.639  0.00  0.00    +0.000 A 
ATOM      6  C   UNL     1      29.900  22.926  24.117  0.00  0.00    +0.000 A 
ATOM      7  C   UNL     1      30.088  22.554  25.422  0.00  0.00    +0.000 A 
BRANCH   5   8
ATOM      8  C   UNL     1      28.393  23.608  22.265  0.00  0.00    +0.000 C 
ATOM      9  N   UNL     1      29.432  24.120  21.459  0.00  0.00    +0.000 NA
ATOM     10  O   UNL     1      27.245  23.499  21.780  0.00  0.00    +0.000 OA
ENDBRANCH   5   8
ENDBRANCH   1   2
BRANCH   1  11
ATOM     11  C   UNL     1      29.290  23.085  28.572  0.00  0.00    +0.000 C 
BRANCH  11  18
ATOM     12  C   UNL     1      28.218  25.924  27.852  0.00  0.00    +0.000 C 
ATOM     13  N   UNL     1      27.540  24.923  28.631  0.00  0.00    +0.000 N 
ATOM     14  C   UNL     1      26.307  25.106  29.165  0.00  0.00    +0.000 A 
ATOM     15  C   UNL     1      25.993  23.958  29.829  0.00  0.00    +0.000 A 
ATOM     16  N   UNL     1      27.042  23.111  29.680  0.00  0.00    +0.000 N 
ATOM     17  C   UNL     1      27.043  21.783  30.268  0.00  0.00    +0.000 C 
ATOM     18  C   UNL     1      27.996  23.702  28.945  0.00  0.00    +0.000 A 
ENDBRANCH  11  18
ENDBRANCH   1  11
TORSDOF 4
ENDMDL
