MODEL 1
REMARK VINA RESULT:      -6.3      0.000      0.000
REMARK  Name = 
REMARK  3 active torsions:
REMARK  status: ('A' for Active; 'I' for Inactive)
REMARK    1  A    between atoms: C_5  and  C_6
REMARK    2  A    between atoms: C_11  and  O_12
REMARK    3  A    between atoms: C_14  and  O_15
REMARK                            x       y       z     vdW  Elec       q    Type
REMARK                         _______ _______ _______ _____ _____    ______ ____
ROOT
ATOM      1  C   UNL     1      32.490  20.832  10.201  0.00  0.00    +0.000 A 
ATOM      2  C   UNL     1      32.126  20.476   8.914  0.00  0.00    +0.000 A 
ATOM      3  N   UNL     1      30.814  20.736   8.780  0.00  0.00    +0.000 NA
ATOM      4  C   UNL     1      30.307  21.248   9.928  0.00  0.00    +0.000 A 
ATOM      5  C   UNL     1      29.075  21.669  10.319  0.00  0.00    +0.000 A 
ATOM      6  C   UNL     1      28.881  22.148  11.591  0.00  0.00    +0.000 A 
ATOM      7  C   UNL     1      29.907  22.221  12.502  0.00  0.00    +0.000 A 
ATOM      8  C   UNL     1      31.157  21.790  12.093  0.00  0.00    +0.000 A 
ATOM      9  C   UNL     1      31.368  21.306  10.822  0.00  0.00    +0.000 A 
ENDROOT
BRANCH   1  14
ATOM     10  C   UNL     1      37.425  18.919  13.298  0.00  0.00    +0.000 C 
ATOM     11  N   UNL     1      36.035  18.711  12.923  0.00  0.00    +0.000 NA
ATOM     12  C   UNL     1      35.459  19.711  12.044  0.00  0.00    +0.000 A 
ATOM     13  N   UNL     1      34.230  19.739  11.571  0.00  0.00    +0.000 NA
ATOM     14  C   UNL     1      33.856  20.712  10.786  0.00  0.00    +0.000 A 
ATOM     15  C   UNL     1      34.804  21.667  10.499  0.00  0.00    +0.000 A 
ATOM     16  S   UNL     1      36.159  21.110  11.371  0.00  0.00    +0.000 S 
ENDBRANCH   1  14
BRANCH   6  17
ATOM     17  O   UNL     1      27.605  22.568  11.946  0.00  0.00    +0.000 OA
ATOM     18  C   UNL     1      26.468  22.270  11.199  0.00  0.00    +0.000 C 
ENDBRANCH   6  17
BRANCH   7  19
ATOM     19  O   UNL     1      29.642  22.716  13.768  0.00  0.00    +0.000 OA
ATOM     20  C   UNL     1      29.086  23.996  13.954  0.00  0.00    +0.000 C 
ENDBRANCH   7  19
TORSDOF 3
ENDMDL
MODEL 2
REMARK VINA RESULT:      -6.2     35.767     36.536
REMARK  Name = 
REMARK  3 active torsions:
REMARK  status: ('A' for Active; 'I' for Inactive)
REMARK    1  A    between atoms: C_5  and  C_6
REMARK    2  A    between atoms: C_11  and  O_12
REMARK    3  A    between atoms: C_14  and  O_15
REMARK                            x       y       z     vdW  Elec       q    Type
REMARK                         _______ _______ _______ _____ _____    ______ ____
ROOT
ATOM      1  C   UNL     1      17.835  -8.013  27.270  0.00  0.00    +0.000 A 
ATOM      2  C   UNL     1      17.160  -6.822  27.074  0.00  0.00    +0.000 A 
ATOM      3  N   UNL     1      17.993  -5.990  26.425  0.00  0.00    +0.000 NA
ATOM      4  C   UNL     1      19.184  -6.591  26.189  0.00  0.00    +0.000 A 
ATOM      5  C   UNL     1      20.341  -6.207  25.587  0.00  0.00    +0.000 A 
ATOM      6  C   UNL     1      21.400  -7.077  25.509  0.00  0.00    +0.000 A 
ATOM      7  C   UNL     1      21.334  -8.347  26.026  0.00  0.00    +0.000 A 
ATOM      8  C   UNL     1      20.152  -8.728  26.637  0.00  0.00    +0.000 A 
ATOM      9  C   UNL     1      19.081  -7.867  26.724  0.00  0.00    +0.000 A 
ENDROOT
BRANCH   1  14
ATOM     10  C   UNL     1      16.509 -12.355  31.394  0.00  0.00    +0.000 C 
ATOM     11  N   UNL     1      17.207 -11.120  31.069  0.00  0.00    +0.000 NA
ATOM     12  C   UNL     1      17.025 -10.625  29.717  0.00  0.00    +0.000 A 
ATOM     13  N   UNL     1      17.549  -9.537  29.193  0.00  0.00    +0.000 NA
ATOM     14  C   UNL     1      17.291  -9.222  27.952  0.00  0.00    +0.000 A 
ATOM     15  C   UNL     1      16.463 -10.077  27.263  0.00  0.00    +0.000 A 
ATOM     16  S   UNL     1      16.113 -11.269  28.431  0.00  0.00    +0.000 S 
ENDBRANCH   1  14
BRANCH   6  17
ATOM     17  O   UNL     1      22.562  -6.640  24.883  0.00  0.00    +0.000 OA
ATOM     18  C   UNL     1      22.694  -6.541  23.501  0.00  0.00    +0.000 C 
ENDBRANCH   6  17
BRANCH   7  19
ATOM     19  O   UNL     1      22.439  -9.174  25.912  0.00  0.00    +0.000 OA
ATOM     20  C   UNL     1      22.571 -10.334  26.700  0.00  0.00    +0.000 C 
ENDBRANCH   7  19
TORSDOF 3
ENDMDL
MODEL 3
REMARK VINA RESULT:      -6.0     10.507     13.203
REMARK  Name = 
REMARK  3 active torsions:
REMARK  status: ('A' for Active; 'I' for Inactive)
REMARK    1  A    between atoms: C_5  and  C_6
REMARK    2  A    between atoms: C_11  and  O_12
REMARK    3  A    between atoms: C_14  and  O_15
REMARK                            x       y       z     vdW  Elec       q    Type
REMARK                         _______ _______ _______ _____ _____    ______ ____
ROOT
ATOM      1  C   UNL     1      28.738  24.766  22.014  0.00  0.00    +0.000 A 
ATOM      2  C   UNL     1      27.634  23.944  21.877  0.00  0.00    +0.000 A 
ATOM      3  N   UNL     1      27.663  23.058  22.887  0.00  0.00    +0.000 NA
ATOM      4  C   UNL     1      28.743  23.269  23.679  0.00  0.00    +0.000 A 
ATOM      5  C   UNL     1      29.231  22.676  24.801  0.00  0.00    +0.000 A 
ATOM      6  C   UNL     1      30.385  23.141  25.381  0.00  0.00    +0.000 A 
ATOM      7  C   UNL     1      31.080  24.206  24.861  0.00  0.00    +0.000 A 
ATOM      8  C   UNL     1      30.574  24.802  23.718  0.00  0.00    +0.000 A 
ATOM      9  C   UNL     1      29.418  24.348  23.124  0.00  0.00    +0.000 A 
ENDROOT
BRANCH   1  14
ATOM     10  C   UNL     1      31.004  28.134  17.417  0.00  0.00    +0.000 C 
ATOM     11  N   UNL     1      30.844  26.829  18.041  0.00  0.00    +0.000 NA
ATOM     12  C   UNL     1      30.082  26.806  19.276  0.00  0.00    +0.000 A 
ATOM     13  N   UNL     1      29.804  25.754  20.017  0.00  0.00    +0.000 NA
ATOM     14  C   UNL     1      29.104  25.894  21.110  0.00  0.00    +0.000 A 
ATOM     15  C   UNL     1      28.693  27.171  21.415  0.00  0.00    +0.000 A 
ATOM     16  S   UNL     1      29.336  28.080  20.125  0.00  0.00    +0.000 S 
ENDBRANCH   1  14
BRANCH   6  17
ATOM     17  O   UNL     1      30.846  22.503  26.526  0.00  0.00    +0.000 OA
ATOM     18  C   UNL     1      30.342  22.761  27.799  0.00  0.00    +0.000 C 
ENDBRANCH   6  17
BRANCH   7  19
ATOM     19  O   UNL     1      32.237  24.624  25.496  0.00  0.00    +0.000 OA
ATOM     20  C   UNL     1      33.489  24.560  24.855  0.00  0.00    +0.000 C 
ENDBRANCH   7  19
TORSDOF 3
ENDMDL
MODEL 4
REMARK VINA RESULT:      -5.9      3.635      6.635
REMARK  Name = 
REMARK  3 active torsions:
REMARK  status: ('A' for Active; 'I' for Inactive)
REMARK    1  A    between atoms: C_5  and  C_6
REMARK    2  A    between atoms: C_11  and  O_12
REMARK    3  A    between atoms: C_14  and  O_15
REMARK                            x       y       z     vdW  Elec       q    Type
REMARK                         _______ _______ _______ _____ _____    ______ ____
ROOT
ATOM      1  C   UNL     1      31.644  21.080  11.069  0.00  0.00    +0.000 A 
ATOM      2  C   UNL     1      32.733  20.608  11.781  0.00  0.00    +0.000 A 
ATOM      3  N   UNL     1      33.542  19.980  10.910  0.00  0.00    +0.000 NA
ATOM      4  C   UNL     1      33.024  20.021   9.658  0.00  0.00    +0.000 A 
ATOM      5  C   UNL     1      33.426  19.553   8.447  0.00  0.00    +0.000 A 
ATOM      6  C   UNL     1      32.651  19.767   7.333  0.00  0.00    +0.000 A 
ATOM      7  C   UNL     1      31.461  20.450   7.399  0.00  0.00    +0.000 A 
ATOM      8  C   UNL     1      31.062  20.922   8.637  0.00  0.00    +0.000 A 
ATOM      9  C   UNL     1      31.827  20.716   9.763  0.00  0.00    +0.000 A 
ENDROOT
BRANCH   1  14
ATOM     10  C   UNL     1      26.067  23.395  12.137  0.00  0.00    +0.000 C 
ATOM     11  N   UNL     1      26.922  22.528  11.341  0.00  0.00    +0.000 NA
ATOM     12  C   UNL     1      28.318  22.481  11.731  0.00  0.00    +0.000 A 
ATOM     13  N   UNL     1      29.276  21.775  11.168  0.00  0.00    +0.000 NA
ATOM     14  C   UNL     1      30.494  21.839  11.636  0.00  0.00    +0.000 A 
ATOM     15  C   UNL     1      30.691  22.665  12.718  0.00  0.00    +0.000 A 
ATOM     16  S   UNL     1      29.130  23.291  12.990  0.00  0.00    +0.000 S 
ENDBRANCH   1  14
BRANCH   6  17
ATOM     17  O   UNL     1      33.102  19.270   6.116  0.00  0.00    +0.000 OA
ATOM     18  C   UNL     1      32.935  17.945   5.723  0.00  0.00    +0.000 C 
ENDBRANCH   6  17
BRANCH   7  19
ATOM     19  O   UNL     1      30.729  20.630   6.237  0.00  0.00    +0.000 OA
ATOM     20  C   UNL     1      30.803  21.829   5.503  0.00  0.00    +0.000 C 
ENDBRANCH   7  19
TORSDOF 3
ENDMDL
MODEL 5
REMARK VINA RESULT:      -5.8     13.461     15.510
REMARK  Name = 
REMARK  3 active torsions:
REMARK  status: ('A' for Active; 'I' for Inactive)
REMARK    1  A    between atoms: C_5  and  C_6
REMARK    2  A    between atoms: C_11  and  O_12
REMARK    3  A    between atoms: C_14  and  O_15
REMARK                            x       y       z     vdW  Elec       q    Type
REMARK                         _______ _______ _______ _____ _____    ______ ____
ROOT
ATOM      1  C   UNL     1      31.084  23.357  26.207  0.00  0.00    +0.000 A 
ATOM      2  C   UNL     1      32.057  23.493  25.232  0.00  0.00    +0.000 A 
ATOM      3  N   UNL     1      31.434  23.499  24.041  0.00  0.00    +0.000 NA
ATOM      4  C   UNL     1      30.094  23.373  24.199  0.00  0.00    +0.000 A 
ATOM      5  C   UNL     1      29.036  23.324  23.346  0.00  0.00    +0.000 A 
ATOM      6  C   UNL     1      27.761  23.186  23.836  0.00  0.00    +0.000 A 
ATOM      7  C   UNL     1      27.509  23.094  25.184  0.00  0.00    +0.000 A 
ATOM      8  C   UNL     1      28.593  23.146  26.042  0.00  0.00    +0.000 A 
ATOM      9  C   UNL     1      29.878  23.284  25.567  0.00  0.00    +0.000 A 
ENDROOT
BRANCH   1  14
ATOM     10  C   UNL     1      32.321  21.461  31.906  0.00  0.00    +0.000 C 
ATOM     11  N   UNL     1      32.157  21.139  30.497  0.00  0.00    +0.000 NA
ATOM     12  C   UNL     1      31.821  22.250  29.627  0.00  0.00    +0.000 A 
ATOM     13  N   UNL     1      31.624  22.209  28.326  0.00  0.00    +0.000 NA
ATOM     14  C   UNL     1      31.324  23.301  27.677  0.00  0.00    +0.000 A 
ATOM     15  C   UNL     1      31.235  24.453  28.425  0.00  0.00    +0.000 A 
ATOM     16  S   UNL     1      31.582  23.895  29.998  0.00  0.00    +0.000 S 
ENDBRANCH   1  14
BRANCH   6  17
ATOM     17  O   UNL     1      26.711  23.140  22.928  0.00  0.00    +0.000 OA
ATOM     18  C   UNL     1      26.663  23.921  21.776  0.00  0.00    +0.000 C 
ENDBRANCH   6  17
BRANCH   7  19
ATOM     19  O   UNL     1      26.198  22.956  25.610  0.00  0.00    +0.000 OA
ATOM     20  C   UNL     1      25.590  23.923  26.434  0.00  0.00    +0.000 C 
ENDBRANCH   7  19
TORSDOF 3
ENDMDL
MODEL 6
REMARK VINA RESULT:      -5.7     13.595     16.024
REMARK  Name = 
REMARK  3 active torsions:
REMARK  status: ('A' for Active; 'I' for Inactive)
REMARK    1  A    between atoms: C_5  and  C_6
REMARK    2  A    between atoms: C_11  and  O_12
REMARK    3  A    between atoms: C_14  and  O_15
REMARK                            x       y       z     vdW  Elec       q    Type
REMARK                         _______ _______ _______ _____ _____    ______ ____
ROOT
ATOM      1  C   UNL     1      26.883  23.722  26.617  0.00  0.00    +0.000 A 
ATOM      2  C   UNL     1      25.613  24.100  26.220  0.00  0.00    +0.000 A 
ATOM      3  N   UNL     1      25.657  24.325  24.895  0.00  0.00    +0.000 NA
ATOM      4  C   UNL     1      26.905  24.110  24.412  0.00  0.00    +0.000 A 
ATOM      5  C   UNL     1      27.476  24.192  23.181  0.00  0.00    +0.000 A 
ATOM      6  C   UNL     1      28.807  23.901  23.018  0.00  0.00    +0.000 A 
ATOM      7  C   UNL     1      29.601  23.521  24.073  0.00  0.00    +0.000 A 
ATOM      8  C   UNL     1      29.009  23.441  25.322  0.00  0.00    +0.000 A 
ATOM      9  C   UNL     1      27.675  23.730  25.502  0.00  0.00    +0.000 A 
ENDROOT
BRANCH   1  14
ATOM     10  C   UNL     1      30.136  22.253  31.604  0.00  0.00    +0.000 C 
ATOM     11  N   UNL     1      30.110  22.555  30.181  0.00  0.00    +0.000 NA
ATOM     12  C   UNL     1      28.805  22.843  29.618  0.00  0.00    +0.000 A 
ATOM     13  N   UNL     1      28.529  23.142  28.365  0.00  0.00    +0.000 NA
ATOM     14  C   UNL     1      27.295  23.376  28.008  0.00  0.00    +0.000 A 
ATOM     15  C   UNL     1      26.344  23.292  28.998  0.00  0.00    +0.000 A 
ATOM     16  S   UNL     1      27.275  22.884  30.366  0.00  0.00    +0.000 S 
ENDBRANCH   1  14
BRANCH   6  17
ATOM     17  O   UNL     1      29.348  23.998  21.741  0.00  0.00    +0.000 OA
ATOM     18  C   UNL     1      29.331  25.173  20.993  0.00  0.00    +0.000 C 
ENDBRANCH   6  17
BRANCH   7  19
ATOM     19  O   UNL     1      30.937  23.242  23.838  0.00  0.00    +0.000 OA
ATOM     20  C   UNL     1      31.955  23.820  24.620  0.00  0.00    +0.000 C 
ENDBRANCH   7  19
TORSDOF 3
ENDMDL
MODEL 7
REMARK VINA RESULT:      -5.7     35.568     36.380
REMARK  Name = 
REMARK  3 active torsions:
REMARK  status: ('A' for Active; 'I' for Inactive)
REMARK    1  A    between atoms: C_5  and  C_6
REMARK    2  A    between atoms: C_11  and  O_12
REMARK    3  A    between atoms: C_14  and  O_15
REMARK                            x       y       z     vdW  Elec       q    Type
REMARK                         _______ _______ _______ _____ _____    ______ ____
ROOT
ATOM      1  C   UNL     1      18.370  -7.841  27.245  0.00  0.00    +0.000 A 
ATOM      2  C   UNL     1      17.885  -6.550  27.127  0.00  0.00    +0.000 A 
ATOM      3  N   UNL     1      18.755  -5.862  26.367  0.00  0.00    +0.000 NA
ATOM      4  C   UNL     1      19.788  -6.652  25.985  0.00  0.00    +0.000 A 
ATOM      5  C   UNL     1      20.904  -6.461  25.233  0.00  0.00    +0.000 A 
ATOM      6  C   UNL     1      21.782  -7.496  25.026  0.00  0.00    +0.000 A 
ATOM      7  C   UNL     1      21.571  -8.743  25.560  0.00  0.00    +0.000 A 
ATOM      8  C   UNL     1      20.431  -8.927  26.324  0.00  0.00    +0.000 A 
ATOM      9  C   UNL     1      19.541  -7.900  26.541  0.00  0.00    +0.000 A 
ENDROOT
BRANCH   1  14
ATOM     10  C   UNL     1      14.790 -12.530  28.920  0.00  0.00    +0.000 C 
ATOM     11  N   UNL     1      15.168 -11.554  27.910  0.00  0.00    +0.000 NA
ATOM     12  C   UNL     1      16.241 -10.648  28.274  0.00  0.00    +0.000 A 
ATOM     13  N   UNL     1      16.755  -9.688  27.534  0.00  0.00    +0.000 NA
ATOM     14  C   UNL     1      17.723  -8.949  28.005  0.00  0.00    +0.000 A 
ATOM     15  C   UNL     1      18.151  -9.240  29.280  0.00  0.00    +0.000 A 
ATOM     16  S   UNL     1      17.141 -10.541  29.716  0.00  0.00    +0.000 S 
ENDBRANCH   1  14
BRANCH   6  17
ATOM     17  O   UNL     1      22.910  -7.253  24.251  0.00  0.00    +0.000 OA
ATOM     18  C   UNL     1      23.784  -6.195  24.485  0.00  0.00    +0.000 C 
ENDBRANCH   6  17
BRANCH   7  19
ATOM     19  O   UNL     1      22.497  -9.743  25.312  0.00  0.00    +0.000 OA
ATOM     20  C   UNL     1      23.113 -10.448  26.364  0.00  0.00    +0.000 C 
ENDBRANCH   7  19
TORSDOF 3
ENDMDL
MODEL 8
REMARK VINA RESULT:      -5.6     34.517     35.446
REMARK  Name = 
REMARK  3 active torsions:
REMARK  status: ('A' for Active; 'I' for Inactive)
REMARK    1  A    between atoms: C_5  and  C_6
REMARK    2  A    between atoms: C_11  and  O_12
REMARK    3  A    between atoms: C_14  and  O_15
REMARK                            x       y       z     vdW  Elec       q    Type
REMARK                         _______ _______ _______ _____ _____    ______ ____
ROOT
ATOM      1  C   UNL     1      18.371  -7.067  26.053  0.00  0.00    +0.000 A 
ATOM      2  C   UNL     1      18.457  -5.728  26.390  0.00  0.00    +0.000 A 
ATOM      3  N   UNL     1      19.715  -5.329  26.138  0.00  0.00    +0.000 NA
ATOM      4  C   UNL     1      20.455  -6.354  25.650  0.00  0.00    +0.000 A 
ATOM      5  C   UNL     1      21.746  -6.487  25.246  0.00  0.00    +0.000 A 
ATOM      6  C   UNL     1      22.205  -7.698  24.789  0.00  0.00    +0.000 A 
ATOM      7  C   UNL     1      21.391  -8.803  24.724  0.00  0.00    +0.000 A 
ATOM      8  C   UNL     1      20.078  -8.656  25.138  0.00  0.00    +0.000 A 
ATOM      9  C   UNL     1      19.603  -7.449  25.599  0.00  0.00    +0.000 A 
ENDROOT
BRANCH   1  14
ATOM     10  C   UNL     1      12.704  -9.351  25.533  0.00  0.00    +0.000 C 
ATOM     11  N   UNL     1      13.657  -8.303  25.202  0.00  0.00    +0.000 NA
ATOM     12  C   UNL     1      14.988  -8.457  25.759  0.00  0.00    +0.000 A 
ATOM     13  N   UNL     1      16.013  -7.645  25.602  0.00  0.00    +0.000 NA
ATOM     14  C   UNL     1      17.155  -7.921  26.172  0.00  0.00    +0.000 A 
ATOM     15  C   UNL     1      17.205  -9.076  26.916  0.00  0.00    +0.000 A 
ATOM     16  S   UNL     1      15.622  -9.685  26.753  0.00  0.00    +0.000 S 
ENDBRANCH   1  14
BRANCH   6  17
ATOM     17  O   UNL     1      23.531  -7.787  24.386  0.00  0.00    +0.000 OA
ATOM     18  C   UNL     1      24.237  -6.718  23.840  0.00  0.00    +0.000 C 
ENDBRANCH   6  17
BRANCH   7  19
ATOM     19  O   UNL     1      21.917  -9.994  24.253  0.00  0.00    +0.000 OA
ATOM     20  C   UNL     1      21.709 -10.413  22.925  0.00  0.00    +0.000 C 
ENDBRANCH   7  19
TORSDOF 3
ENDMDL
MODEL 9
REMARK VINA RESULT:      -5.6     14.659     16.952
REMARK  Name = 
REMARK  3 active torsions:
REMARK  status: ('A' for Active; 'I' for Inactive)
REMARK    1  A    between atoms: C_5  and  C_6
REMARK    2  A    between atoms: C_11  and  O_12
REMARK    3  A    between atoms: C_14  and  O_15
REMARK                            x       y       z     vdW  Elec       q    Type
REMARK                         _______ _______ _______ _____ _____    ______ ____
ROOT
ATOM      1  C   UNL     1      27.556  23.591  28.207  0.00  0.00    +0.000 A 
ATOM      2  C   UNL     1      26.203  23.833  28.364  0.00  0.00    +0.000 A 
ATOM      3  N   UNL     1      25.645  23.809  27.141  0.00  0.00    +0.000 NA
ATOM      4  C   UNL     1      26.581  23.561  26.192  0.00  0.00    +0.000 A 
ATOM      5  C   UNL     1      26.553  23.437  24.838  0.00  0.00    +0.000 A 
ATOM      6  C   UNL     1      27.710  23.178  24.146  0.00  0.00    +0.000 A 
ATOM      7  C   UNL     1      28.919  23.036  24.782  0.00  0.00    +0.000 A 
ATOM      8  C   UNL     1      28.936  23.165  26.160  0.00  0.00    +0.000 A 
ATOM      9  C   UNL     1      27.785  23.425  26.869  0.00  0.00    +0.000 A 
ENDROOT
BRANCH   1  14
ATOM     10  C   UNL     1      30.917  21.831  33.026  0.00  0.00    +0.000 C 
ATOM     11  N   UNL     1      29.828  21.554  32.101  0.00  0.00    +0.000 NA
ATOM     12  C   UNL     1      29.583  22.563  31.088  0.00  0.00    +0.000 A 
ATOM     13  N   UNL     1      28.661  22.537  30.149  0.00  0.00    +0.000 NA
ATOM     14  C   UNL     1      28.564  23.528  29.304  0.00  0.00    +0.000 A 
ATOM     15  C   UNL     1      29.461  24.558  29.462  0.00  0.00    +0.000 A 
ATOM     16  S   UNL     1      30.378  24.042  30.804  0.00  0.00    +0.000 S 
ENDBRANCH   1  14
BRANCH   6  17
ATOM     17  O   UNL     1      27.633  23.058  22.763  0.00  0.00    +0.000 OA
ATOM     18  C   UNL     1      27.203  24.088  21.931  0.00  0.00    +0.000 C 
ENDBRANCH   6  17
BRANCH   7  19
ATOM     19  O   UNL     1      30.047  22.775  24.022  0.00  0.00    +0.000 OA
ATOM     20  C   UNL     1      31.335  23.107  24.485  0.00  0.00    +0.000 C 
ENDBRANCH   7  19
TORSDOF 3
ENDMDL
MODEL 10
REMARK VINA RESULT:      -5.6     11.719     13.769
REMARK  Name = 
REMARK  3 active torsions:
REMARK  status: ('A' for Active; 'I' for Inactive)
REMARK    1  A    between atoms: C_5  and  C_6
REMARK    2  A    between atoms: C_11  and  O_12
REMARK    3  A    between atoms: C_14  and  O_15
REMARK                            x       y       z     vdW  Elec       q    Type
REMARK                         _______ _______ _______ _____ _____    ______ ____
ROOT
ATOM      1  C   UNL     1      31.472  24.180  25.854  0.00  0.00    +0.000 A 
ATOM      2  C   UNL     1      30.962  23.728  27.057  0.00  0.00    +0.000 A 
ATOM      3  N   UNL     1      29.724  23.260  26.820  0.00  0.00    +0.000 NA
ATOM      4  C   UNL     1      29.406  23.389  25.509  0.00  0.00    +0.000 A 
ATOM      5  C   UNL     1      28.312  23.083  24.761  0.00  0.00    +0.000 A 
ATOM      6  C   UNL     1      28.302  23.349  23.414  0.00  0.00    +0.000 A 
ATOM      7  C   UNL     1      29.377  23.922  22.780  0.00  0.00    +0.000 A 
ATOM      8  C   UNL     1      30.485  24.229  23.551  0.00  0.00    +0.000 A 
ATOM      9  C   UNL     1      30.511  23.970  24.903  0.00  0.00    +0.000 A 
ENDROOT
BRANCH   1  14
ATOM     10  C   UNL     1      37.162  25.357  23.893  0.00  0.00    +0.000 C 
ATOM     11  N   UNL     1      35.974  24.519  23.832  0.00  0.00    +0.000 NA
ATOM     12  C   UNL     1      34.878  24.908  24.699  0.00  0.00    +0.000 A 
ATOM     13  N   UNL     1      33.711  24.311  24.818  0.00  0.00    +0.000 NA
ATOM     14  C   UNL     1      32.820  24.783  25.648  0.00  0.00    +0.000 A 
ATOM     15  C   UNL     1      33.178  25.905  26.358  0.00  0.00    +0.000 A 
ATOM     16  S   UNL     1      34.758  26.206  25.794  0.00  0.00    +0.000 S 
ENDBRANCH   1  14
BRANCH   6  17
ATOM     17  O   UNL     1      27.162  23.019  22.690  0.00  0.00    +0.000 OA
ATOM     18  C   UNL     1      25.879  23.405  23.068  0.00  0.00    +0.000 C 
ENDBRANCH   6  17
BRANCH   7  19
ATOM     19  O   UNL     1      29.300  24.162  21.419  0.00  0.00    +0.000 OA
ATOM     20  C   UNL     1      29.187  25.471  20.910  0.00  0.00    +0.000 C 
ENDBRANCH   7  19
TORSDOF 3
ENDMDL
