MODEL 1
REMARK VINA RESULT:      -8.2      0.000      0.000
REMARK  Name = 
REMARK  7 active torsions:
REMARK  status: ('A' for Active; 'I' for Inactive)
REMARK    1  A    between atoms: C_2  and  O_3
REMARK    2  A    between atoms: O_3  and  C_4
REMARK    3  A    between atoms: C_7  and  C_8
REMARK    4  A    between atoms: C_10  and  C_11
REMARK    5  A    between atoms: N_13  and  C_14
REMARK    6  A    between atoms: C_14  and  C_15
REMARK    7  A    between atoms: C_18  and  O_19
REMARK                            x       y       z     vdW  Elec       q    Type
REMARK                         _______ _______ _______ _____ _____    ______ ____
ROOT
ATOM      1  C   UNL     1      38.758   5.450  17.001  0.00  0.00    +0.000 A 
ATOM      2  C   UNL     1      38.071   4.270  17.170  0.00  0.00    +0.000 A 
ATOM      3  C   UNL     1      37.190   3.868  16.207  0.00  0.00    +0.000 A 
ATOM      4  C   UNL     1      37.017   4.675  15.078  0.00  0.00    +0.000 A 
ATOM      5  C   UNL     1      36.149   4.348  14.054  0.00  0.00    +0.000 A 
ATOM      6  C   UNL     1      35.966   5.122  12.949  0.00  0.00    +0.000 A 
ATOM      7  C   UNL     1      36.680   6.324  12.809  0.00  0.00    +0.000 A 
ATOM      8  C   UNL     1      37.549   6.673  13.810  0.00  0.00    +0.000 A 
ATOM      9  C   UNL     1      37.717   5.871  14.918  0.00  0.00    +0.000 A 
ATOM     10  N   UNL     1      38.568   6.203  15.908  0.00  0.00    +0.000 NA
ENDROOT
BRANCH   1  14
ATOM     11  C   UNL     1      41.742   6.804  19.716  0.00  0.00    +0.000 A 
ATOM     12  C   UNL     1      42.031   6.601  18.409  0.00  0.00    +0.000 A 
ATOM     13  C   UNL     1      41.032   6.152  17.527  0.00  0.00    +0.000 A 
ATOM     14  C   UNL     1      39.742   5.913  17.987  0.00  0.00    +0.000 A 
ATOM     15  C   UNL     1      39.480   6.127  19.309  0.00  0.00    +0.000 A 
ATOM     16  C   UNL     1      40.474   6.573  20.191  0.00  0.00    +0.000 A 
BRANCH  11  17
ATOM     17  O   UNL     1      42.753   7.269  20.628  0.00  0.00    +0.000 OA
BRANCH  17  19
ATOM     18  C   UNL     1      43.840   6.444  22.551  0.00  0.00    +0.000 C 
ATOM     19  C   UNL     1      43.681   6.238  21.052  0.00  0.00    +0.000 C 
ENDBRANCH  17  19
ENDBRANCH  11  17
ENDBRANCH   1  14
BRANCH   3  20
ATOM     20  C   UNL     1      36.430   2.635  16.214  0.00  0.00    +0.000 C 
ATOM     21  O   UNL     1      35.206   2.584  16.571  0.00  0.00    +0.000 OA
ATOM     22  N   UNL     1      37.024   1.435  15.829  0.00  0.00    +0.000 NA
BRANCH  22  23
ATOM     23  C   UNL     1      36.461   0.126  15.754  0.00  0.00    +0.000 C 
BRANCH  23  24
ATOM     24  C   UNL     1      36.906  -0.706  16.900  0.00  0.00    +0.000 A 
ATOM     25  C   UNL     1      36.389  -0.574  18.183  0.00  0.00    +0.000 A 
ATOM     26  C   UNL     1      36.804  -1.314  19.252  0.00  0.00    +0.000 A 
ATOM     27  C   UNL     1      37.792  -2.262  19.116  0.00  0.00    +0.000 A 
ATOM     28  C   UNL     1      38.333  -2.414  17.813  0.00  0.00    +0.000 A 
ATOM     29  C   UNL     1      37.902  -1.665  16.765  0.00  0.00    +0.000 A 
BRANCH  27  30
ATOM     30  O   UNL     1      38.307  -3.070  20.072  0.00  0.00    +0.000 OA
ATOM     31  C   UNL     1      38.988  -4.298  19.867  0.00  0.00    +0.000 C 
ENDBRANCH  27  30
ENDBRANCH  23  24
ENDBRANCH  22  23
ENDBRANCH   3  20
TORSDOF 7
ENDMDL
MODEL 2
REMARK VINA RESULT:      -8.0      3.705      8.479
REMARK  Name = 
REMARK  7 active torsions:
REMARK  status: ('A' for Active; 'I' for Inactive)
REMARK    1  A    between atoms: C_2  and  O_3
REMARK    2  A    between atoms: O_3  and  C_4
REMARK    3  A    between atoms: C_7  and  C_8
REMARK    4  A    between atoms: C_10  and  C_11
REMARK    5  A    between atoms: N_13  and  C_14
REMARK    6  A    between atoms: C_14  and  C_15
REMARK    7  A    between atoms: C_18  and  O_19
REMARK                            x       y       z     vdW  Elec       q    Type
REMARK                         _______ _______ _______ _____ _____    ______ ____
ROOT
ATOM      1  C   UNL     1      39.018  -0.251  14.627  0.00  0.00    +0.000 A 
ATOM      2  C   UNL     1      39.013   1.124  14.577  0.00  0.00    +0.000 A 
ATOM      3  C   UNL     1      37.971   1.808  15.136  0.00  0.00    +0.000 A 
ATOM      4  C   UNL     1      36.941   1.081  15.741  0.00  0.00    +0.000 A 
ATOM      5  C   UNL     1      35.849   1.687  16.332  0.00  0.00    +0.000 A 
ATOM      6  C   UNL     1      34.836   0.996  16.923  0.00  0.00    +0.000 A 
ATOM      7  C   UNL     1      34.868  -0.408  16.952  0.00  0.00    +0.000 A 
ATOM      8  C   UNL     1      35.941  -1.036  16.375  0.00  0.00    +0.000 A 
ATOM      9  C   UNL     1      36.955  -0.313  15.783  0.00  0.00    +0.000 A 
ATOM     10  N   UNL     1      38.013  -0.919  15.212  0.00  0.00    +0.000 NA
ENDROOT
BRANCH   1  14
ATOM     11  C   UNL     1      42.106  -2.644  12.939  0.00  0.00    +0.000 A 
ATOM     12  C   UNL     1      40.803  -2.972  12.774  0.00  0.00    +0.000 A 
ATOM     13  C   UNL     1      39.796  -2.169  13.341  0.00  0.00    +0.000 A 
ATOM     14  C   UNL     1      40.128  -1.035  14.073  0.00  0.00    +0.000 A 
ATOM     15  C   UNL     1      41.450  -0.730  14.222  0.00  0.00    +0.000 A 
ATOM     16  C   UNL     1      42.456  -1.528  13.660  0.00  0.00    +0.000 A 
BRANCH  11  17
ATOM     17  O   UNL     1      43.146  -3.453  12.360  0.00  0.00    +0.000 OA
BRANCH  17  19
ATOM     18  C   UNL     1      45.371  -4.224  12.247  0.00  0.00    +0.000 C 
ATOM     19  C   UNL     1      44.463  -3.202  12.914  0.00  0.00    +0.000 C 
ENDBRANCH  17  19
ENDBRANCH  11  17
ENDBRANCH   1  14
BRANCH   3  20
ATOM     20  C   UNL     1      37.843   3.249  15.208  0.00  0.00    +0.000 C 
ATOM     21  O   UNL     1      37.168   3.922  14.361  0.00  0.00    +0.000 OA
ATOM     22  N   UNL     1      38.474   3.965  16.223  0.00  0.00    +0.000 NA
BRANCH  22  23
ATOM     23  C   UNL     1      38.470   5.368  16.482  0.00  0.00    +0.000 C 
BRANCH  23  24
ATOM     24  C   UNL     1      39.547   5.732  17.437  0.00  0.00    +0.000 A 
ATOM     25  C   UNL     1      39.359   5.778  18.813  0.00  0.00    +0.000 A 
ATOM     26  C   UNL     1      40.331   6.135  19.703  0.00  0.00    +0.000 A 
ATOM     27  C   UNL     1      41.591   6.481  19.274  0.00  0.00    +0.000 A 
ATOM     28  C   UNL     1      41.804   6.439  17.872  0.00  0.00    +0.000 A 
ATOM     29  C   UNL     1      40.820   6.081  17.007  0.00  0.00    +0.000 A 
BRANCH  27  30
ATOM     30  O   UNL     1      42.652   6.853  20.027  0.00  0.00    +0.000 OA
ATOM     31  C   UNL     1      43.048   6.294  21.269  0.00  0.00    +0.000 C 
ENDBRANCH  27  30
ENDBRANCH  23  24
ENDBRANCH  22  23
ENDBRANCH   3  20
TORSDOF 7
ENDMDL
MODEL 3
REMARK VINA RESULT:      -7.7      2.114      2.854
REMARK  Name = 
REMARK  7 active torsions:
REMARK  status: ('A' for Active; 'I' for Inactive)
REMARK    1  A    between atoms: C_2  and  O_3
REMARK    2  A    between atoms: O_3  and  C_4
REMARK    3  A    between atoms: C_7  and  C_8
REMARK    4  A    between atoms: C_10  and  C_11
REMARK    5  A    between atoms: N_13  and  C_14
REMARK    6  A    between atoms: C_14  and  C_15
REMARK    7  A    between atoms: C_18  and  O_19
REMARK                            x       y       z     vdW  Elec       q    Type
REMARK                         _______ _______ _______ _____ _____    ______ ____
ROOT
ATOM      1  C   UNL     1      38.844   5.483  17.009  0.00  0.00    +0.000 A 
ATOM      2  C   UNL     1      38.246   4.253  17.169  0.00  0.00    +0.000 A 
ATOM      3  C   UNL     1      37.288   3.858  16.279  0.00  0.00    +0.000 A 
ATOM      4  C   UNL     1      36.947   4.721  15.233  0.00  0.00    +0.000 A 
ATOM      5  C   UNL     1      35.991   4.405  14.287  0.00  0.00    +0.000 A 
ATOM      6  C   UNL     1      35.645   5.234  13.264  0.00  0.00    +0.000 A 
ATOM      7  C   UNL     1      36.272   6.484  13.132  0.00  0.00    +0.000 A 
ATOM      8  C   UNL     1      37.225   6.824  14.056  0.00  0.00    +0.000 A 
ATOM      9  C   UNL     1      37.558   5.966  15.083  0.00  0.00    +0.000 A 
ATOM     10  N   UNL     1      38.493   6.289  15.997  0.00  0.00    +0.000 NA
ENDROOT
BRANCH   1  14
ATOM     11  C   UNL     1      41.788   6.806  19.783  0.00  0.00    +0.000 A 
ATOM     12  C   UNL     1      40.524   6.534  20.186  0.00  0.00    +0.000 A 
ATOM     13  C   UNL     1      39.565   6.099  19.254  0.00  0.00    +0.000 A 
ATOM     14  C   UNL     1      39.903   5.944  17.915  0.00  0.00    +0.000 A 
ATOM     15  C   UNL     1      41.184   6.226  17.538  0.00  0.00    +0.000 A 
ATOM     16  C   UNL     1      42.143   6.661  18.464  0.00  0.00    +0.000 A 
BRANCH  11  17
ATOM     17  O   UNL     1      42.781   7.246  20.726  0.00  0.00    +0.000 OA
BRANCH  17  19
ATOM     18  C   UNL     1      44.786   6.060  21.087  0.00  0.00    +0.000 C 
ATOM     19  C   UNL     1      43.338   6.178  21.535  0.00  0.00    +0.000 C 
ENDBRANCH  17  19
ENDBRANCH  11  17
ENDBRANCH   1  14
BRANCH   3  20
ATOM     20  C   UNL     1      36.603   2.582  16.282  0.00  0.00    +0.000 C 
ATOM     21  O   UNL     1      35.391   2.453  16.660  0.00  0.00    +0.000 OA
ATOM     22  N   UNL     1      37.261   1.424  15.870  0.00  0.00    +0.000 NA
BRANCH  22  23
ATOM     23  C   UNL     1      36.776   0.086  15.787  0.00  0.00    +0.000 C 
BRANCH  23  24
ATOM     24  C   UNL     1      37.737  -0.780  15.058  0.00  0.00    +0.000 A 
ATOM     25  C   UNL     1      38.871  -1.324  15.649  0.00  0.00    +0.000 A 
ATOM     26  C   UNL     1      39.778  -2.100  14.987  0.00  0.00    +0.000 A 
ATOM     27  C   UNL     1      39.616  -2.396  13.653  0.00  0.00    +0.000 A 
ATOM     28  C   UNL     1      38.463  -1.851  13.031  0.00  0.00    +0.000 A 
ATOM     29  C   UNL     1      37.576  -1.081  13.712  0.00  0.00    +0.000 A 
BRANCH  27  30
ATOM     30  O   UNL     1      40.420  -3.147  12.864  0.00  0.00    +0.000 OA
ATOM     31  C   UNL     1      41.838  -3.193  12.899  0.00  0.00    +0.000 C 
ENDBRANCH  27  30
ENDBRANCH  23  24
ENDBRANCH  22  23
ENDBRANCH   3  20
TORSDOF 7
ENDMDL
MODEL 4
REMARK VINA RESULT:      -7.5      3.603      9.838
REMARK  Name = 
REMARK  7 active torsions:
REMARK  status: ('A' for Active; 'I' for Inactive)
REMARK    1  A    between atoms: C_2  and  O_3
REMARK    2  A    between atoms: O_3  and  C_4
REMARK    3  A    between atoms: C_7  and  C_8
REMARK    4  A    between atoms: C_10  and  C_11
REMARK    5  A    between atoms: N_13  and  C_14
REMARK    6  A    between atoms: C_14  and  C_15
REMARK    7  A    between atoms: C_18  and  O_19
REMARK                            x       y       z     vdW  Elec       q    Type
REMARK                         _______ _______ _______ _____ _____    ______ ____
ROOT
ATOM      1  C   UNL     1      36.278   2.141  15.808  0.00  0.00    +0.000 A 
ATOM      2  C   UNL     1      35.884   2.852  14.697  0.00  0.00    +0.000 A 
ATOM      3  C   UNL     1      36.330   4.133  14.533  0.00  0.00    +0.000 A 
ATOM      4  C   UNL     1      37.173   4.679  15.506  0.00  0.00    +0.000 A 
ATOM      5  C   UNL     1      37.672   5.964  15.424  0.00  0.00    +0.000 A 
ATOM      6  C   UNL     1      38.491   6.513  16.362  0.00  0.00    +0.000 A 
ATOM      7  C   UNL     1      38.870   5.762  17.488  0.00  0.00    +0.000 A 
ATOM      8  C   UNL     1      38.391   4.482  17.595  0.00  0.00    +0.000 A 
ATOM      9  C   UNL     1      37.562   3.950  16.630  0.00  0.00    +0.000 A 
ATOM     10  N   UNL     1      37.085   2.694  16.724  0.00  0.00    +0.000 NA
ENDROOT
BRANCH   1  14
ATOM     11  C   UNL     1      35.183  -1.945  16.275  0.00  0.00    +0.000 A 
ATOM     12  C   UNL     1      36.072  -1.566  15.327  0.00  0.00    +0.000 A 
ATOM     13  C   UNL     1      36.421  -0.210  15.187  0.00  0.00    +0.000 A 
ATOM     14  C   UNL     1      35.858   0.751  16.018  0.00  0.00    +0.000 A 
ATOM     15  C   UNL     1      34.964   0.339  16.964  0.00  0.00    +0.000 A 
ATOM     16  C   UNL     1      34.614  -1.011  17.106  0.00  0.00    +0.000 A 
BRANCH  11  17
ATOM     17  O   UNL     1      34.822  -3.329  16.432  0.00  0.00    +0.000 OA
BRANCH  17  19
ATOM     18  C   UNL     1      33.744  -4.470  14.674  0.00  0.00    +0.000 C 
ATOM     19  C   UNL     1      35.106  -4.146  15.268  0.00  0.00    +0.000 C 
ENDBRANCH  17  19
ENDBRANCH  11  17
ENDBRANCH   1  14
BRANCH   3  20
ATOM     20  C   UNL     1      36.047   4.991  13.401  0.00  0.00    +0.000 C 
ATOM     21  O   UNL     1      36.777   5.012  12.355  0.00  0.00    +0.000 OA
ATOM     22  N   UNL     1      34.949   5.848  13.420  0.00  0.00    +0.000 NA
BRANCH  22  23
ATOM     23  C   UNL     1      34.490   6.757  12.421  0.00  0.00    +0.000 C 
BRANCH  23  24
ATOM     24  C   UNL     1      34.353   8.127  12.976  0.00  0.00    +0.000 A 
ATOM     25  C   UNL     1      34.098   8.382  14.318  0.00  0.00    +0.000 A 
ATOM     26  C   UNL     1      33.945   9.634  14.840  0.00  0.00    +0.000 A 
ATOM     27  C   UNL     1      34.036  10.750  14.041  0.00  0.00    +0.000 A 
ATOM     28  C   UNL     1      34.297  10.511  12.667  0.00  0.00    +0.000 A 
ATOM     29  C   UNL     1      34.445   9.255  12.172  0.00  0.00    +0.000 A 
BRANCH  27  30
ATOM     30  O   UNL     1      33.909  12.047  14.406  0.00  0.00    +0.000 OA
ATOM     31  C   UNL     1      34.905  12.858  15.011  0.00  0.00    +0.000 C 
ENDBRANCH  27  30
ENDBRANCH  23  24
ENDBRANCH  22  23
ENDBRANCH   3  20
TORSDOF 7
ENDMDL
MODEL 5
REMARK VINA RESULT:      -7.3      4.319      8.674
REMARK  Name = 
REMARK  7 active torsions:
REMARK  status: ('A' for Active; 'I' for Inactive)
REMARK    1  A    between atoms: C_2  and  O_3
REMARK    2  A    between atoms: O_3  and  C_4
REMARK    3  A    between atoms: C_7  and  C_8
REMARK    4  A    between atoms: C_10  and  C_11
REMARK    5  A    between atoms: N_13  and  C_14
REMARK    6  A    between atoms: C_14  and  C_15
REMARK    7  A    between atoms: C_18  and  O_19
REMARK                            x       y       z     vdW  Elec       q    Type
REMARK                         _______ _______ _______ _____ _____    ______ ____
ROOT
ATOM      1  C   UNL     1      40.258  -1.442  14.582  0.00  0.00    +0.000 A 
ATOM      2  C   UNL     1      39.804  -0.161  14.363  0.00  0.00    +0.000 A 
ATOM      3  C   UNL     1      38.599   0.217  14.883  0.00  0.00    +0.000 A 
ATOM      4  C   UNL     1      37.866  -0.716  15.623  0.00  0.00    +0.000 A 
ATOM      5  C   UNL     1      36.639  -0.423  16.186  0.00  0.00    +0.000 A 
ATOM      6  C   UNL     1      35.911  -1.318  16.907  0.00  0.00    +0.000 A 
ATOM      7  C   UNL     1      36.400  -2.619  17.109  0.00  0.00    +0.000 A 
ATOM      8  C   UNL     1      37.616  -2.938  16.562  0.00  0.00    +0.000 A 
ATOM      9  C   UNL     1      38.335  -2.012  15.836  0.00  0.00    +0.000 A 
ATOM     10  N   UNL     1      39.530  -2.313  15.294  0.00  0.00    +0.000 NA
ENDROOT
BRANCH   1  14
ATOM     11  C   UNL     1      44.120  -2.611  13.229  0.00  0.00    +0.000 A 
ATOM     12  C   UNL     1      43.968  -1.584  14.099  0.00  0.00    +0.000 A 
ATOM     13  C   UNL     1      42.683  -1.211  14.533  0.00  0.00    +0.000 A 
ATOM     14  C   UNL     1      41.560  -1.891  14.077  0.00  0.00    +0.000 A 
ATOM     15  C   UNL     1      41.744  -2.922  13.201  0.00  0.00    +0.000 A 
ATOM     16  C   UNL     1      43.023  -3.295  12.764  0.00  0.00    +0.000 A 
BRANCH  11  17
ATOM     17  O   UNL     1      45.428  -3.006  12.781  0.00  0.00    +0.000 OA
BRANCH  17  19
ATOM     18  C   UNL     1      46.591  -4.209  14.442  0.00  0.00    +0.000 C 
ATOM     19  C   UNL     1      46.466  -2.845  13.781  0.00  0.00    +0.000 C 
ENDBRANCH  17  19
ENDBRANCH  11  17
ENDBRANCH   1  14
BRANCH   3  20
ATOM     20  C   UNL     1      38.008   1.536  14.782  0.00  0.00    +0.000 C 
ATOM     21  O   UNL     1      37.187   1.852  13.858  0.00  0.00    +0.000 OA
ATOM     22  N   UNL     1      38.329   2.528  15.707  0.00  0.00    +0.000 NA
BRANCH  22  23
ATOM     23  C   UNL     1      37.859   3.872  15.795  0.00  0.00    +0.000 C 
BRANCH  23  24
ATOM     24  C   UNL     1      38.754   4.688  16.655  0.00  0.00    +0.000 A 
ATOM     25  C   UNL     1      38.593   4.801  18.030  0.00  0.00    +0.000 A 
ATOM     26  C   UNL     1      39.390   5.567  18.831  0.00  0.00    +0.000 A 
ATOM     27  C   UNL     1      40.432   6.294  18.304  0.00  0.00    +0.000 A 
ATOM     28  C   UNL     1      40.615   6.191  16.901  0.00  0.00    +0.000 A 
ATOM     29  C   UNL     1      39.807   5.422  16.126  0.00  0.00    +0.000 A 
BRANCH  27  30
ATOM     30  O   UNL     1      41.305   7.092  18.961  0.00  0.00    +0.000 OA
ATOM     31  C   UNL     1      42.583   6.724  19.457  0.00  0.00    +0.000 C 
ENDBRANCH  27  30
ENDBRANCH  23  24
ENDBRANCH  22  23
ENDBRANCH   3  20
TORSDOF 7
ENDMDL
MODEL 6
REMARK VINA RESULT:      -7.3      3.349      9.278
REMARK  Name = 
REMARK  7 active torsions:
REMARK  status: ('A' for Active; 'I' for Inactive)
REMARK    1  A    between atoms: C_2  and  O_3
REMARK    2  A    between atoms: O_3  and  C_4
REMARK    3  A    between atoms: C_7  and  C_8
REMARK    4  A    between atoms: C_10  and  C_11
REMARK    5  A    between atoms: N_13  and  C_14
REMARK    6  A    between atoms: C_14  and  C_15
REMARK    7  A    between atoms: C_18  and  O_19
REMARK                            x       y       z     vdW  Elec       q    Type
REMARK                         _______ _______ _______ _____ _____    ______ ____
ROOT
ATOM      1  C   UNL     1      37.940  -0.352  14.558  0.00  0.00    +0.000 A 
ATOM      2  C   UNL     1      37.493   0.831  15.102  0.00  0.00    +0.000 A 
ATOM      3  C   UNL     1      38.185   1.982  14.853  0.00  0.00    +0.000 A 
ATOM      4  C   UNL     1      39.329   1.916  14.051  0.00  0.00    +0.000 A 
ATOM      5  C   UNL     1      40.091   3.027  13.746  0.00  0.00    +0.000 A 
ATOM      6  C   UNL     1      41.209   2.982  12.970  0.00  0.00    +0.000 A 
ATOM      7  C   UNL     1      41.640   1.757  12.435  0.00  0.00    +0.000 A 
ATOM      8  C   UNL     1      40.903   0.638  12.720  0.00  0.00    +0.000 A 
ATOM      9  C   UNL     1      39.774   0.711  13.508  0.00  0.00    +0.000 A 
ATOM     10  N   UNL     1      39.042  -0.382  13.796  0.00  0.00    +0.000 NA
ENDROOT
BRANCH   1  14
ATOM     11  C   UNL     1      35.719  -3.911  15.273  0.00  0.00    +0.000 A 
ATOM     12  C   UNL     1      35.393  -2.751  15.890  0.00  0.00    +0.000 A 
ATOM     13  C   UNL     1      36.140  -1.585  15.643  0.00  0.00    +0.000 A 
ATOM     14  C   UNL     1      37.216  -1.612  14.764  0.00  0.00    +0.000 A 
ATOM     15  C   UNL     1      37.522  -2.796  14.156  0.00  0.00    +0.000 A 
ATOM     16  C   UNL     1      36.780  -3.960  14.402  0.00  0.00    +0.000 A 
BRANCH  11  17
ATOM     17  O   UNL     1      34.960  -5.110  15.514  0.00  0.00    +0.000 OA
BRANCH  17  19
ATOM     18  C   UNL     1      33.967  -6.786  14.187  0.00  0.00    +0.000 C 
ATOM     19  C   UNL     1      33.876  -5.317  14.572  0.00  0.00    +0.000 C 
ENDBRANCH  17  19
ENDBRANCH  11  17
ENDBRANCH   1  14
BRANCH   3  20
ATOM     20  C   UNL     1      37.820   3.307  15.309  0.00  0.00    +0.000 C 
ATOM     21  O   UNL     1      37.080   4.090  14.626  0.00  0.00    +0.000 OA
ATOM     22  N   UNL     1      38.282   3.786  16.534  0.00  0.00    +0.000 NA
BRANCH  22  23
ATOM     23  C   UNL     1      38.037   5.039  17.169  0.00  0.00    +0.000 C 
BRANCH  23  24
ATOM     24  C   UNL     1      39.290   5.598  17.735  0.00  0.00    +0.000 A 
ATOM     25  C   UNL     1      40.400   5.914  16.961  0.00  0.00    +0.000 A 
ATOM     26  C   UNL     1      41.569   6.405  17.469  0.00  0.00    +0.000 A 
ATOM     27  C   UNL     1      41.718   6.620  18.819  0.00  0.00    +0.000 A 
ATOM     28  C   UNL     1      40.596   6.304  19.628  0.00  0.00    +0.000 A 
ATOM     29  C   UNL     1      39.444   5.817  19.098  0.00  0.00    +0.000 A 
BRANCH  27  30
ATOM     30  O   UNL     1      42.805   7.098  19.470  0.00  0.00    +0.000 OA
ATOM     31  C   UNL     1      42.813   8.066  20.508  0.00  0.00    +0.000 C 
ENDBRANCH  27  30
ENDBRANCH  23  24
ENDBRANCH  22  23
ENDBRANCH   3  20
TORSDOF 7
ENDMDL
MODEL 7
REMARK VINA RESULT:      -7.3      4.617     10.242
REMARK  Name = 
REMARK  7 active torsions:
REMARK  status: ('A' for Active; 'I' for Inactive)
REMARK    1  A    between atoms: C_2  and  O_3
REMARK    2  A    between atoms: O_3  and  C_4
REMARK    3  A    between atoms: C_7  and  C_8
REMARK    4  A    between atoms: C_10  and  C_11
REMARK    5  A    between atoms: N_13  and  C_14
REMARK    6  A    between atoms: C_14  and  C_15
REMARK    7  A    between atoms: C_18  and  O_19
REMARK                            x       y       z     vdW  Elec       q    Type
REMARK                         _______ _______ _______ _____ _____    ______ ____
ROOT
ATOM      1  C   UNL     1      42.437   7.013  20.413  0.00  0.00    +0.000 A 
ATOM      2  C   UNL     1      43.069   6.106  21.234  0.00  0.00    +0.000 A 
ATOM      3  C   UNL     1      43.904   6.564  22.213  0.00  0.00    +0.000 A 
ATOM      4  C   UNL     1      44.089   7.944  22.346  0.00  0.00    +0.000 A 
ATOM      5  C   UNL     1      44.914   8.497  23.307  0.00  0.00    +0.000 A 
ATOM      6  C   UNL     1      45.107   9.836  23.450  0.00  0.00    +0.000 A 
ATOM      7  C   UNL     1      44.451  10.735  22.592  0.00  0.00    +0.000 A 
ATOM      8  C   UNL     1      43.625  10.214  21.630  0.00  0.00    +0.000 A 
ATOM      9  C   UNL     1      43.446   8.853  21.507  0.00  0.00    +0.000 A 
ATOM     10  N   UNL     1      42.637   8.330  20.565  0.00  0.00    +0.000 NA
ENDROOT
BRANCH   1  14
ATOM     11  C   UNL     1      39.591   5.736  17.518  0.00  0.00    +0.000 A 
ATOM     12  C   UNL     1      39.269   5.796  18.832  0.00  0.00    +0.000 A 
ATOM     13  C   UNL     1      40.224   6.219  19.774  0.00  0.00    +0.000 A 
ATOM     14  C   UNL     1      41.503   6.580  19.368  0.00  0.00    +0.000 A 
ATOM     15  C   UNL     1      41.799   6.510  18.037  0.00  0.00    +0.000 A 
ATOM     16  C   UNL     1      40.850   6.087  17.095  0.00  0.00    +0.000 A 
BRANCH  11  17
ATOM     17  O   UNL     1      38.622   5.311  16.543  0.00  0.00    +0.000 OA
BRANCH  17  19
ATOM     18  C   UNL     1      38.940   3.432  15.154  0.00  0.00    +0.000 C 
ATOM     19  C   UNL     1      39.200   4.927  15.269  0.00  0.00    +0.000 C 
ENDBRANCH  17  19
ENDBRANCH  11  17
ENDBRANCH   1  14
BRANCH   3  20
ATOM     20  C   UNL     1      44.602   5.746  23.184  0.00  0.00    +0.000 C 
ATOM     21  O   UNL     1      45.626   5.046  22.884  0.00  0.00    +0.000 OA
ATOM     22  N   UNL     1      44.164   5.687  24.505  0.00  0.00    +0.000 NA
BRANCH  22  23
ATOM     23  C   UNL     1      44.705   4.963  25.609  0.00  0.00    +0.000 C 
BRANCH  23  24
ATOM     24  C   UNL     1      43.694   4.811  26.686  0.00  0.00    +0.000 A 
ATOM     25  C   UNL     1      43.643   3.709  27.532  0.00  0.00    +0.000 A 
ATOM     26  C   UNL     1      42.706   3.542  28.510  0.00  0.00    +0.000 A 
ATOM     27  C   UNL     1      41.726   4.485  28.720  0.00  0.00    +0.000 A 
ATOM     28  C   UNL     1      41.761   5.619  27.868  0.00  0.00    +0.000 A 
ATOM     29  C   UNL     1      42.704   5.761  26.901  0.00  0.00    +0.000 A 
BRANCH  27  30
ATOM     30  O   UNL     1      40.736   4.464  29.642  0.00  0.00    +0.000 OA
ATOM     31  C   UNL     1      39.552   5.246  29.632  0.00  0.00    +0.000 C 
ENDBRANCH  27  30
ENDBRANCH  23  24
ENDBRANCH  22  23
ENDBRANCH   3  20
TORSDOF 7
ENDMDL
MODEL 8
REMARK VINA RESULT:      -7.2     24.511     27.862
REMARK  Name = 
REMARK  7 active torsions:
REMARK  status: ('A' for Active; 'I' for Inactive)
REMARK    1  A    between atoms: C_2  and  O_3
REMARK    2  A    between atoms: O_3  and  C_4
REMARK    3  A    between atoms: C_7  and  C_8
REMARK    4  A    between atoms: C_10  and  C_11
REMARK    5  A    between atoms: N_13  and  C_14
REMARK    6  A    between atoms: C_14  and  C_15
REMARK    7  A    between atoms: C_18  and  O_19
REMARK                            x       y       z     vdW  Elec       q    Type
REMARK                         _______ _______ _______ _____ _____    ______ ____
ROOT
ATOM      1  C   UNL     1      11.538  -1.492  25.809  0.00  0.00    +0.000 A 
ATOM      2  C   UNL     1      12.817  -1.375  26.305  0.00  0.00    +0.000 A 
ATOM      3  C   UNL     1      13.243  -0.163  26.770  0.00  0.00    +0.000 A 
ATOM      4  C   UNL     1      12.360   0.921  26.724  0.00  0.00    +0.000 A 
ATOM      5  C   UNL     1      12.704   2.181  27.172  0.00  0.00    +0.000 A 
ATOM      6  C   UNL     1      11.859   3.248  27.133  0.00  0.00    +0.000 A 
ATOM      7  C   UNL     1      10.562   3.096  26.616  0.00  0.00    +0.000 A 
ATOM      8  C   UNL     1      10.193   1.855  26.165  0.00  0.00    +0.000 A 
ATOM      9  C   UNL     1      11.068   0.791  26.216  0.00  0.00    +0.000 A 
ATOM     10  N   UNL     1      10.717  -0.433  25.776  0.00  0.00    +0.000 NA
ENDROOT
BRANCH   1  14
ATOM     11  C   UNL     1      10.179  -5.305  24.497  0.00  0.00    +0.000 A 
ATOM     12  C   UNL     1      11.345  -5.176  25.172  0.00  0.00    +0.000 A 
ATOM     13  C   UNL     1      11.779  -3.907  25.596  0.00  0.00    +0.000 A 
ATOM     14  C   UNL     1      11.016  -2.776  25.328  0.00  0.00    +0.000 A 
ATOM     15  C   UNL     1       9.845  -2.937  24.646  0.00  0.00    +0.000 A 
ATOM     16  C   UNL     1       9.411  -4.200  24.220  0.00  0.00    +0.000 A 
BRANCH  11  17
ATOM     17  O   UNL     1       9.721  -6.598  24.062  0.00  0.00    +0.000 OA
BRANCH  17  19
ATOM     18  C   UNL     1       7.592  -7.346  23.378  0.00  0.00    +0.000 C 
ATOM     19  C   UNL     1       8.424  -6.972  24.595  0.00  0.00    +0.000 C 
ENDBRANCH  17  19
ENDBRANCH  11  17
ENDBRANCH   1  14
BRANCH   3  20
ATOM     20  C   UNL     1      14.535   0.111  27.364  0.00  0.00    +0.000 C 
ATOM     21  O   UNL     1      14.697   0.258  28.621  0.00  0.00    +0.000 OA
ATOM     22  N   UNL     1      15.670   0.234  26.564  0.00  0.00    +0.000 NA
BRANCH  22  23
ATOM     23  C   UNL     1      17.022   0.488  26.940  0.00  0.00    +0.000 C 
BRANCH  23  24
ATOM     24  C   UNL     1      17.957   0.059  25.870  0.00  0.00    +0.000 A 
ATOM     25  C   UNL     1      18.219  -1.274  25.577  0.00  0.00    +0.000 A 
ATOM     26  C   UNL     1      19.094  -1.685  24.613  0.00  0.00    +0.000 A 
ATOM     27  C   UNL     1      19.790  -0.773  23.854  0.00  0.00    +0.000 A 
ATOM     28  C   UNL     1      19.536   0.594  24.136  0.00  0.00    +0.000 A 
ATOM     29  C   UNL     1      18.660   0.977  25.101  0.00  0.00    +0.000 A 
BRANCH  27  30
ATOM     30  O   UNL     1      20.684  -1.021  22.869  0.00  0.00    +0.000 OA
ATOM     31  C   UNL     1      20.535  -0.712  21.492  0.00  0.00    +0.000 C 
ENDBRANCH  27  30
ENDBRANCH  23  24
ENDBRANCH  22  23
ENDBRANCH   3  20
TORSDOF 7
ENDMDL
MODEL 9
REMARK VINA RESULT:      -7.2      4.007      5.504
REMARK  Name = 
REMARK  7 active torsions:
REMARK  status: ('A' for Active; 'I' for Inactive)
REMARK    1  A    between atoms: C_2  and  O_3
REMARK    2  A    between atoms: O_3  and  C_4
REMARK    3  A    between atoms: C_7  and  C_8
REMARK    4  A    between atoms: C_10  and  C_11
REMARK    5  A    between atoms: N_13  and  C_14
REMARK    6  A    between atoms: C_14  and  C_15
REMARK    7  A    between atoms: C_18  and  O_19
REMARK                            x       y       z     vdW  Elec       q    Type
REMARK                         _______ _______ _______ _____ _____    ______ ____
ROOT
ATOM      1  C   UNL     1      37.761   3.432  16.548  0.00  0.00    +0.000 A 
ATOM      2  C   UNL     1      38.280   2.929  15.377  0.00  0.00    +0.000 A 
ATOM      3  C   UNL     1      37.836   1.722  14.915  0.00  0.00    +0.000 A 
ATOM      4  C   UNL     1      36.867   1.037  15.654  0.00  0.00    +0.000 A 
ATOM      5  C   UNL     1      36.360  -0.187  15.265  0.00  0.00    +0.000 A 
ATOM      6  C   UNL     1      35.418  -0.869  15.972  0.00  0.00    +0.000 A 
ATOM      7  C   UNL     1      34.913  -0.331  17.167  0.00  0.00    +0.000 A 
ATOM      8  C   UNL     1      35.397   0.884  17.578  0.00  0.00    +0.000 A 
ATOM      9  C   UNL     1      36.351   1.555  16.842  0.00  0.00    +0.000 A 
ATOM     10  N   UNL     1      36.834   2.749  17.235  0.00  0.00    +0.000 NA
ENDROOT
BRANCH   1  14
ATOM     11  C   UNL     1      39.026   7.131  18.230  0.00  0.00    +0.000 A 
ATOM     12  C   UNL     1      39.145   5.974  18.923  0.00  0.00    +0.000 A 
ATOM     13  C   UNL     1      38.720   4.761  18.351  0.00  0.00    +0.000 A 
ATOM     14  C   UNL     1      38.176   4.738  17.072  0.00  0.00    +0.000 A 
ATOM     15  C   UNL     1      38.068   5.920  16.398  0.00  0.00    +0.000 A 
ATOM     16  C   UNL     1      38.489   7.131  16.965  0.00  0.00    +0.000 A 
BRANCH  11  17
ATOM     17  O   UNL     1      39.462   8.377  18.801  0.00  0.00    +0.000 OA
BRANCH  17  19
ATOM     18  C   UNL     1      37.879   8.998  20.435  0.00  0.00    +0.000 C 
ATOM     19  C   UNL     1      39.288   8.458  20.239  0.00  0.00    +0.000 C 
ENDBRANCH  17  19
ENDBRANCH  11  17
ENDBRANCH   1  14
BRANCH   3  20
ATOM     20  C   UNL     1      38.246   1.084  13.681  0.00  0.00    +0.000 C 
ATOM     21  O   UNL     1      37.691   1.335  12.560  0.00  0.00    +0.000 OA
ATOM     22  N   UNL     1      39.277   0.147  13.678  0.00  0.00    +0.000 NA
BRANCH  22  23
ATOM     23  C   UNL     1      39.836  -0.583  12.587  0.00  0.00    +0.000 C 
BRANCH  23  24
ATOM     24  C   UNL     1      41.160  -1.148  12.953  0.00  0.00    +0.000 A 
ATOM     25  C   UNL     1      41.744  -0.970  14.202  0.00  0.00    +0.000 A 
ATOM     26  C   UNL     1      42.971  -1.460  14.546  0.00  0.00    +0.000 A 
ATOM     27  C   UNL     1      43.722  -2.181  13.647  0.00  0.00    +0.000 A 
ATOM     28  C   UNL     1      43.143  -2.376  12.367  0.00  0.00    +0.000 A 
ATOM     29  C   UNL     1      41.921  -1.876  12.049  0.00  0.00    +0.000 A 
BRANCH  27  30
ATOM     30  O   UNL     1      44.945  -2.730  13.837  0.00  0.00    +0.000 OA
ATOM     31  C   UNL     1      45.578  -3.695  13.011  0.00  0.00    +0.000 C 
ENDBRANCH  27  30
ENDBRANCH  23  24
ENDBRANCH  22  23
ENDBRANCH   3  20
TORSDOF 7
ENDMDL
MODEL 10
REMARK VINA RESULT:      -7.1      3.452      7.352
REMARK  Name = 
REMARK  7 active torsions:
REMARK  status: ('A' for Active; 'I' for Inactive)
REMARK    1  A    between atoms: C_2  and  O_3
REMARK    2  A    between atoms: O_3  and  C_4
REMARK    3  A    between atoms: C_7  and  C_8
REMARK    4  A    between atoms: C_10  and  C_11
REMARK    5  A    between atoms: N_13  and  C_14
REMARK    6  A    between atoms: C_14  and  C_15
REMARK    7  A    between atoms: C_18  and  O_19
REMARK                            x       y       z     vdW  Elec       q    Type
REMARK                         _______ _______ _______ _____ _____    ______ ____
ROOT
ATOM      1  C   UNL     1      37.926   3.897  16.493  0.00  0.00    +0.000 A 
ATOM      2  C   UNL     1      38.351   3.605  15.217  0.00  0.00    +0.000 A 
ATOM      3  C   UNL     1      37.897   2.470  14.607  0.00  0.00    +0.000 A 
ATOM      4  C   UNL     1      37.014   1.641  15.305  0.00  0.00    +0.000 A 
ATOM      5  C   UNL     1      36.503   0.475  14.768  0.00  0.00    +0.000 A 
ATOM      6  C   UNL     1      35.644  -0.345  15.434  0.00  0.00    +0.000 A 
ATOM      7  C   UNL     1      35.234  -0.020  16.738  0.00  0.00    +0.000 A 
ATOM      8  C   UNL     1      35.724   1.132  17.295  0.00  0.00    +0.000 A 
ATOM      9  C   UNL     1      36.592   1.946  16.599  0.00  0.00    +0.000 A 
ATOM     10  N   UNL     1      37.080   3.080  17.137  0.00  0.00    +0.000 NA
ENDROOT
BRANCH   1  14
ATOM     11  C   UNL     1      39.233   7.331  18.641  0.00  0.00    +0.000 A 
ATOM     12  C   UNL     1      39.363   6.089  19.166  0.00  0.00    +0.000 A 
ATOM     13  C   UNL     1      38.923   4.967  18.442  0.00  0.00    +0.000 A 
ATOM     14  C   UNL     1      38.355   5.119  17.183  0.00  0.00    +0.000 A 
ATOM     15  C   UNL     1      38.237   6.382  16.679  0.00  0.00    +0.000 A 
ATOM     16  C   UNL     1      38.673   7.504  17.399  0.00  0.00    +0.000 A 
BRANCH  11  17
ATOM     17  O   UNL     1      39.684   8.487  19.369  0.00  0.00    +0.000 OA
BRANCH  17  19
ATOM     18  C   UNL     1      37.864   9.494  20.480  0.00  0.00    +0.000 C 
ATOM     19  C   UNL     1      39.092   8.619  20.687  0.00  0.00    +0.000 C 
ENDBRANCH  17  19
ENDBRANCH  11  17
ENDBRANCH   1  14
BRANCH   3  20
ATOM     20  C   UNL     1      38.211   2.050  13.256  0.00  0.00    +0.000 C 
ATOM     21  O   UNL     1      39.192   1.280  12.986  0.00  0.00    +0.000 OA
ATOM     22  N   UNL     1      37.439   2.487  12.182  0.00  0.00    +0.000 NA
BRANCH  22  23
ATOM     23  C   UNL     1      37.565   2.189  10.793  0.00  0.00    +0.000 C 
BRANCH  23  24
ATOM     24  C   UNL     1      36.908   3.233   9.967  0.00  0.00    +0.000 A 
ATOM     25  C   UNL     1      36.789   4.558  10.369  0.00  0.00    +0.000 A 
ATOM     26  C   UNL     1      36.165   5.524   9.633  0.00  0.00    +0.000 A 
ATOM     27  C   UNL     1      35.600   5.231   8.413  0.00  0.00    +0.000 A 
ATOM     28  C   UNL     1      35.712   3.883   7.984  0.00  0.00    +0.000 A 
ATOM     29  C   UNL     1      36.337   2.940   8.735  0.00  0.00    +0.000 A 
BRANCH  27  30
ATOM     30  O   UNL     1      34.954   6.072   7.572  0.00  0.00    +0.000 OA
ATOM     31  C   UNL     1      33.558   6.318   7.528  0.00  0.00    +0.000 C 
ENDBRANCH  27  30
ENDBRANCH  23  24
ENDBRANCH  22  23
ENDBRANCH   3  20
TORSDOF 7
ENDMDL
