MODEL 1
REMARK VINA RESULT:      -7.9      0.000      0.000
REMARK  Name = 
REMARK  9 active torsions:
REMARK  status: ('A' for Active; 'I' for Inactive)
REMARK    1  A    between atoms: C_7  and  C_8
REMARK    2  A    between atoms: C_8  and  N_9
REMARK    3  A    between atoms: N_9  and  C_10
REMARK    4  A    between atoms: N_9  and  C_27
REMARK    5  A    between atoms: C_10  and  C_11
REMARK    6  A    between atoms: C_14  and  C_15
REMARK    7  A    between atoms: N_17  and  C_18
REMARK    8  A    between atoms: C_18  and  C_19
REMARK    9  A    between atoms: C_19  and  C_20
REMARK                            x       y       z     vdW  Elec       q    Type
REMARK                         _______ _______ _______ _____ _____    ______ ____
ROOT
ATOM      1  C   UNL     1      35.600  -0.629  16.144  0.00  0.00    +0.000 C 
ENDROOT
BRANCH   1   2
ATOM      2  C   UNL     1      35.828   0.817  16.143  0.00  0.00    +0.000 A 
ATOM      3  C   UNL     1      34.856   1.785  16.068  0.00  0.00    +0.000 A 
ATOM      4  C   UNL     1      35.501   3.019  16.098  0.00  0.00    +0.000 A 
ATOM      5  C   UNL     1      36.836   2.717  16.190  0.00  0.00    +0.000 A 
ATOM      6  O   UNL     1      36.978   1.425  16.213  0.00  0.00    +0.000 OA
BRANCH   5   7
ATOM      7  C   UNL     1      37.916   3.737  16.251  0.00  0.00    +0.000 C 
ATOM      8  O   UNL     1      38.466   4.126  15.210  0.00  0.00    +0.000 OA
ATOM      9  N   UNL     1      38.304   4.254  17.494  0.00  0.00    +0.000 NA
BRANCH   9  10
ATOM     10  C   UNL     1      39.309   5.205  17.709  0.00  0.00    +0.000 C 
BRANCH  10  11
ATOM     11  C   UNL     1      39.525   5.883  18.953  0.00  0.00    +0.000 C 
BRANCH  11  12
ATOM     12  C   UNL     1      38.858   7.117  19.314  0.00  0.00    +0.000 A 
ATOM     13  C   UNL     1      39.205   7.719  20.533  0.00  0.00    +0.000 A 
ATOM     14  C   UNL     1      38.592   8.887  20.904  0.00  0.00    +0.000 A 
ATOM     15  C   UNL     1      37.637   9.498  20.118  0.00  0.00    +0.000 A 
ATOM     16  C   UNL     1      37.329   8.868  18.930  0.00  0.00    +0.000 A 
ATOM     17  N   UNL     1      37.931   7.731  18.574  0.00  0.00    +0.000 NA
ENDBRANCH  11  12
ENDBRANCH  10  11
ENDBRANCH   9  10
ENDBRANCH   5   7
ENDBRANCH   1   2
BRANCH   1  18
ATOM     18  N   UNL     1      36.788  -1.384  15.954  0.00  0.00    +0.000 NA
BRANCH  18  19
ATOM     19  C   UNL     1      37.070  -2.389  16.910  0.00  0.00    +0.000 C 
ATOM     20  C   UNL     1      38.003  -1.885  17.998  0.00  0.00    +0.000 C 
ATOM     21  C   UNL     1      38.277  -2.972  18.997  0.00  0.00    +0.000 C 
ATOM     22  C   UNL     1      38.813  -4.238  18.371  0.00  0.00    +0.000 C 
ATOM     23  C   UNL     1      38.870  -4.099  16.857  0.00  0.00    +0.000 C 
ATOM     24  C   UNL     1      37.472  -3.722  16.384  0.00  0.00    +0.000 C 
ENDBRANCH  18  19
BRANCH  18  25
ATOM     25  C   UNL     1      37.173  -1.621  14.612  0.00  0.00    +0.000 C 
BRANCH  25  32
ATOM     26  C   UNL     1      36.952   0.471  12.756  0.00  0.00    +0.000 C 
ATOM     27  C   UNL     1      38.298   0.190  13.334  0.00  0.00    +0.000 A 
ATOM     28  C   UNL     1      39.416   0.906  12.997  0.00  0.00    +0.000 A 
ATOM     29  C   UNL     1      40.666   0.654  13.523  0.00  0.00    +0.000 A 
ATOM     30  C   UNL     1      40.753  -0.378  14.431  0.00  0.00    +0.000 A 
ATOM     31  C   UNL     1      39.634  -1.106  14.780  0.00  0.00    +0.000 A 
ATOM     32  C   UNL     1      38.389  -0.856  14.255  0.00  0.00    +0.000 A 
ENDBRANCH  25  32
ENDBRANCH  18  25
ENDBRANCH   1  18
TORSDOF 9
ENDMDL
MODEL 2
REMARK VINA RESULT:      -7.9      1.677      3.881
REMARK  Name = 
REMARK  9 active torsions:
REMARK  status: ('A' for Active; 'I' for Inactive)
REMARK    1  A    between atoms: C_7  and  C_8
REMARK    2  A    between atoms: C_8  and  N_9
REMARK    3  A    between atoms: N_9  and  C_10
REMARK    4  A    between atoms: N_9  and  C_27
REMARK    5  A    between atoms: C_10  and  C_11
REMARK    6  A    between atoms: C_14  and  C_15
REMARK    7  A    between atoms: N_17  and  C_18
REMARK    8  A    between atoms: C_18  and  C_19
REMARK    9  A    between atoms: C_19  and  C_20
REMARK                            x       y       z     vdW  Elec       q    Type
REMARK                         _______ _______ _______ _____ _____    ______ ____
ROOT
ATOM      1  C   UNL     1      37.604  -1.215  13.632  0.00  0.00    +0.000 C 
ENDROOT
BRANCH   1   2
ATOM      2  C   UNL     1      38.426  -0.037  13.910  0.00  0.00    +0.000 A 
ATOM      3  C   UNL     1      39.777   0.073  13.686  0.00  0.00    +0.000 A 
ATOM      4  C   UNL     1      40.158   1.350  14.087  0.00  0.00    +0.000 A 
ATOM      5  C   UNL     1      39.004   1.940  14.533  0.00  0.00    +0.000 A 
ATOM      6  O   UNL     1      38.023   1.095  14.412  0.00  0.00    +0.000 OA
BRANCH   5   7
ATOM      7  C   UNL     1      38.930   3.327  15.064  0.00  0.00    +0.000 C 
ATOM      8  O   UNL     1      39.328   4.279  14.377  0.00  0.00    +0.000 OA
ATOM      9  N   UNL     1      38.406   3.546  16.345  0.00  0.00    +0.000 NA
BRANCH   9  10
ATOM     10  C   UNL     1      38.285   4.787  16.980  0.00  0.00    +0.000 C 
BRANCH  10  11
ATOM     11  C   UNL     1      39.137   5.236  18.042  0.00  0.00    +0.000 C 
BRANCH  11  12
ATOM     12  C   UNL     1      38.878   6.431  18.818  0.00  0.00    +0.000 A 
ATOM     13  C   UNL     1      37.935   7.344  18.325  0.00  0.00    +0.000 A 
ATOM     14  C   UNL     1      37.668   8.485  19.035  0.00  0.00    +0.000 A 
ATOM     15  C   UNL     1      38.298   8.774  20.227  0.00  0.00    +0.000 A 
ATOM     16  C   UNL     1      39.218   7.846  20.671  0.00  0.00    +0.000 A 
ATOM     17  N   UNL     1      39.473   6.737  19.975  0.00  0.00    +0.000 NA
ENDBRANCH  11  12
ENDBRANCH  10  11
ENDBRANCH   9  10
ENDBRANCH   5   7
ENDBRANCH   1   2
BRANCH   1  18
ATOM     18  N   UNL     1      37.171  -1.886  14.807  0.00  0.00    +0.000 NA
BRANCH  18  19
ATOM     19  C   UNL     1      36.484  -3.111  14.631  0.00  0.00    +0.000 C 
ATOM     20  C   UNL     1      35.050  -3.029  15.126  0.00  0.00    +0.000 C 
ATOM     21  C   UNL     1      34.349  -4.340  14.920  0.00  0.00    +0.000 C 
ATOM     22  C   UNL     1      35.070  -5.509  15.549  0.00  0.00    +0.000 C 
ATOM     23  C   UNL     1      36.377  -5.050  16.180  0.00  0.00    +0.000 C 
ATOM     24  C   UNL     1      37.179  -4.344  15.095  0.00  0.00    +0.000 C 
ENDBRANCH  18  19
BRANCH  18  25
ATOM     25  C   UNL     1      37.998  -1.750  15.949  0.00  0.00    +0.000 C 
BRANCH  25  32
ATOM     26  C   UNL     1      38.435  -2.877  18.480  0.00  0.00    +0.000 C 
ATOM     27  C   UNL     1      37.447  -1.766  18.372  0.00  0.00    +0.000 A 
ATOM     28  C   UNL     1      36.754  -1.280  19.449  0.00  0.00    +0.000 A 
ATOM     29  C   UNL     1      35.837  -0.254  19.362  0.00  0.00    +0.000 A 
ATOM     30  C   UNL     1      35.636   0.285  18.111  0.00  0.00    +0.000 A 
ATOM     31  C   UNL     1      36.329  -0.195  17.017  0.00  0.00    +0.000 A 
ATOM     32  C   UNL     1      37.242  -1.218  17.104  0.00  0.00    +0.000 A 
ENDBRANCH  25  32
ENDBRANCH  18  25
ENDBRANCH   1  18
TORSDOF 9
ENDMDL
MODEL 3
REMARK VINA RESULT:      -7.8      1.853      7.805
REMARK  Name = 
REMARK  9 active torsions:
REMARK  status: ('A' for Active; 'I' for Inactive)
REMARK    1  A    between atoms: C_7  and  C_8
REMARK    2  A    between atoms: C_8  and  N_9
REMARK    3  A    between atoms: N_9  and  C_10
REMARK    4  A    between atoms: N_9  and  C_27
REMARK    5  A    between atoms: C_10  and  C_11
REMARK    6  A    between atoms: C_14  and  C_15
REMARK    7  A    between atoms: N_17  and  C_18
REMARK    8  A    between atoms: C_18  and  C_19
REMARK    9  A    between atoms: C_19  and  C_20
REMARK                            x       y       z     vdW  Elec       q    Type
REMARK                         _______ _______ _______ _____ _____    ______ ____
ROOT
ATOM      1  C   UNL     1      39.791   4.743  15.016  0.00  0.00    +0.000 C 
ENDROOT
BRANCH   1   2
ATOM      2  C   UNL     1      39.473   3.435  14.442  0.00  0.00    +0.000 A 
ATOM      3  C   UNL     1      39.178   3.185  13.124  0.00  0.00    +0.000 A 
ATOM      4  C   UNL     1      38.938   1.818  13.008  0.00  0.00    +0.000 A 
ATOM      5  C   UNL     1      39.105   1.322  14.276  0.00  0.00    +0.000 A 
ATOM      6  O   UNL     1      39.415   2.299  15.076  0.00  0.00    +0.000 OA
BRANCH   5   7
ATOM      7  C   UNL     1      38.947  -0.112  14.634  0.00  0.00    +0.000 C 
ATOM      8  O   UNL     1      39.718  -0.639  15.450  0.00  0.00    +0.000 OA
ATOM      9  N   UNL     1      37.921  -0.861  14.043  0.00  0.00    +0.000 NA
BRANCH   9  10
ATOM     10  C   UNL     1      37.658  -2.216  14.270  0.00  0.00    +0.000 C 
BRANCH  10  11
ATOM     11  C   UNL     1      36.663  -2.704  15.179  0.00  0.00    +0.000 C 
BRANCH  11  12
ATOM     12  C   UNL     1      36.320  -2.036  16.418  0.00  0.00    +0.000 A 
ATOM     13  C   UNL     1      34.978  -1.684  16.625  0.00  0.00    +0.000 A 
ATOM     14  C   UNL     1      34.621  -1.051  17.786  0.00  0.00    +0.000 A 
ATOM     15  C   UNL     1      35.539  -0.741  18.768  0.00  0.00    +0.000 A 
ATOM     16  C   UNL     1      36.846  -1.107  18.518  0.00  0.00    +0.000 A 
ATOM     17  N   UNL     1      37.187  -1.725  17.385  0.00  0.00    +0.000 NA
ENDBRANCH  11  12
ENDBRANCH  10  11
ENDBRANCH   9  10
ENDBRANCH   5   7
ENDBRANCH   1   2
BRANCH   1  18
ATOM     18  N   UNL     1      38.848   5.175  15.987  0.00  0.00    +0.000 NA
BRANCH  18  19
ATOM     19  C   UNL     1      39.339   5.969  17.050  0.00  0.00    +0.000 C 
ATOM     20  C   UNL     1      39.364   5.201  18.361  0.00  0.00    +0.000 C 
ATOM     21  C   UNL     1      39.894   6.068  19.466  0.00  0.00    +0.000 C 
ATOM     22  C   UNL     1      39.141   7.369  19.618  0.00  0.00    +0.000 C 
ATOM     23  C   UNL     1      38.067   7.489  18.547  0.00  0.00    +0.000 C 
ATOM     24  C   UNL     1      38.754   7.331  17.197  0.00  0.00    +0.000 C 
ENDBRANCH  18  19
BRANCH  18  25
ATOM     25  C   UNL     1      37.538   5.436  15.516  0.00  0.00    +0.000 C 
BRANCH  25  32
ATOM     26  C   UNL     1      35.812   4.847  13.384  0.00  0.00    +0.000 C 
ATOM     27  C   UNL     1      35.816   3.924  14.554  0.00  0.00    +0.000 A 
ATOM     28  C   UNL     1      35.019   2.811  14.627  0.00  0.00    +0.000 A 
ATOM     29  C   UNL     1      35.013   1.950  15.704  0.00  0.00    +0.000 A 
ATOM     30  C   UNL     1      35.866   2.258  16.740  0.00  0.00    +0.000 A 
ATOM     31  C   UNL     1      36.676   3.375  16.679  0.00  0.00    +0.000 A 
ATOM     32  C   UNL     1      36.681   4.233  15.607  0.00  0.00    +0.000 A 
ENDBRANCH  25  32
ENDBRANCH  18  25
ENDBRANCH   1  18
TORSDOF 9
ENDMDL
MODEL 4
REMARK VINA RESULT:      -7.8      1.802      3.744
REMARK  Name = 
REMARK  9 active torsions:
REMARK  status: ('A' for Active; 'I' for Inactive)
REMARK    1  A    between atoms: C_7  and  C_8
REMARK    2  A    between atoms: C_8  and  N_9
REMARK    3  A    between atoms: N_9  and  C_10
REMARK    4  A    between atoms: N_9  and  C_27
REMARK    5  A    between atoms: C_10  and  C_11
REMARK    6  A    between atoms: C_14  and  C_15
REMARK    7  A    between atoms: N_17  and  C_18
REMARK    8  A    between atoms: C_18  and  C_19
REMARK    9  A    between atoms: C_19  and  C_20
REMARK                            x       y       z     vdW  Elec       q    Type
REMARK                         _______ _______ _______ _____ _____    ______ ____
ROOT
ATOM      1  C   UNL     1      36.753   0.185  13.538  0.00  0.00    +0.000 C 
ENDROOT
BRANCH   1   2
ATOM      2  C   UNL     1      36.546   1.488  14.171  0.00  0.00    +0.000 A 
ATOM      3  C   UNL     1      35.329   2.067  14.441  0.00  0.00    +0.000 A 
ATOM      4  C   UNL     1      35.584   3.297  15.043  0.00  0.00    +0.000 A 
ATOM      5  C   UNL     1      36.951   3.386  15.101  0.00  0.00    +0.000 A 
ATOM      6  O   UNL     1      37.468   2.312  14.582  0.00  0.00    +0.000 OA
BRANCH   5   7
ATOM      7  C   UNL     1      37.684   4.545  15.674  0.00  0.00    +0.000 C 
ATOM      8  O   UNL     1      37.399   5.699  15.321  0.00  0.00    +0.000 OA
ATOM      9  N   UNL     1      38.698   4.320  16.615  0.00  0.00    +0.000 NA
BRANCH   9  10
ATOM     10  C   UNL     1      39.480   5.305  17.229  0.00  0.00    +0.000 C 
BRANCH  10  11
ATOM     11  C   UNL     1      39.484   5.571  18.637  0.00  0.00    +0.000 C 
BRANCH  11  12
ATOM     12  C   UNL     1      38.927   6.773  19.222  0.00  0.00    +0.000 A 
ATOM     13  C   UNL     1      37.947   7.465  18.494  0.00  0.00    +0.000 A 
ATOM     14  C   UNL     1      37.401   8.607  19.019  0.00  0.00    +0.000 A 
ATOM     15  C   UNL     1      37.782   9.108  20.247  0.00  0.00    +0.000 A 
ATOM     16  C   UNL     1      38.748   8.393  20.924  0.00  0.00    +0.000 A 
ATOM     17  N   UNL     1      39.276   7.281  20.408  0.00  0.00    +0.000 NA
ENDBRANCH  11  12
ENDBRANCH  10  11
ENDBRANCH   9  10
ENDBRANCH   5   7
ENDBRANCH   1   2
BRANCH   1  18
ATOM     18  N   UNL     1      37.441  -0.739  14.370  0.00  0.00    +0.000 NA
BRANCH  18  19
ATOM     19  C   UNL     1      38.756  -1.093  13.986  0.00  0.00    +0.000 C 
ATOM     20  C   UNL     1      38.767  -2.293  13.055  0.00  0.00    +0.000 C 
ATOM     21  C   UNL     1      40.174  -2.640  12.663  0.00  0.00    +0.000 C 
ATOM     22  C   UNL     1      41.086  -2.867  13.846  0.00  0.00    +0.000 C 
ATOM     23  C   UNL     1      40.340  -2.614  15.148  0.00  0.00    +0.000 C 
ATOM     24  C   UNL     1      39.767  -1.205  15.074  0.00  0.00    +0.000 C 
ENDBRANCH  18  19
BRANCH  18  25
ATOM     25  C   UNL     1      37.151  -0.672  15.755  0.00  0.00    +0.000 C 
BRANCH  25  32
ATOM     26  C   UNL     1      35.402   0.405  17.664  0.00  0.00    +0.000 C 
ATOM     27  C   UNL     1      35.031  -0.893  17.032  0.00  0.00    +0.000 A 
ATOM     28  C   UNL     1      33.881  -1.571  17.344  0.00  0.00    +0.000 A 
ATOM     29  C   UNL     1      33.528  -2.772  16.767  0.00  0.00    +0.000 A 
ATOM     30  C   UNL     1      34.401  -3.285  15.833  0.00  0.00    +0.000 A 
ATOM     31  C   UNL     1      35.562  -2.612  15.509  0.00  0.00    +0.000 A 
ATOM     32  C   UNL     1      35.914  -1.415  16.084  0.00  0.00    +0.000 A 
ENDBRANCH  25  32
ENDBRANCH  18  25
ENDBRANCH   1  18
TORSDOF 9
ENDMDL
MODEL 5
REMARK VINA RESULT:      -7.6      2.607      9.234
REMARK  Name = 
REMARK  9 active torsions:
REMARK  status: ('A' for Active; 'I' for Inactive)
REMARK    1  A    between atoms: C_7  and  C_8
REMARK    2  A    between atoms: C_8  and  N_9
REMARK    3  A    between atoms: N_9  and  C_10
REMARK    4  A    between atoms: N_9  and  C_27
REMARK    5  A    between atoms: C_10  and  C_11
REMARK    6  A    between atoms: C_14  and  C_15
REMARK    7  A    between atoms: N_17  and  C_18
REMARK    8  A    between atoms: C_18  and  C_19
REMARK    9  A    between atoms: C_19  and  C_20
REMARK                            x       y       z     vdW  Elec       q    Type
REMARK                         _______ _______ _______ _____ _____    ______ ____
ROOT
ATOM      1  C   UNL     1      39.091   5.842  19.003  0.00  0.00    +0.000 C 
ENDROOT
BRANCH   1   2
ATOM      2  C   UNL     1      39.169   5.322  17.637  0.00  0.00    +0.000 A 
ATOM      3  C   UNL     1      39.937   5.839  16.622  0.00  0.00    +0.000 A 
ATOM      4  C   UNL     1      39.718   5.049  15.497  0.00  0.00    +0.000 A 
ATOM      5  C   UNL     1      38.822   4.094  15.905  0.00  0.00    +0.000 A 
ATOM      6  O   UNL     1      38.531   4.293  17.156  0.00  0.00    +0.000 OA
BRANCH   5   7
ATOM      7  C   UNL     1      38.293   3.020  15.023  0.00  0.00    +0.000 C 
ATOM      8  O   UNL     1      37.524   3.301  14.092  0.00  0.00    +0.000 OA
ATOM      9  N   UNL     1      38.671   1.691  15.255  0.00  0.00    +0.000 NA
BRANCH   9  10
ATOM     10  C   UNL     1      38.247   0.578  14.521  0.00  0.00    +0.000 C 
BRANCH  10  11
ATOM     11  C   UNL     1      37.722  -0.622  15.105  0.00  0.00    +0.000 C 
BRANCH  11  12
ATOM     12  C   UNL     1      37.083  -0.661  16.403  0.00  0.00    +0.000 A 
ATOM     13  C   UNL     1      35.768  -0.182  16.503  0.00  0.00    +0.000 A 
ATOM     14  C   UNL     1      35.134  -0.204  17.717  0.00  0.00    +0.000 A 
ATOM     15  C   UNL     1      35.746  -0.683  18.857  0.00  0.00    +0.000 A 
ATOM     16  C   UNL     1      37.039  -1.143  18.709  0.00  0.00    +0.000 A 
ATOM     17  N   UNL     1      37.649  -1.119  17.523  0.00  0.00    +0.000 NA
ENDBRANCH  11  12
ENDBRANCH  10  11
ENDBRANCH   9  10
ENDBRANCH   5   7
ENDBRANCH   1   2
BRANCH   1  18
ATOM     18  N   UNL     1      40.147   6.738  19.323  0.00  0.00    +0.000 NA
BRANCH  18  19
ATOM     19  C   UNL     1      39.794   8.088  19.558  0.00  0.00    +0.000 C 
ATOM     20  C   UNL     1      38.693   8.209  20.598  0.00  0.00    +0.000 C 
ATOM     21  C   UNL     1      38.346   9.651  20.829  0.00  0.00    +0.000 C 
ATOM     22  C   UNL     1      37.973  10.386  19.562  0.00  0.00    +0.000 C 
ATOM     23  C   UNL     1      38.116   9.470  18.355  0.00  0.00    +0.000 C 
ATOM     24  C   UNL     1      39.542   8.935  18.359  0.00  0.00    +0.000 C 
ENDBRANCH  18  19
BRANCH  18  25
ATOM     25  C   UNL     1      41.224   6.197  20.065  0.00  0.00    +0.000 C 
BRANCH  25  32
ATOM     26  C   UNL     1      43.508   6.356  21.686  0.00  0.00    +0.000 C 
ATOM     27  C   UNL     1      43.674   6.587  20.223  0.00  0.00    +0.000 A 
ATOM     28  C   UNL     1      44.884   6.870  19.647  0.00  0.00    +0.000 A 
ATOM     29  C   UNL     1      45.050   7.087  18.295  0.00  0.00    +0.000 A 
ATOM     30  C   UNL     1      43.916   7.005  17.517  0.00  0.00    +0.000 A 
ATOM     31  C   UNL     1      42.691   6.720  18.084  0.00  0.00    +0.000 A 
ATOM     32  C   UNL     1      42.525   6.505  19.431  0.00  0.00    +0.000 A 
ENDBRANCH  25  32
ENDBRANCH  18  25
ENDBRANCH   1  18
TORSDOF 9
ENDMDL
MODEL 6
REMARK VINA RESULT:      -7.6      2.528      9.212
REMARK  Name = 
REMARK  9 active torsions:
REMARK  status: ('A' for Active; 'I' for Inactive)
REMARK    1  A    between atoms: C_7  and  C_8
REMARK    2  A    between atoms: C_8  and  N_9
REMARK    3  A    between atoms: N_9  and  C_10
REMARK    4  A    between atoms: N_9  and  C_27
REMARK    5  A    between atoms: C_10  and  C_11
REMARK    6  A    between atoms: C_14  and  C_15
REMARK    7  A    between atoms: N_17  and  C_18
REMARK    8  A    between atoms: C_18  and  C_19
REMARK    9  A    between atoms: C_19  and  C_20
REMARK                            x       y       z     vdW  Elec       q    Type
REMARK                         _______ _______ _______ _____ _____    ______ ____
ROOT
ATOM      1  C   UNL     1      41.379   6.713  17.402  0.00  0.00    +0.000 C 
ENDROOT
BRANCH   1   2
ATOM      2  C   UNL     1      40.202   5.843  17.441  0.00  0.00    +0.000 A 
ATOM      3  C   UNL     1      39.538   5.439  18.574  0.00  0.00    +0.000 A 
ATOM      4  C   UNL     1      38.485   4.626  18.164  0.00  0.00    +0.000 A 
ATOM      5  C   UNL     1      38.577   4.590  16.797  0.00  0.00    +0.000 A 
ATOM      6  O   UNL     1      39.591   5.311  16.422  0.00  0.00    +0.000 OA
BRANCH   5   7
ATOM      7  C   UNL     1      37.645   3.832  15.921  0.00  0.00    +0.000 C 
ATOM      8  O   UNL     1      36.768   4.430  15.279  0.00  0.00    +0.000 OA
ATOM      9  N   UNL     1      37.768   2.439  15.827  0.00  0.00    +0.000 NA
BRANCH   9  10
ATOM     10  C   UNL     1      36.960   1.595  15.057  0.00  0.00    +0.000 C 
BRANCH  10  11
ATOM     11  C   UNL     1      36.132   0.558  15.598  0.00  0.00    +0.000 C 
BRANCH  11  12
ATOM     12  C   UNL     1      36.396  -0.093  16.864  0.00  0.00    +0.000 A 
ATOM     13  C   UNL     1      35.567   0.222  17.951  0.00  0.00    +0.000 A 
ATOM     14  C   UNL     1      35.791  -0.375  19.164  0.00  0.00    +0.000 A 
ATOM     15  C   UNL     1      36.811  -1.283  19.359  0.00  0.00    +0.000 A 
ATOM     16  C   UNL     1      37.599  -1.561  18.261  0.00  0.00    +0.000 A 
ATOM     17  N   UNL     1      37.375  -0.976  17.083  0.00  0.00    +0.000 NA
ENDBRANCH  11  12
ENDBRANCH  10  11
ENDBRANCH   9  10
ENDBRANCH   5   7
ENDBRANCH   1   2
BRANCH   1  18
ATOM     18  N   UNL     1      41.423   7.646  18.473  0.00  0.00    +0.000 NA
BRANCH  18  19
ATOM     19  C   UNL     1      42.576   7.627  19.294  0.00  0.00    +0.000 C 
ATOM     20  C   UNL     1      43.710   6.846  18.653  0.00  0.00    +0.000 C 
ATOM     21  C   UNL     1      44.918   6.850  19.544  0.00  0.00    +0.000 C 
ATOM     22  C   UNL     1      44.634   6.341  20.938  0.00  0.00    +0.000 C 
ATOM     23  C   UNL     1      43.155   6.016  21.094  0.00  0.00    +0.000 C 
ATOM     24  C   UNL     1      42.375   7.272  20.726  0.00  0.00    +0.000 C 
ENDBRANCH  18  19
BRANCH  18  25
ATOM     25  C   UNL     1      40.794   8.894  18.244  0.00  0.00    +0.000 C 
BRANCH  25  32
ATOM     26  C   UNL     1      38.715   9.070  16.368  0.00  0.00    +0.000 C 
ATOM     27  C   UNL     1      38.349   8.978  17.811  0.00  0.00    +0.000 A 
ATOM     28  C   UNL     1      37.050   8.976  18.249  0.00  0.00    +0.000 A 
ATOM     29  C   UNL     1      36.698   8.893  19.580  0.00  0.00    +0.000 A 
ATOM     30  C   UNL     1      37.734   8.809  20.484  0.00  0.00    +0.000 A 
ATOM     31  C   UNL     1      39.046   8.808  20.056  0.00  0.00    +0.000 A 
ATOM     32  C   UNL     1      39.397   8.892  18.730  0.00  0.00    +0.000 A 
ENDBRANCH  25  32
ENDBRANCH  18  25
ENDBRANCH   1  18
TORSDOF 9
ENDMDL
MODEL 7
REMARK VINA RESULT:      -7.5      2.676      8.564
REMARK  Name = 
REMARK  9 active torsions:
REMARK  status: ('A' for Active; 'I' for Inactive)
REMARK    1  A    between atoms: C_7  and  C_8
REMARK    2  A    between atoms: C_8  and  N_9
REMARK    3  A    between atoms: N_9  and  C_10
REMARK    4  A    between atoms: N_9  and  C_27
REMARK    5  A    between atoms: C_10  and  C_11
REMARK    6  A    between atoms: C_14  and  C_15
REMARK    7  A    between atoms: N_17  and  C_18
REMARK    8  A    between atoms: C_18  and  C_19
REMARK    9  A    between atoms: C_19  and  C_20
REMARK                            x       y       z     vdW  Elec       q    Type
REMARK                         _______ _______ _______ _____ _____    ______ ____
ROOT
ATOM      1  C   UNL     1      38.391   5.189  14.758  0.00  0.00    +0.000 C 
ENDROOT
BRANCH   1   2
ATOM      2  C   UNL     1      37.332   4.199  14.963  0.00  0.00    +0.000 A 
ATOM      3  C   UNL     1      36.355   3.866  14.056  0.00  0.00    +0.000 A 
ATOM      4  C   UNL     1      35.559   2.890  14.649  0.00  0.00    +0.000 A 
ATOM      5  C   UNL     1      36.108   2.691  15.889  0.00  0.00    +0.000 A 
ATOM      6  O   UNL     1      37.137   3.475  16.028  0.00  0.00    +0.000 OA
BRANCH   5   7
ATOM      7  C   UNL     1      35.580   1.724  16.887  0.00  0.00    +0.000 C 
ATOM      8  O   UNL     1      34.376   1.429  16.892  0.00  0.00    +0.000 OA
ATOM      9  N   UNL     1      36.455   1.150  17.819  0.00  0.00    +0.000 NA
BRANCH   9  10
ATOM     10  C   UNL     1      36.103   0.239  18.821  0.00  0.00    +0.000 C 
BRANCH  10  11
ATOM     11  C   UNL     1      36.871  -0.923  19.161  0.00  0.00    +0.000 C 
BRANCH  11  12
ATOM     12  C   UNL     1      37.697  -1.637  18.210  0.00  0.00    +0.000 A 
ATOM     13  C   UNL     1      38.088  -2.946  18.532  0.00  0.00    +0.000 A 
ATOM     14  C   UNL     1      38.871  -3.648  17.654  0.00  0.00    +0.000 A 
ATOM     15  C   UNL     1      39.295  -3.113  16.456  0.00  0.00    +0.000 A 
ATOM     16  C   UNL     1      38.886  -1.823  16.185  0.00  0.00    +0.000 A 
ATOM     17  N   UNL     1      38.123  -1.145  17.043  0.00  0.00    +0.000 NA
ENDBRANCH  11  12
ENDBRANCH  10  11
ENDBRANCH   9  10
ENDBRANCH   5   7
ENDBRANCH   1   2
BRANCH   1  18
ATOM     18  N   UNL     1      38.143   6.420  15.422  0.00  0.00    +0.000 NA
BRANCH  18  19
ATOM     19  C   UNL     1      38.914   6.693  16.577  0.00  0.00    +0.000 C 
ATOM     20  C   UNL     1      40.302   6.082  16.483  0.00  0.00    +0.000 C 
ATOM     21  C   UNL     1      41.096   6.393  17.719  0.00  0.00    +0.000 C 
ATOM     22  C   UNL     1      40.406   5.970  18.994  0.00  0.00    +0.000 C 
ATOM     23  C   UNL     1      39.033   5.391  18.688  0.00  0.00    +0.000 C 
ATOM     24  C   UNL     1      38.266   6.439  17.893  0.00  0.00    +0.000 C 
ENDBRANCH  18  19
BRANCH  18  25
ATOM     25  C   UNL     1      37.773   7.513  14.600  0.00  0.00    +0.000 C 
BRANCH  25  32
ATOM     26  C   UNL     1      37.123   9.713  16.215  0.00  0.00    +0.000 C 
ATOM     27  C   UNL     1      36.004   8.959  15.579  0.00  0.00    +0.000 A 
ATOM     28  C   UNL     1      34.687   9.296  15.751  0.00  0.00    +0.000 A 
ATOM     29  C   UNL     1      33.645   8.605  15.170  0.00  0.00    +0.000 A 
ATOM     30  C   UNL     1      33.986   7.528  14.382  0.00  0.00    +0.000 A 
ATOM     31  C   UNL     1      35.309   7.179  14.199  0.00  0.00    +0.000 A 
ATOM     32  C   UNL     1      36.347   7.866  14.779  0.00  0.00    +0.000 A 
ENDBRANCH  25  32
ENDBRANCH  18  25
ENDBRANCH   1  18
TORSDOF 9
ENDMDL
MODEL 8
REMARK VINA RESULT:      -7.5      2.045      4.119
REMARK  Name = 
REMARK  9 active torsions:
REMARK  status: ('A' for Active; 'I' for Inactive)
REMARK    1  A    between atoms: C_7  and  C_8
REMARK    2  A    between atoms: C_8  and  N_9
REMARK    3  A    between atoms: N_9  and  C_10
REMARK    4  A    between atoms: N_9  and  C_27
REMARK    5  A    between atoms: C_10  and  C_11
REMARK    6  A    between atoms: C_14  and  C_15
REMARK    7  A    between atoms: N_17  and  C_18
REMARK    8  A    between atoms: C_18  and  C_19
REMARK    9  A    between atoms: C_19  and  C_20
REMARK                            x       y       z     vdW  Elec       q    Type
REMARK                         _______ _______ _______ _____ _____    ______ ____
ROOT
ATOM      1  C   UNL     1      38.524  -1.136  14.862  0.00  0.00    +0.000 C 
ENDROOT
BRANCH   1   2
ATOM      2  C   UNL     1      38.330   0.285  14.568  0.00  0.00    +0.000 A 
ATOM      3  C   UNL     1      37.762   0.800  13.428  0.00  0.00    +0.000 A 
ATOM      4  C   UNL     1      37.772   2.187  13.555  0.00  0.00    +0.000 A 
ATOM      5  C   UNL     1      38.350   2.426  14.775  0.00  0.00    +0.000 A 
ATOM      6  O   UNL     1      38.659   1.290  15.328  0.00  0.00    +0.000 OA
BRANCH   5   7
ATOM      7  C   UNL     1      38.571   3.784  15.338  0.00  0.00    +0.000 C 
ATOM      8  O   UNL     1      38.996   4.697  14.614  0.00  0.00    +0.000 OA
ATOM      9  N   UNL     1      38.293   4.021  16.691  0.00  0.00    +0.000 NA
BRANCH   9  10
ATOM     10  C   UNL     1      38.463   5.238  17.362  0.00  0.00    +0.000 C 
BRANCH  10  11
ATOM     11  C   UNL     1      39.114   5.376  18.631  0.00  0.00    +0.000 C 
BRANCH  11  12
ATOM     12  C   UNL     1      40.392   6.034  18.803  0.00  0.00    +0.000 A 
ATOM     13  C   UNL     1      40.677   6.598  20.056  0.00  0.00    +0.000 A 
ATOM     14  C   UNL     1      41.878   7.229  20.251  0.00  0.00    +0.000 A 
ATOM     15  C   UNL     1      42.825   7.333  19.254  0.00  0.00    +0.000 A 
ATOM     16  C   UNL     1      42.498   6.764  18.040  0.00  0.00    +0.000 A 
ATOM     17  N   UNL     1      41.328   6.150  17.857  0.00  0.00    +0.000 NA
ENDBRANCH  11  12
ENDBRANCH  10  11
ENDBRANCH   9  10
ENDBRANCH   5   7
ENDBRANCH   1   2
BRANCH   1  18
ATOM     18  N   UNL     1      37.450  -1.708  15.597  0.00  0.00    +0.000 NA
BRANCH  18  19
ATOM     19  C   UNL     1      36.853  -0.900  16.594  0.00  0.00    +0.000 C 
ATOM     20  C   UNL     1      37.243  -1.351  17.991  0.00  0.00    +0.000 C 
ATOM     21  C   UNL     1      36.599  -0.473  19.025  0.00  0.00    +0.000 C 
ATOM     22  C   UNL     1      35.097  -0.389  18.886  0.00  0.00    +0.000 C 
ATOM     23  C   UNL     1      34.631  -1.178  17.670  0.00  0.00    +0.000 C 
ATOM     24  C   UNL     1      35.392  -0.643  16.464  0.00  0.00    +0.000 C 
ENDBRANCH  18  19
BRANCH  18  25
ATOM     25  C   UNL     1      36.618  -2.611  14.891  0.00  0.00    +0.000 C 
BRANCH  25  32
ATOM     26  C   UNL     1      34.302  -4.170  14.618  0.00  0.00    +0.000 C 
ATOM     27  C   UNL     1      35.423  -4.723  15.431  0.00  0.00    +0.000 A 
ATOM     28  C   UNL     1      35.366  -5.948  16.041  0.00  0.00    +0.000 A 
ATOM     29  C   UNL     1      36.396  -6.469  16.796  0.00  0.00    +0.000 A 
ATOM     30  C   UNL     1      37.523  -5.688  16.919  0.00  0.00    +0.000 A 
ATOM     31  C   UNL     1      37.594  -4.451  16.308  0.00  0.00    +0.000 A 
ATOM     32  C   UNL     1      36.568  -3.932  15.557  0.00  0.00    +0.000 A 
ENDBRANCH  25  32
ENDBRANCH  18  25
ENDBRANCH   1  18
TORSDOF 9
ENDMDL
MODEL 9
REMARK VINA RESULT:      -7.5      2.295      4.770
REMARK  Name = 
REMARK  9 active torsions:
REMARK  status: ('A' for Active; 'I' for Inactive)
REMARK    1  A    between atoms: C_7  and  C_8
REMARK    2  A    between atoms: C_8  and  N_9
REMARK    3  A    between atoms: N_9  and  C_10
REMARK    4  A    between atoms: N_9  and  C_27
REMARK    5  A    between atoms: C_10  and  C_11
REMARK    6  A    between atoms: C_14  and  C_15
REMARK    7  A    between atoms: N_17  and  C_18
REMARK    8  A    between atoms: C_18  and  C_19
REMARK    9  A    between atoms: C_19  and  C_20
REMARK                            x       y       z     vdW  Elec       q    Type
REMARK                         _______ _______ _______ _____ _____    ______ ____
ROOT
ATOM      1  C   UNL     1      37.942  -3.422  14.984  0.00  0.00    +0.000 C 
ENDROOT
BRANCH   1   2
ATOM      2  C   UNL     1      38.948  -2.375  14.798  0.00  0.00    +0.000 A 
ATOM      3  C   UNL     1      40.310  -2.556  14.809  0.00  0.00    +0.000 A 
ATOM      4  C   UNL     1      40.892  -1.310  14.596  0.00  0.00    +0.000 A 
ATOM      5  C   UNL     1      39.837  -0.444  14.467  0.00  0.00    +0.000 A 
ATOM      6  O   UNL     1      38.726  -1.108  14.593  0.00  0.00    +0.000 OA
BRANCH   5   7
ATOM      7  C   UNL     1      39.984   1.015  14.224  0.00  0.00    +0.000 C 
ATOM      8  O   UNL     1      40.779   1.427  13.366  0.00  0.00    +0.000 OA
ATOM      9  N   UNL     1      39.217   1.918  14.972  0.00  0.00    +0.000 NA
BRANCH   9  10
ATOM     10  C   UNL     1      39.256   3.313  14.865  0.00  0.00    +0.000 C 
BRANCH  10  11
ATOM     11  C   UNL     1      38.592   4.211  15.764  0.00  0.00    +0.000 C 
BRANCH  11  12
ATOM     12  C   UNL     1      39.287   4.989  16.769  0.00  0.00    +0.000 A 
ATOM     13  C   UNL     1      38.772   4.985  18.075  0.00  0.00    +0.000 A 
ATOM     14  C   UNL     1      39.405   5.711  19.049  0.00  0.00    +0.000 A 
ATOM     15  C   UNL     1      40.539   6.455  18.793  0.00  0.00    +0.000 A 
ATOM     16  C   UNL     1      41.006   6.428  17.494  0.00  0.00    +0.000 A 
ATOM     17  N   UNL     1      40.385   5.717  16.551  0.00  0.00    +0.000 NA
ENDBRANCH  11  12
ENDBRANCH  10  11
ENDBRANCH   9  10
ENDBRANCH   5   7
ENDBRANCH   1   2
BRANCH   1  18
ATOM     18  N   UNL     1      37.017  -3.132  16.024  0.00  0.00    +0.000 NA
BRANCH  18  19
ATOM     19  C   UNL     1      35.894  -3.986  16.140  0.00  0.00    +0.000 C 
ATOM     20  C   UNL     1      36.248  -5.427  15.816  0.00  0.00    +0.000 C 
ATOM     21  C   UNL     1      35.039  -6.307  15.954  0.00  0.00    +0.000 C 
ATOM     22  C   UNL     1      33.864  -5.841  15.126  0.00  0.00    +0.000 C 
ATOM     23  C   UNL     1      34.201  -4.541  14.410  0.00  0.00    +0.000 C 
ATOM     24  C   UNL     1      34.640  -3.541  15.471  0.00  0.00    +0.000 C 
ENDBRANCH  18  19
BRANCH  18  25
ATOM     25  C   UNL     1      37.561  -2.588  17.213  0.00  0.00    +0.000 C 
BRANCH  25  32
ATOM     26  C   UNL     1      37.190  -1.988  19.928  0.00  0.00    +0.000 C 
ATOM     27  C   UNL     1      36.708  -0.998  18.922  0.00  0.00    +0.000 A 
ATOM     28  C   UNL     1      36.100   0.180  19.270  0.00  0.00    +0.000 A 
ATOM     29  C   UNL     1      35.649   1.102  18.349  0.00  0.00    +0.000 A 
ATOM     30  C   UNL     1      35.840   0.788  17.022  0.00  0.00    +0.000 A 
ATOM     31  C   UNL     1      36.453  -0.394  16.658  0.00  0.00    +0.000 A 
ATOM     32  C   UNL     1      36.901  -1.314  17.575  0.00  0.00    +0.000 A 
ENDBRANCH  25  32
ENDBRANCH  18  25
ENDBRANCH   1  18
TORSDOF 9
ENDMDL
MODEL 10
REMARK VINA RESULT:      -7.5      2.199      4.122
REMARK  Name = 
REMARK  9 active torsions:
REMARK  status: ('A' for Active; 'I' for Inactive)
REMARK    1  A    between atoms: C_7  and  C_8
REMARK    2  A    between atoms: C_8  and  N_9
REMARK    3  A    between atoms: N_9  and  C_10
REMARK    4  A    between atoms: N_9  and  C_27
REMARK    5  A    between atoms: C_10  and  C_11
REMARK    6  A    between atoms: C_14  and  C_15
REMARK    7  A    between atoms: N_17  and  C_18
REMARK    8  A    between atoms: C_18  and  C_19
REMARK    9  A    between atoms: C_19  and  C_20
REMARK                            x       y       z     vdW  Elec       q    Type
REMARK                         _______ _______ _______ _____ _____    ______ ____
ROOT
ATOM      1  C   UNL     1      37.090   0.331  13.704  0.00  0.00    +0.000 C 
ENDROOT
BRANCH   1   2
ATOM      2  C   UNL     1      36.774   1.421  14.629  0.00  0.00    +0.000 A 
ATOM      3  C   UNL     1      35.529   1.960  14.842  0.00  0.00    +0.000 A 
ATOM      4  C   UNL     1      35.674   2.966  15.793  0.00  0.00    +0.000 A 
ATOM      5  C   UNL     1      37.010   2.972  16.100  0.00  0.00    +0.000 A 
ATOM      6  O   UNL     1      37.610   2.057  15.398  0.00  0.00    +0.000 OA
BRANCH   5   7
ATOM      7  C   UNL     1      37.632   3.896  17.085  0.00  0.00    +0.000 C 
ATOM      8  O   UNL     1      37.843   3.518  18.247  0.00  0.00    +0.000 OA
ATOM      9  N   UNL     1      37.978   5.194  16.687  0.00  0.00    +0.000 NA
BRANCH   9  10
ATOM     10  C   UNL     1      38.556   6.175  17.502  0.00  0.00    +0.000 C 
BRANCH  10  11
ATOM     11  C   UNL     1      39.281   5.898  18.707  0.00  0.00    +0.000 C 
BRANCH  11  12
ATOM     12  C   UNL     1      40.683   6.214  18.882  0.00  0.00    +0.000 A 
ATOM     13  C   UNL     1      41.180   6.295  20.191  0.00  0.00    +0.000 A 
ATOM     14  C   UNL     1      42.503   6.592  20.392  0.00  0.00    +0.000 A 
ATOM     15  C   UNL     1      43.372   6.818  19.345  0.00  0.00    +0.000 A 
ATOM     16  C   UNL     1      42.837   6.728  18.076  0.00  0.00    +0.000 A 
ATOM     17  N   UNL     1      41.548   6.437  17.888  0.00  0.00    +0.000 NA
ENDBRANCH  11  12
ENDBRANCH  10  11
ENDBRANCH   9  10
ENDBRANCH   5   7
ENDBRANCH   1   2
BRANCH   1  18
ATOM     18  N   UNL     1      37.696  -0.786  14.340  0.00  0.00    +0.000 NA
BRANCH  18  19
ATOM     19  C   UNL     1      39.080  -0.978  14.117  0.00  0.00    +0.000 C 
ATOM     20  C   UNL     1      39.340  -1.816  12.877  0.00  0.00    +0.000 C 
ATOM     21  C   UNL     1      40.816  -1.996  12.666  0.00  0.00    +0.000 C 
ATOM     22  C   UNL     1      41.524  -2.578  13.867  0.00  0.00    +0.000 C 
ATOM     23  C   UNL     1      40.548  -2.767  15.019  0.00  0.00    +0.000 C 
ATOM     24  C   UNL     1      39.893  -1.418  15.285  0.00  0.00    +0.000 C 
ENDBRANCH  18  19
BRANCH  18  25
ATOM     25  C   UNL     1      37.172  -1.148  15.605  0.00  0.00    +0.000 C 
BRANCH  25  32
ATOM     26  C   UNL     1      34.868  -0.922  17.188  0.00  0.00    +0.000 C 
ATOM     27  C   UNL     1      34.965  -2.084  16.259  0.00  0.00    +0.000 A 
ATOM     28  C   UNL     1      33.983  -3.033  16.150  0.00  0.00    +0.000 A 
ATOM     29  C   UNL     1      34.062  -4.113  15.296  0.00  0.00    +0.000 A 
ATOM     30  C   UNL     1      35.202  -4.206  14.529  0.00  0.00    +0.000 A 
ATOM     31  C   UNL     1      36.198  -3.255  14.627  0.00  0.00    +0.000 A 
ATOM     32  C   UNL     1      36.120  -2.180  15.480  0.00  0.00    +0.000 A 
ENDBRANCH  25  32
ENDBRANCH  18  25
ENDBRANCH   1  18
TORSDOF 9
ENDMDL
