MODEL 1
REMARK VINA RESULT:      -9.0      0.000      0.000
REMARK  Name = 
REMARK  7 active torsions:
REMARK  status: ('A' for Active; 'I' for Inactive)
REMARK    1  A    between atoms: C_5  and  C_6
REMARK    2  A    between atoms: N_7  and  N_8
REMARK    3  A    between atoms: C_9  and  C_11
REMARK    4  A    between atoms: C_11  and  S_12
REMARK    5  A    between atoms: S_12  and  C_13
REMARK    6  A    between atoms: N_21  and  C_22
REMARK    7  A    between atoms: C_22  and  C_23
REMARK                            x       y       z     vdW  Elec       q    Type
REMARK                         _______ _______ _______ _____ _____    ______ ____
ROOT
ATOM      1  C   UNL     1      36.834  -0.439  16.366  0.00  0.00    +0.000 A 
ATOM      2  N   UNL     1      36.607  -0.353  17.691  0.00  0.00    +0.000 NA
ATOM      3  C   UNL     1      37.262  -1.377  18.298  0.00  0.00    +0.000 A 
ATOM      4  C   UNL     1      37.376  -1.767  19.621  0.00  0.00    +0.000 A 
ATOM      5  C   UNL     1      38.126  -2.871  19.926  0.00  0.00    +0.000 A 
ATOM      6  C   UNL     1      38.772  -3.604  18.960  0.00  0.00    +0.000 A 
ATOM      7  C   UNL     1      38.660  -3.217  17.650  0.00  0.00    +0.000 A 
ATOM      8  C   UNL     1      37.906  -2.107  17.339  0.00  0.00    +0.000 A 
ATOM      9  N   UNL     1      37.620  -1.499  16.146  0.00  0.00    +0.000 N 
ENDROOT
BRANCH   1  10
ATOM     10  S   UNL     1      36.233   0.632  15.050  0.00  0.00    +0.000 S 
BRANCH  10  11
ATOM     11  C   UNL     1      35.908   2.253  15.749  0.00  0.00    +0.000 C 
BRANCH  11  13
ATOM     12  N   UNL     1      37.320   3.599  17.373  0.00  0.00    +0.000 NA
ATOM     13  C   UNL     1      37.190   2.850  16.175  0.00  0.00    +0.000 C 
ATOM     14  O   UNL     1      38.207   2.697  15.460  0.00  0.00    +0.000 OA
BRANCH  12  16
ATOM     15  C   UNL     1      38.732   5.393  18.054  0.00  0.00    +0.000 C 
ATOM     16  N   UNL     1      38.503   4.173  17.800  0.00  0.00    +0.000 NA
BRANCH  15  21
ATOM     17  C   UNL     1      43.844   7.437  19.792  0.00  0.00    +0.000 C 
ATOM     18  C   UNL     1      42.538   6.910  19.316  0.00  0.00    +0.000 A 
ATOM     19  C   UNL     1      41.529   6.677  20.245  0.00  0.00    +0.000 A 
ATOM     20  C   UNL     1      40.300   6.186  19.826  0.00  0.00    +0.000 A 
ATOM     21  C   UNL     1      40.022   5.910  18.503  0.00  0.00    +0.000 A 
ATOM     22  C   UNL     1      41.033   6.145  17.587  0.00  0.00    +0.000 A 
ATOM     23  C   UNL     1      42.269   6.638  17.995  0.00  0.00    +0.000 A 
ENDBRANCH  15  21
ENDBRANCH  12  16
ENDBRANCH  11  13
ENDBRANCH  10  11
ENDBRANCH   1  10
BRANCH   9  24
ATOM     24  C   UNL     1      38.104  -1.950  14.854  0.00  0.00    +0.000 C 
BRANCH  24  25
ATOM     25  C   UNL     1      39.491  -1.524  14.646  0.00  0.00    +0.000 A 
ATOM     26  C   UNL     1      40.482  -2.468  14.652  0.00  0.00    +0.000 A 
ATOM     27  C   UNL     1      41.783  -2.066  14.457  0.00  0.00    +0.000 A 
ATOM     28  C   UNL     1      42.144  -0.753  14.254  0.00  0.00    +0.000 A 
ATOM     29  C   UNL     1      41.111   0.165  14.256  0.00  0.00    +0.000 A 
ATOM     30  C   UNL     1      39.799  -0.205  14.448  0.00  0.00    +0.000 A 
ENDBRANCH  24  25
ENDBRANCH   9  24
TORSDOF 7
ENDMDL
MODEL 2
REMARK VINA RESULT:      -8.8      1.985      3.740
REMARK  Name = 
REMARK  7 active torsions:
REMARK  status: ('A' for Active; 'I' for Inactive)
REMARK    1  A    between atoms: C_5  and  C_6
REMARK    2  A    between atoms: N_7  and  N_8
REMARK    3  A    between atoms: C_9  and  C_11
REMARK    4  A    between atoms: C_11  and  S_12
REMARK    5  A    between atoms: S_12  and  C_13
REMARK    6  A    between atoms: N_21  and  C_22
REMARK    7  A    between atoms: C_22  and  C_23
REMARK                            x       y       z     vdW  Elec       q    Type
REMARK                         _______ _______ _______ _____ _____    ______ ____
ROOT
ATOM      1  C   UNL     1      37.004  -0.295  15.970  0.00  0.00    +0.000 A 
ATOM      2  N   UNL     1      37.980   0.199  15.185  0.00  0.00    +0.000 NA
ATOM      3  C   UNL     1      38.976  -0.722  15.121  0.00  0.00    +0.000 A 
ATOM      4  C   UNL     1      40.198  -0.742  14.469  0.00  0.00    +0.000 A 
ATOM      5  C   UNL     1      41.003  -1.841  14.601  0.00  0.00    +0.000 A 
ATOM      6  C   UNL     1      40.637  -2.927  15.359  0.00  0.00    +0.000 A 
ATOM      7  C   UNL     1      39.428  -2.907  16.004  0.00  0.00    +0.000 A 
ATOM      8  C   UNL     1      38.615  -1.803  15.874  0.00  0.00    +0.000 A 
ATOM      9  N   UNL     1      37.382  -1.508  16.391  0.00  0.00    +0.000 N 
ENDROOT
BRANCH   1  10
ATOM     10  S   UNL     1      35.436   0.462  16.428  0.00  0.00    +0.000 S 
BRANCH  10  11
ATOM     11  C   UNL     1      35.558   2.228  16.134  0.00  0.00    +0.000 C 
BRANCH  11  13
ATOM     12  N   UNL     1      37.601   3.713  16.378  0.00  0.00    +0.000 NA
ATOM     13  C   UNL     1      36.697   2.759  16.910  0.00  0.00    +0.000 C 
ATOM     14  O   UNL     1      36.881   2.358  18.083  0.00  0.00    +0.000 OA
BRANCH  12  16
ATOM     15  C   UNL     1      38.913   5.441  17.365  0.00  0.00    +0.000 C 
ATOM     16  N   UNL     1      38.678   4.229  17.075  0.00  0.00    +0.000 NA
BRANCH  15  21
ATOM     17  C   UNL     1      43.564   7.238  20.275  0.00  0.00    +0.000 C 
ATOM     18  C   UNL     1      42.382   6.777  19.500  0.00  0.00    +0.000 A 
ATOM     19  C   UNL     1      41.211   6.463  20.182  0.00  0.00    +0.000 A 
ATOM     20  C   UNL     1      40.094   6.031  19.482  0.00  0.00    +0.000 A 
ATOM     21  C   UNL     1      40.085   5.894  18.110  0.00  0.00    +0.000 A 
ATOM     22  C   UNL     1      41.254   6.209  17.439  0.00  0.00    +0.000 A 
ATOM     23  C   UNL     1      42.381   6.644  18.130  0.00  0.00    +0.000 A 
ENDBRANCH  15  21
ENDBRANCH  12  16
ENDBRANCH  11  13
ENDBRANCH  10  11
ENDBRANCH   1  10
BRANCH   9  24
ATOM     24  C   UNL     1      36.619  -2.387  17.259  0.00  0.00    +0.000 C 
BRANCH  24  25
ATOM     25  C   UNL     1      35.898  -3.390  16.470  0.00  0.00    +0.000 A 
ATOM     26  C   UNL     1      36.346  -4.682  16.471  0.00  0.00    +0.000 A 
ATOM     27  C   UNL     1      35.667  -5.622  15.730  0.00  0.00    +0.000 A 
ATOM     28  C   UNL     1      34.550  -5.328  14.982  0.00  0.00    +0.000 A 
ATOM     29  C   UNL     1      34.133  -4.010  15.010  0.00  0.00    +0.000 A 
ATOM     30  C   UNL     1      34.790  -3.047  15.741  0.00  0.00    +0.000 A 
ENDBRANCH  24  25
ENDBRANCH   9  24
TORSDOF 7
ENDMDL
MODEL 3
REMARK VINA RESULT:      -8.7      1.002      3.721
REMARK  Name = 
REMARK  7 active torsions:
REMARK  status: ('A' for Active; 'I' for Inactive)
REMARK    1  A    between atoms: C_5  and  C_6
REMARK    2  A    between atoms: N_7  and  N_8
REMARK    3  A    between atoms: C_9  and  C_11
REMARK    4  A    between atoms: C_11  and  S_12
REMARK    5  A    between atoms: S_12  and  C_13
REMARK    6  A    between atoms: N_21  and  C_22
REMARK    7  A    between atoms: C_22  and  C_23
REMARK                            x       y       z     vdW  Elec       q    Type
REMARK                         _______ _______ _______ _____ _____    ______ ____
ROOT
ATOM      1  C   UNL     1      37.573  -0.093  15.119  0.00  0.00    +0.000 A 
ATOM      2  N   UNL     1      38.538   0.686  14.594  0.00  0.00    +0.000 NA
ATOM      3  C   UNL     1      39.672  -0.057  14.497  0.00  0.00    +0.000 A 
ATOM      4  C   UNL     1      40.946   0.228  14.038  0.00  0.00    +0.000 A 
ATOM      5  C   UNL     1      41.899  -0.754  14.068  0.00  0.00    +0.000 A 
ATOM      6  C   UNL     1      41.630  -2.017  14.541  0.00  0.00    +0.000 A 
ATOM      7  C   UNL     1      40.369  -2.298  14.996  0.00  0.00    +0.000 A 
ATOM      8  C   UNL     1      39.407  -1.313  14.966  0.00  0.00    +0.000 A 
ATOM      9  N   UNL     1      38.092  -1.305  15.347  0.00  0.00    +0.000 N 
ENDROOT
BRANCH   1  10
ATOM     10  S   UNL     1      35.861   0.330  15.484  0.00  0.00    +0.000 S 
BRANCH  10  11
ATOM     11  C   UNL     1      35.712   2.118  15.485  0.00  0.00    +0.000 C 
BRANCH  11  13
ATOM     12  N   UNL     1      37.638   3.676  16.038  0.00  0.00    +0.000 NA
ATOM     13  C   UNL     1      36.709   2.675  16.422  0.00  0.00    +0.000 C 
ATOM     14  O   UNL     1      36.746   2.255  17.602  0.00  0.00    +0.000 OA
BRANCH  12  16
ATOM     15  C   UNL     1      38.825   5.441  17.112  0.00  0.00    +0.000 C 
ATOM     16  N   UNL     1      38.585   4.217  16.887  0.00  0.00    +0.000 NA
BRANCH  15  21
ATOM     17  C   UNL     1      42.912   7.343  20.718  0.00  0.00    +0.000 C 
ATOM     18  C   UNL     1      41.879   6.853  19.767  0.00  0.00    +0.000 A 
ATOM     19  C   UNL     1      40.598   6.593  20.241  0.00  0.00    +0.000 A 
ATOM     20  C   UNL     1      39.616   6.136  19.373  0.00  0.00    +0.000 A 
ATOM     21  C   UNL     1      39.852   5.922  18.031  0.00  0.00    +0.000 A 
ATOM     22  C   UNL     1      41.130   6.183  17.568  0.00  0.00    +0.000 A 
ATOM     23  C   UNL     1      42.123   6.642  18.429  0.00  0.00    +0.000 A 
ENDBRANCH  15  21
ENDBRANCH  12  16
ENDBRANCH  11  13
ENDBRANCH  10  11
ENDBRANCH   1  10
BRANCH   9  24
ATOM     24  C   UNL     1      37.389  -2.444  15.908  0.00  0.00    +0.000 C 
BRANCH  24  25
ATOM     25  C   UNL     1      37.617  -2.528  17.353  0.00  0.00    +0.000 A 
ATOM     26  C   UNL     1      36.902  -1.712  18.186  0.00  0.00    +0.000 A 
ATOM     27  C   UNL     1      37.118  -1.793  19.543  0.00  0.00    +0.000 A 
ATOM     28  C   UNL     1      38.022  -2.661  20.111  0.00  0.00    +0.000 A 
ATOM     29  C   UNL     1      38.722  -3.466  19.232  0.00  0.00    +0.000 A 
ATOM     30  C   UNL     1      38.529  -3.409  17.871  0.00  0.00    +0.000 A 
ENDBRANCH  24  25
ENDBRANCH   9  24
TORSDOF 7
ENDMDL
MODEL 4
REMARK VINA RESULT:      -8.4      1.399      3.895
REMARK  Name = 
REMARK  7 active torsions:
REMARK  status: ('A' for Active; 'I' for Inactive)
REMARK    1  A    between atoms: C_5  and  C_6
REMARK    2  A    between atoms: N_7  and  N_8
REMARK    3  A    between atoms: C_9  and  C_11
REMARK    4  A    between atoms: C_11  and  S_12
REMARK    5  A    between atoms: S_12  and  C_13
REMARK    6  A    between atoms: N_21  and  C_22
REMARK    7  A    between atoms: C_22  and  C_23
REMARK                            x       y       z     vdW  Elec       q    Type
REMARK                         _______ _______ _______ _____ _____    ______ ____
ROOT
ATOM      1  C   UNL     1      37.646   0.757  14.264  0.00  0.00    +0.000 A 
ATOM      2  N   UNL     1      38.921   1.112  14.016  0.00  0.00    +0.000 NA
ATOM      3  C   UNL     1      39.715   0.042  14.281  0.00  0.00    +0.000 A 
ATOM      4  C   UNL     1      41.083  -0.156  14.203  0.00  0.00    +0.000 A 
ATOM      5  C   UNL     1      41.598  -1.377  14.545  0.00  0.00    +0.000 A 
ATOM      6  C   UNL     1      40.800  -2.415  14.964  0.00  0.00    +0.000 A 
ATOM      7  C   UNL     1      39.446  -2.218  15.041  0.00  0.00    +0.000 A 
ATOM      8  C   UNL     1      38.924  -0.991  14.697  0.00  0.00    +0.000 A 
ATOM      9  N   UNL     1      37.640  -0.516  14.676  0.00  0.00    +0.000 N 
ENDROOT
BRANCH   1  10
ATOM     10  S   UNL     1      36.151   1.746  14.098  0.00  0.00    +0.000 S 
BRANCH  10  11
ATOM     11  C   UNL     1      35.572   2.170  15.743  0.00  0.00    +0.000 C 
BRANCH  11  13
ATOM     12  N   UNL     1      37.555   3.732  16.000  0.00  0.00    +0.000 NA
ATOM     13  C   UNL     1      36.704   2.721  16.515  0.00  0.00    +0.000 C 
ATOM     14  O   UNL     1      36.931   2.287  17.668  0.00  0.00    +0.000 OA
BRANCH  12  16
ATOM     15  C   UNL     1      38.664   5.353  17.350  0.00  0.00    +0.000 C 
ATOM     16  N   UNL     1      38.624   4.269  16.693  0.00  0.00    +0.000 NA
BRANCH  15  21
ATOM     17  C   UNL     1      43.315   7.286  20.170  0.00  0.00    +0.000 C 
ATOM     18  C   UNL     1      42.102   6.789  19.470  0.00  0.00    +0.000 A 
ATOM     19  C   UNL     1      42.161   6.570  18.097  0.00  0.00    +0.000 A 
ATOM     20  C   UNL     1      41.042   6.105  17.420  0.00  0.00    +0.000 A 
ATOM     21  C   UNL     1      39.846   5.843  18.054  0.00  0.00    +0.000 A 
ATOM     22  C   UNL     1      39.797   6.064  19.420  0.00  0.00    +0.000 A 
ATOM     23  C   UNL     1      40.912   6.529  20.110  0.00  0.00    +0.000 A 
ENDBRANCH  15  21
ENDBRANCH  12  16
ENDBRANCH  11  13
ENDBRANCH  10  11
ENDBRANCH   1  10
BRANCH   9  24
ATOM     24  C   UNL     1      36.468  -1.288  15.048  0.00  0.00    +0.000 C 
BRANCH  24  25
ATOM     25  C   UNL     1      36.178  -1.127  16.476  0.00  0.00    +0.000 A 
ATOM     26  C   UNL     1      37.208  -1.197  17.374  0.00  0.00    +0.000 A 
ATOM     27  C   UNL     1      36.932  -1.046  18.714  0.00  0.00    +0.000 A 
ATOM     28  C   UNL     1      35.665  -0.824  19.202  0.00  0.00    +0.000 A 
ATOM     29  C   UNL     1      34.656  -0.760  18.259  0.00  0.00    +0.000 A 
ATOM     30  C   UNL     1      34.898  -0.908  16.913  0.00  0.00    +0.000 A 
ENDBRANCH  24  25
ENDBRANCH   9  24
TORSDOF 7
ENDMDL
MODEL 5
REMARK VINA RESULT:      -8.1      2.436      2.987
REMARK  Name = 
REMARK  7 active torsions:
REMARK  status: ('A' for Active; 'I' for Inactive)
REMARK    1  A    between atoms: C_5  and  C_6
REMARK    2  A    between atoms: N_7  and  N_8
REMARK    3  A    between atoms: C_9  and  C_11
REMARK    4  A    between atoms: C_11  and  S_12
REMARK    5  A    between atoms: S_12  and  C_13
REMARK    6  A    between atoms: N_21  and  C_22
REMARK    7  A    between atoms: C_22  and  C_23
REMARK                            x       y       z     vdW  Elec       q    Type
REMARK                         _______ _______ _______ _____ _____    ______ ____
ROOT
ATOM      1  C   UNL     1      36.812   0.917  14.475  0.00  0.00    +0.000 A 
ATOM      2  N   UNL     1      36.031   1.193  15.537  0.00  0.00    +0.000 NA
ATOM      3  C   UNL     1      35.558   0.018  16.028  0.00  0.00    +0.000 A 
ATOM      4  C   UNL     1      34.727  -0.290  17.091  0.00  0.00    +0.000 A 
ATOM      5  C   UNL     1      34.424  -1.602  17.340  0.00  0.00    +0.000 A 
ATOM      6  C   UNL     1      34.921  -2.624  16.568  0.00  0.00    +0.000 A 
ATOM      7  C   UNL     1      35.744  -2.319  15.516  0.00  0.00    +0.000 A 
ATOM      8  C   UNL     1      36.051  -1.001  15.262  0.00  0.00    +0.000 A 
ATOM      9  N   UNL     1      36.828  -0.410  14.303  0.00  0.00    +0.000 N 
ENDROOT
BRANCH   1  10
ATOM     10  S   UNL     1      37.714   2.059  13.415  0.00  0.00    +0.000 S 
BRANCH  10  11
ATOM     11  C   UNL     1      39.308   2.389  14.172  0.00  0.00    +0.000 C 
BRANCH  11  13
ATOM     12  N   UNL     1      38.647   3.676  16.257  0.00  0.00    +0.000 NA
ATOM     13  C   UNL     1      39.209   3.638  14.956  0.00  0.00    +0.000 C 
ATOM     14  O   UNL     1      39.633   4.708  14.462  0.00  0.00    +0.000 OA
BRANCH  12  16
ATOM     15  C   UNL     1      39.131   5.105  18.102  0.00  0.00    +0.000 C 
ATOM     16  N   UNL     1      38.537   4.825  17.017  0.00  0.00    +0.000 NA
BRANCH  15  21
ATOM     17  C   UNL     1      38.389  10.047  20.991  0.00  0.00    +0.000 C 
ATOM     18  C   UNL     1      38.558   8.783  20.227  0.00  0.00    +0.000 A 
ATOM     19  C   UNL     1      39.524   7.872  20.642  0.00  0.00    +0.000 A 
ATOM     20  C   UNL     1      39.702   6.684  19.947  0.00  0.00    +0.000 A 
ATOM     21  C   UNL     1      38.951   6.352  18.839  0.00  0.00    +0.000 A 
ATOM     22  C   UNL     1      37.992   7.265  18.433  0.00  0.00    +0.000 A 
ATOM     23  C   UNL     1      37.804   8.460  19.123  0.00  0.00    +0.000 A 
ENDBRANCH  15  21
ENDBRANCH  12  16
ENDBRANCH  11  13
ENDBRANCH  10  11
ENDBRANCH   1  10
BRANCH   9  24
ATOM     24  C   UNL     1      37.550  -1.128  13.268  0.00  0.00    +0.000 C 
BRANCH  24  25
ATOM     25  C   UNL     1      38.898  -1.474  13.725  0.00  0.00    +0.000 A 
ATOM     26  C   UNL     1      39.040  -2.320  14.791  0.00  0.00    +0.000 A 
ATOM     27  C   UNL     1      40.307  -2.643  15.219  0.00  0.00    +0.000 A 
ATOM     28  C   UNL     1      41.450  -2.157  14.626  0.00  0.00    +0.000 A 
ATOM     29  C   UNL     1      41.259  -1.306  13.553  0.00  0.00    +0.000 A 
ATOM     30  C   UNL     1      40.005  -0.963  13.101  0.00  0.00    +0.000 A 
ENDBRANCH  24  25
ENDBRANCH   9  24
TORSDOF 7
ENDMDL
MODEL 6
REMARK VINA RESULT:      -8.0      1.591      2.097
REMARK  Name = 
REMARK  7 active torsions:
REMARK  status: ('A' for Active; 'I' for Inactive)
REMARK    1  A    between atoms: C_5  and  C_6
REMARK    2  A    between atoms: N_7  and  N_8
REMARK    3  A    between atoms: C_9  and  C_11
REMARK    4  A    between atoms: C_11  and  S_12
REMARK    5  A    between atoms: S_12  and  C_13
REMARK    6  A    between atoms: N_21  and  C_22
REMARK    7  A    between atoms: C_22  and  C_23
REMARK                            x       y       z     vdW  Elec       q    Type
REMARK                         _______ _______ _______ _____ _____    ______ ____
ROOT
ATOM      1  C   UNL     1      36.881  -0.479  14.911  0.00  0.00    +0.000 A 
ATOM      2  N   UNL     1      36.057  -1.434  15.382  0.00  0.00    +0.000 NA
ATOM      3  C   UNL     1      36.820  -2.415  15.932  0.00  0.00    +0.000 A 
ATOM      4  C   UNL     1      36.508  -3.612  16.553  0.00  0.00    +0.000 A 
ATOM      5  C   UNL     1      37.523  -4.406  17.014  0.00  0.00    +0.000 A 
ATOM      6  C   UNL     1      38.844  -4.051  16.883  0.00  0.00    +0.000 A 
ATOM      7  C   UNL     1      39.152  -2.866  16.268  0.00  0.00    +0.000 A 
ATOM      8  C   UNL     1      38.134  -2.064  15.802  0.00  0.00    +0.000 A 
ATOM      9  N   UNL     1      38.141  -0.854  15.162  0.00  0.00    +0.000 N 
ENDROOT
BRANCH   1  10
ATOM     10  S   UNL     1      36.459   1.061  14.080  0.00  0.00    +0.000 S 
BRANCH  10  11
ATOM     11  C   UNL     1      35.660   2.142  15.269  0.00  0.00    +0.000 C 
BRANCH  11  13
ATOM     12  N   UNL     1      37.582   3.698  15.839  0.00  0.00    +0.000 NA
ATOM     13  C   UNL     1      36.685   2.660  16.199  0.00  0.00    +0.000 C 
ATOM     14  O   UNL     1      36.774   2.172  17.349  0.00  0.00    +0.000 OA
BRANCH  12  16
ATOM     15  C   UNL     1      38.777   5.418  16.978  0.00  0.00    +0.000 C 
ATOM     16  N   UNL     1      38.554   4.205  16.683  0.00  0.00    +0.000 NA
BRANCH  15  21
ATOM     17  C   UNL     1      42.924   7.168  20.591  0.00  0.00    +0.000 C 
ATOM     18  C   UNL     1      41.837   6.715  19.684  0.00  0.00    +0.000 A 
ATOM     19  C   UNL     1      42.104   6.592  18.324  0.00  0.00    +0.000 A 
ATOM     20  C   UNL     1      41.106   6.171  17.456  0.00  0.00    +0.000 A 
ATOM     21  C   UNL     1      39.832   5.862  17.884  0.00  0.00    +0.000 A 
ATOM     22  C   UNL     1      39.576   5.988  19.238  0.00  0.00    +0.000 A 
ATOM     23  C   UNL     1      40.568   6.409  20.119  0.00  0.00    +0.000 A 
ENDBRANCH  15  21
ENDBRANCH  12  16
ENDBRANCH  11  13
ENDBRANCH  10  11
ENDBRANCH   1  10
BRANCH   9  24
ATOM     24  C   UNL     1      39.338  -0.109  14.818  0.00  0.00    +0.000 C 
BRANCH  24  25
ATOM     25  C   UNL     1      40.107  -0.818  13.791  0.00  0.00    +0.000 A 
ATOM     26  C   UNL     1      39.512  -1.095  12.590  0.00  0.00    +0.000 A 
ATOM     27  C   UNL     1      40.237  -1.760  11.628  0.00  0.00    +0.000 A 
ATOM     28  C   UNL     1      41.540  -2.164  11.810  0.00  0.00    +0.000 A 
ATOM     29  C   UNL     1      42.100  -1.863  13.037  0.00  0.00    +0.000 A 
ATOM     30  C   UNL     1      41.403  -1.199  14.021  0.00  0.00    +0.000 A 
ENDBRANCH  24  25
ENDBRANCH   9  24
TORSDOF 7
ENDMDL
MODEL 7
REMARK VINA RESULT:      -7.8      1.699      2.176
REMARK  Name = 
REMARK  7 active torsions:
REMARK  status: ('A' for Active; 'I' for Inactive)
REMARK    1  A    between atoms: C_5  and  C_6
REMARK    2  A    between atoms: N_7  and  N_8
REMARK    3  A    between atoms: C_9  and  C_11
REMARK    4  A    between atoms: C_11  and  S_12
REMARK    5  A    between atoms: S_12  and  C_13
REMARK    6  A    between atoms: N_21  and  C_22
REMARK    7  A    between atoms: C_22  and  C_23
REMARK                            x       y       z     vdW  Elec       q    Type
REMARK                         _______ _______ _______ _____ _____    ______ ____
ROOT
ATOM      1  C   UNL     1      37.836  -0.196  15.058  0.00  0.00    +0.000 A 
ATOM      2  N   UNL     1      37.397  -0.210  16.331  0.00  0.00    +0.000 NA
ATOM      3  C   UNL     1      37.843  -1.351  16.918  0.00  0.00    +0.000 A 
ATOM      4  C   UNL     1      37.694  -1.873  18.191  0.00  0.00    +0.000 A 
ATOM      5  C   UNL     1      38.276  -3.076  18.488  0.00  0.00    +0.000 A 
ATOM      6  C   UNL     1      39.005  -3.783  17.561  0.00  0.00    +0.000 A 
ATOM      7  C   UNL     1      39.151  -3.265  16.301  0.00  0.00    +0.000 A 
ATOM      8  C   UNL     1      38.567  -2.055  15.998  0.00  0.00    +0.000 A 
ATOM      9  N   UNL     1      38.546  -1.311  14.849  0.00  0.00    +0.000 N 
ENDROOT
BRANCH   1  10
ATOM     10  S   UNL     1      37.569   1.053  13.789  0.00  0.00    +0.000 S 
BRANCH  10  11
ATOM     11  C   UNL     1      35.969   1.814  14.077  0.00  0.00    +0.000 C 
BRANCH  11  13
ATOM     12  N   UNL     1      37.400   3.401  15.446  0.00  0.00    +0.000 NA
ATOM     13  C   UNL     1      36.130   2.889  15.078  0.00  0.00    +0.000 C 
ATOM     14  O   UNL     1      35.114   3.373  15.628  0.00  0.00    +0.000 OA
BRANCH  12  16
ATOM     15  C   UNL     1      38.641   4.682  17.027  0.00  0.00    +0.000 C 
ATOM     16  N   UNL     1      37.587   4.404  16.379  0.00  0.00    +0.000 NA
BRANCH  15  21
ATOM     17  C   UNL     1      39.024   8.990  20.850  0.00  0.00    +0.000 C 
ATOM     18  C   UNL     1      38.904   7.896  19.851  0.00  0.00    +0.000 A 
ATOM     19  C   UNL     1      39.735   6.786  19.965  0.00  0.00    +0.000 A 
ATOM     20  C   UNL     1      39.642   5.751  19.046  0.00  0.00    +0.000 A 
ATOM     21  C   UNL     1      38.746   5.767  17.998  0.00  0.00    +0.000 A 
ATOM     22  C   UNL     1      37.922   6.874  17.892  0.00  0.00    +0.000 A 
ATOM     23  C   UNL     1      38.006   7.919  18.808  0.00  0.00    +0.000 A 
ENDBRANCH  15  21
ENDBRANCH  12  16
ENDBRANCH  11  13
ENDBRANCH  10  11
ENDBRANCH   1  10
BRANCH   9  24
ATOM     24  C   UNL     1      39.196  -1.690  13.608  0.00  0.00    +0.000 C 
BRANCH  24  25
ATOM     25  C   UNL     1      40.647  -1.510  13.712  0.00  0.00    +0.000 A 
ATOM     26  C   UNL     1      41.468  -2.569  13.436  0.00  0.00    +0.000 A 
ATOM     27  C   UNL     1      42.829  -2.397  13.533  0.00  0.00    +0.000 A 
ATOM     28  C   UNL     1      43.415  -1.206  13.897  0.00  0.00    +0.000 A 
ATOM     29  C   UNL     1      42.548  -0.164  14.166  0.00  0.00    +0.000 A 
ATOM     30  C   UNL     1      41.181  -0.303  14.077  0.00  0.00    +0.000 A 
ENDBRANCH  24  25
ENDBRANCH   9  24
TORSDOF 7
ENDMDL
MODEL 8
REMARK VINA RESULT:      -7.7      2.163      2.639
REMARK  Name = 
REMARK  7 active torsions:
REMARK  status: ('A' for Active; 'I' for Inactive)
REMARK    1  A    between atoms: C_5  and  C_6
REMARK    2  A    between atoms: N_7  and  N_8
REMARK    3  A    between atoms: C_9  and  C_11
REMARK    4  A    between atoms: C_11  and  S_12
REMARK    5  A    between atoms: S_12  and  C_13
REMARK    6  A    between atoms: N_21  and  C_22
REMARK    7  A    between atoms: C_22  and  C_23
REMARK                            x       y       z     vdW  Elec       q    Type
REMARK                         _______ _______ _______ _____ _____    ______ ____
ROOT
ATOM      1  C   UNL     1      36.594   1.246  13.949  0.00  0.00    +0.000 A 
ATOM      2  N   UNL     1      35.874   1.695  14.995  0.00  0.00    +0.000 NA
ATOM      3  C   UNL     1      35.593   0.637  15.799  0.00  0.00    +0.000 A 
ATOM      4  C   UNL     1      34.896   0.520  16.989  0.00  0.00    +0.000 A 
ATOM      5  C   UNL     1      34.782  -0.712  17.574  0.00  0.00    +0.000 A 
ATOM      6  C   UNL     1      35.339  -1.839  17.017  0.00  0.00    +0.000 A 
ATOM      7  C   UNL     1      36.029  -1.722  15.839  0.00  0.00    +0.000 A 
ATOM      8  C   UNL     1      36.146  -0.484  15.247  0.00  0.00    +0.000 A 
ATOM      9  N   UNL     1      36.762  -0.074  14.096  0.00  0.00    +0.000 N 
ENDROOT
BRANCH   1  10
ATOM     10  S   UNL     1      37.256   2.175  12.557  0.00  0.00    +0.000 S 
BRANCH  10  11
ATOM     11  C   UNL     1      37.137   3.924  12.940  0.00  0.00    +0.000 C 
BRANCH  11  13
ATOM     12  N   UNL     1      37.975   5.002  15.080  0.00  0.00    +0.000 NA
ATOM     13  C   UNL     1      38.216   4.275  13.886  0.00  0.00    +0.000 C 
ATOM     14  O   UNL     1      39.392   3.923  13.634  0.00  0.00    +0.000 OA
BRANCH  12  16
ATOM     15  C   UNL     1      38.819   5.731  17.186  0.00  0.00    +0.000 C 
ATOM     16  N   UNL     1      38.961   5.348  15.985  0.00  0.00    +0.000 NA
BRANCH  15  21
ATOM     17  C   UNL     1      43.171   7.098  20.724  0.00  0.00    +0.000 C 
ATOM     18  C   UNL     1      42.032   6.745  19.836  0.00  0.00    +0.000 A 
ATOM     19  C   UNL     1      42.252   6.647  18.466  0.00  0.00    +0.000 A 
ATOM     20  C   UNL     1      41.205   6.318  17.616  0.00  0.00    +0.000 A 
ATOM     21  C   UNL     1      39.926   6.078  18.073  0.00  0.00    +0.000 A 
ATOM     22  C   UNL     1      39.716   6.177  19.437  0.00  0.00    +0.000 A 
ATOM     23  C   UNL     1      40.758   6.506  20.300  0.00  0.00    +0.000 A 
ENDBRANCH  15  21
ENDBRANCH  12  16
ENDBRANCH  11  13
ENDBRANCH  10  11
ENDBRANCH   1  10
BRANCH   9  24
ATOM     24  C   UNL     1      37.482  -0.948  13.188  0.00  0.00    +0.000 C 
BRANCH  24  25
ATOM     25  C   UNL     1      38.827  -1.226  13.698  0.00  0.00    +0.000 A 
ATOM     26  C   UNL     1      39.128  -2.492  14.120  0.00  0.00    +0.000 A 
ATOM     27  C   UNL     1      40.392  -2.750  14.599  0.00  0.00    +0.000 A 
ATOM     28  C   UNL     1      41.378  -1.794  14.675  0.00  0.00    +0.000 A 
ATOM     29  C   UNL     1      41.030  -0.529  14.238  0.00  0.00    +0.000 A 
ATOM     30  C   UNL     1      39.775  -0.239  13.754  0.00  0.00    +0.000 A 
ENDBRANCH  24  25
ENDBRANCH   9  24
TORSDOF 7
ENDMDL
MODEL 9
REMARK VINA RESULT:      -7.7      1.699      3.985
REMARK  Name = 
REMARK  7 active torsions:
REMARK  status: ('A' for Active; 'I' for Inactive)
REMARK    1  A    between atoms: C_5  and  C_6
REMARK    2  A    between atoms: N_7  and  N_8
REMARK    3  A    between atoms: C_9  and  C_11
REMARK    4  A    between atoms: C_11  and  S_12
REMARK    5  A    between atoms: S_12  and  C_13
REMARK    6  A    between atoms: N_21  and  C_22
REMARK    7  A    between atoms: C_22  and  C_23
REMARK                            x       y       z     vdW  Elec       q    Type
REMARK                         _______ _______ _______ _____ _____    ______ ____
ROOT
ATOM      1  C   UNL     1      38.021   0.353  14.130  0.00  0.00    +0.000 A 
ATOM      2  N   UNL     1      39.127   1.051  13.812  0.00  0.00    +0.000 NA
ATOM      3  C   UNL     1      40.204   0.246  14.005  0.00  0.00    +0.000 A 
ATOM      4  C   UNL     1      41.565   0.440  13.838  0.00  0.00    +0.000 A 
ATOM      5  C   UNL     1      42.422  -0.588  14.123  0.00  0.00    +0.000 A 
ATOM      6  C   UNL     1      41.975  -1.809  14.568  0.00  0.00    +0.000 A 
ATOM      7  C   UNL     1      40.628  -2.001  14.733  0.00  0.00    +0.000 A 
ATOM      8  C   UNL     1      39.762  -0.968  14.448  0.00  0.00    +0.000 A 
ATOM      9  N   UNL     1      38.398  -0.872  14.516  0.00  0.00    +0.000 N 
ENDROOT
BRANCH   1  10
ATOM     10  S   UNL     1      36.301   0.883  14.078  0.00  0.00    +0.000 S 
BRANCH  10  11
ATOM     11  C   UNL     1      35.649   0.842  15.750  0.00  0.00    +0.000 C 
BRANCH  11  13
ATOM     12  N   UNL     1      37.231   2.366  17.021  0.00  0.00    +0.000 NA
ATOM     13  C   UNL     1      35.972   2.121  16.414  0.00  0.00    +0.000 C 
ATOM     14  O   UNL     1      35.111   3.030  16.450  0.00  0.00    +0.000 OA
BRANCH  12  16
ATOM     15  C   UNL     1      38.266   4.505  17.201  0.00  0.00    +0.000 C 
ATOM     16  N   UNL     1      37.566   3.549  17.653  0.00  0.00    +0.000 NA
BRANCH  15  21
ATOM     17  C   UNL     1      39.443   9.344  20.120  0.00  0.00    +0.000 C 
ATOM     18  C   UNL     1      39.125   8.114  19.348  0.00  0.00    +0.000 A 
ATOM     19  C   UNL     1      39.621   6.893  19.794  0.00  0.00    +0.000 A 
ATOM     20  C   UNL     1      39.337   5.731  19.092  0.00  0.00    +0.000 A 
ATOM     21  C   UNL     1      38.570   5.724  17.946  0.00  0.00    +0.000 A 
ATOM     22  C   UNL     1      38.081   6.943  17.509  0.00  0.00    +0.000 A 
ATOM     23  C   UNL     1      38.358   8.116  18.205  0.00  0.00    +0.000 A 
ENDBRANCH  15  21
ENDBRANCH  12  16
ENDBRANCH  11  13
ENDBRANCH  10  11
ENDBRANCH   1  10
BRANCH   9  24
ATOM     24  C   UNL     1      37.516  -1.942  14.944  0.00  0.00    +0.000 C 
BRANCH  24  25
ATOM     25  C   UNL     1      37.874  -2.399  16.289  0.00  0.00    +0.000 A 
ATOM     26  C   UNL     1      37.756  -1.528  17.338  0.00  0.00    +0.000 A 
ATOM     27  C   UNL     1      38.093  -1.960  18.601  0.00  0.00    +0.000 A 
ATOM     28  C   UNL     1      38.547  -3.231  18.866  0.00  0.00    +0.000 A 
ATOM     29  C   UNL     1      38.651  -4.076  17.777  0.00  0.00    +0.000 A 
ATOM     30  C   UNL     1      38.322  -3.676  16.503  0.00  0.00    +0.000 A 
ENDBRANCH  24  25
ENDBRANCH   9  24
TORSDOF 7
ENDMDL
MODEL 10
REMARK VINA RESULT:      -7.6      3.258      9.476
REMARK  Name = 
REMARK  7 active torsions:
REMARK  status: ('A' for Active; 'I' for Inactive)
REMARK    1  A    between atoms: C_5  and  C_6
REMARK    2  A    between atoms: N_7  and  N_8
REMARK    3  A    between atoms: C_9  and  C_11
REMARK    4  A    between atoms: C_11  and  S_12
REMARK    5  A    between atoms: S_12  and  C_13
REMARK    6  A    between atoms: N_21  and  C_22
REMARK    7  A    between atoms: C_22  and  C_23
REMARK                            x       y       z     vdW  Elec       q    Type
REMARK                         _______ _______ _______ _____ _____    ______ ____
ROOT
ATOM      1  C   UNL     1      38.388   7.287  17.267  0.00  0.00    +0.000 A 
ATOM      2  N   UNL     1      37.839   8.509  17.128  0.00  0.00    +0.000 NA
ATOM      3  C   UNL     1      37.946   9.157  18.317  0.00  0.00    +0.000 A 
ATOM      4  C   UNL     1      37.560  10.417  18.739  0.00  0.00    +0.000 A 
ATOM      5  C   UNL     1      37.811  10.792  20.031  0.00  0.00    +0.000 A 
ATOM      6  C   UNL     1      38.438   9.957  20.924  0.00  0.00    +0.000 A 
ATOM      7  C   UNL     1      38.821   8.709  20.506  0.00  0.00    +0.000 A 
ATOM      8  C   UNL     1      38.569   8.328  19.207  0.00  0.00    +0.000 A 
ATOM      9  N   UNL     1      38.832   7.171  18.525  0.00  0.00    +0.000 N 
ENDROOT
BRANCH   1  10
ATOM     10  S   UNL     1      38.543   5.977  16.043  0.00  0.00    +0.000 S 
BRANCH  10  11
ATOM     11  C   UNL     1      37.072   5.990  15.015  0.00  0.00    +0.000 C 
BRANCH  11  13
ATOM     12  N   UNL     1      37.150   3.521  15.595  0.00  0.00    +0.000 NA
ATOM     13  C   UNL     1      36.569   4.607  14.892  0.00  0.00    +0.000 C 
ATOM     14  O   UNL     1      35.594   4.372  14.141  0.00  0.00    +0.000 OA
BRANCH  12  16
ATOM     15  C   UNL     1      36.409   1.421  16.445  0.00  0.00    +0.000 C 
ATOM     16  N   UNL     1      36.707   2.214  15.502  0.00  0.00    +0.000 NA
BRANCH  15  21
ATOM     17  C   UNL     1      34.607  -4.004  15.642  0.00  0.00    +0.000 C 
ATOM     18  C   UNL     1      35.091  -2.611  15.826  0.00  0.00    +0.000 A 
ATOM     19  C   UNL     1      34.507  -1.821  16.811  0.00  0.00    +0.000 A 
ATOM     20  C   UNL     1      34.941  -0.517  17.003  0.00  0.00    +0.000 A 
ATOM     21  C   UNL     1      35.946   0.050  16.249  0.00  0.00    +0.000 A 
ATOM     22  C   UNL     1      36.522  -0.743  15.271  0.00  0.00    +0.000 A 
ATOM     23  C   UNL     1      36.095  -2.053  15.069  0.00  0.00    +0.000 A 
ENDBRANCH  15  21
ENDBRANCH  12  16
ENDBRANCH  11  13
ENDBRANCH  10  11
ENDBRANCH   1  10
BRANCH   9  24
ATOM     24  C   UNL     1      39.490   6.008  19.094  0.00  0.00    +0.000 C 
BRANCH  24  25
ATOM     25  C   UNL     1      40.926   6.257  19.253  0.00  0.00    +0.000 A 
ATOM     26  C   UNL     1      41.685   6.496  18.140  0.00  0.00    +0.000 A 
ATOM     27  C   UNL     1      43.032   6.729  18.293  0.00  0.00    +0.000 A 
ATOM     28  C   UNL     1      43.662   6.734  19.516  0.00  0.00    +0.000 A 
ATOM     29  C   UNL     1      42.857   6.488  20.613  0.00  0.00    +0.000 A 
ATOM     30  C   UNL     1      41.506   6.251  20.494  0.00  0.00    +0.000 A 
ENDBRANCH  24  25
ENDBRANCH   9  24
TORSDOF 7
ENDMDL
