MODEL 1
REMARK VINA RESULT:      -6.7      0.000      0.000
REMARK  Name = 
REMARK  2 active torsions:
REMARK  status: ('A' for Active; 'I' for Inactive)
REMARK    1  A    between atoms: C_7  and  N_8
REMARK    2  A    between atoms: C_9  and  C_11
REMARK                            x       y       z     vdW  Elec       q    Type
REMARK                         _______ _______ _______ _____ _____    ______ ____
ROOT
ATOM      1  C   UNL     1      18.971   9.841  38.037  0.00  0.00    +0.000 A 
ATOM      2  C   UNL     1      20.333   9.780  37.880  0.00  0.00    +0.000 A 
ATOM      3  N   UNL     1      21.122   9.800  36.678  0.00  0.00    +0.000 NA
ATOM      4  S   UNL     1      20.917   9.672  39.475  0.00  0.00    +0.000 S 
ATOM      5  C   UNL     1      19.436   9.705  40.309  0.00  0.00    +0.000 A 
ATOM      6  C   UNL     1      18.516   9.800  39.316  0.00  0.00    +0.000 A 
ATOM      7  C   UNL     1      17.028   9.862  39.602  0.00  0.00    +0.000 C 
ATOM      8  C   UNL     1      16.654   8.831  40.640  0.00  0.00    +0.000 C 
ATOM      9  C   UNL     1      17.804   7.911  40.979  0.00  0.00    +0.000 C 
ATOM     10  C   UNL     1      18.483   8.463  42.213  0.00  0.00    +0.000 C 
ATOM     11  C   UNL     1      19.325   9.635  41.801  0.00  0.00    +0.000 C 
ENDROOT
BRANCH   1  13
ATOM     12  N   UNL     1      17.704  11.206  36.315  0.00  0.00    +0.000 NA
ATOM     13  C   UNL     1      18.096   9.946  36.836  0.00  0.00    +0.000 C 
ATOM     14  O   UNL     1      17.688   8.919  36.260  0.00  0.00    +0.000 OA
BRANCH  12  21
ATOM     15  C   UNL     1      15.206  12.450  36.657  0.00  0.00    +0.000 C 
ATOM     16  C   UNL     1      15.648  11.955  35.335  0.00  0.00    +0.000 A 
ATOM     17  C   UNL     1      14.817  12.106  34.240  0.00  0.00    +0.000 A 
ATOM     18  C   UNL     1      15.225  11.649  33.013  0.00  0.00    +0.000 A 
ATOM     19  C   UNL     1      16.456  11.044  32.875  0.00  0.00    +0.000 A 
ATOM     20  C   UNL     1      17.293  10.886  33.957  0.00  0.00    +0.000 A 
ATOM     21  C   UNL     1      16.872  11.348  35.174  0.00  0.00    +0.000 A 
ENDBRANCH  12  21
ENDBRANCH   1  13
TORSDOF 2
ENDMDL
MODEL 2
REMARK VINA RESULT:      -6.6     21.379     22.524
REMARK  Name = 
REMARK  2 active torsions:
REMARK  status: ('A' for Active; 'I' for Inactive)
REMARK    1  A    between atoms: C_7  and  N_8
REMARK    2  A    between atoms: C_9  and  C_11
REMARK                            x       y       z     vdW  Elec       q    Type
REMARK                         _______ _______ _______ _____ _____    ______ ____
ROOT
ATOM      1  C   UNL     1      19.834  -7.640  26.058  0.00  0.00    +0.000 A 
ATOM      2  C   UNL     1      19.224  -6.420  26.222  0.00  0.00    +0.000 A 
ATOM      3  N   UNL     1      19.522  -5.154  25.610  0.00  0.00    +0.000 NA
ATOM      4  S   UNL     1      17.990  -6.737  27.350  0.00  0.00    +0.000 S 
ATOM      5  C   UNL     1      18.264  -8.398  27.593  0.00  0.00    +0.000 A 
ATOM      6  C   UNL     1      19.319  -8.665  26.783  0.00  0.00    +0.000 A 
ATOM      7  C   UNL     1      19.917 -10.055  26.676  0.00  0.00    +0.000 C 
ATOM      8  C   UNL     1      20.074 -10.662  28.049  0.00  0.00    +0.000 C 
ATOM      9  C   UNL     1      19.766  -9.677  29.153  0.00  0.00    +0.000 C 
ATOM     10  C   UNL     1      18.324  -9.882  29.560  0.00  0.00    +0.000 C 
ATOM     11  C   UNL     1      17.448  -9.244  28.521  0.00  0.00    +0.000 C 
ENDROOT
BRANCH   1  13
ATOM     12  N   UNL     1      22.322  -7.583  25.568  0.00  0.00    +0.000 NA
ATOM     13  C   UNL     1      20.987  -7.765  25.123  0.00  0.00    +0.000 C 
ATOM     14  O   UNL     1      20.799  -8.033  23.921  0.00  0.00    +0.000 OA
BRANCH  12  21
ATOM     15  C   UNL     1      23.394 -10.145  25.133  0.00  0.00    +0.000 C 
ATOM     16  C   UNL     1      23.977  -8.945  24.494  0.00  0.00    +0.000 A 
ATOM     17  C   UNL     1      25.073  -9.082  23.662  0.00  0.00    +0.000 A 
ATOM     18  C   UNL     1      25.615  -7.971  23.067  0.00  0.00    +0.000 A 
ATOM     19  C   UNL     1      25.067  -6.727  23.298  0.00  0.00    +0.000 A 
ATOM     20  C   UNL     1      23.976  -6.576  24.124  0.00  0.00    +0.000 A 
ATOM     21  C   UNL     1      23.447  -7.694  24.709  0.00  0.00    +0.000 A 
ENDBRANCH  12  21
ENDBRANCH   1  13
TORSDOF 2
ENDMDL
MODEL 3
REMARK VINA RESULT:      -6.4     19.021     20.712
REMARK  Name = 
REMARK  2 active torsions:
REMARK  status: ('A' for Active; 'I' for Inactive)
REMARK    1  A    between atoms: C_7  and  N_8
REMARK    2  A    between atoms: C_9  and  C_11
REMARK                            x       y       z     vdW  Elec       q    Type
REMARK                         _______ _______ _______ _____ _____    ______ ____
ROOT
ATOM      1  C   UNL     1      26.955  23.590  27.218  0.00  0.00    +0.000 A 
ATOM      2  C   UNL     1      25.848  24.128  27.827  0.00  0.00    +0.000 A 
ATOM      3  N   UNL     1      24.756  24.871  27.259  0.00  0.00    +0.000 NA
ATOM      4  S   UNL     1      26.048  23.710  29.464  0.00  0.00    +0.000 S 
ATOM      5  C   UNL     1      27.521  22.868  29.352  0.00  0.00    +0.000 A 
ATOM      6  C   UNL     1      27.822  22.934  28.030  0.00  0.00    +0.000 A 
ATOM      7  C   UNL     1      29.078  22.302  27.460  0.00  0.00    +0.000 C 
ATOM      8  C   UNL     1      30.264  22.615  28.340  0.00  0.00    +0.000 C 
ATOM      9  C   UNL     1      29.926  23.600  29.434  0.00  0.00    +0.000 C 
ATOM     10  C   UNL     1      29.597  22.808  30.679  0.00  0.00    +0.000 C 
ATOM     11  C   UNL     1      28.212  22.249  30.527  0.00  0.00    +0.000 C 
ENDROOT
BRANCH   1  13
ATOM     12  N   UNL     1      27.965  24.773  25.214  0.00  0.00    +0.000 NA
ATOM     13  C   UNL     1      27.137  23.752  25.748  0.00  0.00    +0.000 C 
ATOM     14  O   UNL     1      26.558  22.988  24.952  0.00  0.00    +0.000 OA
BRANCH  12  21
ATOM     15  C   UNL     1      30.163  23.491  24.018  0.00  0.00    +0.000 C 
ATOM     16  C   UNL     1      29.238  24.336  23.230  0.00  0.00    +0.000 A 
ATOM     17  C   UNL     1      29.456  24.501  21.874  0.00  0.00    +0.000 A 
ATOM     18  C   UNL     1      28.600  25.283  21.142  0.00  0.00    +0.000 A 
ATOM     19  C   UNL     1      27.530  25.899  21.755  0.00  0.00    +0.000 A 
ATOM     20  C   UNL     1      27.301  25.744  23.104  0.00  0.00    +0.000 A 
ATOM     21  C   UNL     1      28.164  24.960  23.821  0.00  0.00    +0.000 A 
ENDBRANCH  12  21
ENDBRANCH   1  13
TORSDOF 2
ENDMDL
MODEL 4
REMARK VINA RESULT:      -6.4     18.662     20.175
REMARK  Name = 
REMARK  2 active torsions:
REMARK  status: ('A' for Active; 'I' for Inactive)
REMARK    1  A    between atoms: C_7  and  N_8
REMARK    2  A    between atoms: C_9  and  C_11
REMARK                            x       y       z     vdW  Elec       q    Type
REMARK                         _______ _______ _______ _____ _____    ______ ____
ROOT
ATOM      1  C   UNL     1      29.772  22.796  29.347  0.00  0.00    +0.000 A 
ATOM      2  C   UNL     1      28.946  22.750  30.444  0.00  0.00    +0.000 A 
ATOM      3  N   UNL     1      27.551  23.077  30.558  0.00  0.00    +0.000 NA
ATOM      4  S   UNL     1      29.965  22.199  31.691  0.00  0.00    +0.000 S 
ATOM      5  C   UNL     1      31.410  22.038  30.809  0.00  0.00    +0.000 A 
ATOM      6  C   UNL     1      31.060  22.421  29.555  0.00  0.00    +0.000 A 
ATOM      7  C   UNL     1      32.056  22.434  28.411  0.00  0.00    +0.000 C 
ATOM      8  C   UNL     1      33.358  23.052  28.862  0.00  0.00    +0.000 C 
ATOM      9  C   UNL     1      33.266  23.642  30.250  0.00  0.00    +0.000 C 
ATOM     10  C   UNL     1      33.773  22.603  31.224  0.00  0.00    +0.000 C 
ATOM     11  C   UNL     1      32.699  21.571  31.412  0.00  0.00    +0.000 C 
ENDROOT
BRANCH   1  13
ATOM     12  N   UNL     1      28.783  22.305  27.063  0.00  0.00    +0.000 NA
ATOM     13  C   UNL     1      29.226  23.240  28.034  0.00  0.00    +0.000 C 
ATOM     14  O   UNL     1      29.147  24.453  27.761  0.00  0.00    +0.000 OA
BRANCH  12  21
ATOM     15  C   UNL     1      30.578  22.557  24.914  0.00  0.00    +0.000 C 
ATOM     16  C   UNL     1      29.131  22.814  24.747  0.00  0.00    +0.000 A 
ATOM     17  C   UNL     1      28.646  23.186  23.506  0.00  0.00    +0.000 A 
ATOM     18  C   UNL     1      27.305  23.424  23.348  0.00  0.00    +0.000 A 
ATOM     19  C   UNL     1      26.448  23.292  24.419  0.00  0.00    +0.000 A 
ATOM     20  C   UNL     1      26.917  22.923  25.660  0.00  0.00    +0.000 A 
ATOM     21  C   UNL     1      28.257  22.688  25.802  0.00  0.00    +0.000 A 
ENDBRANCH  12  21
ENDBRANCH   1  13
TORSDOF 2
ENDMDL
MODEL 5
REMARK VINA RESULT:      -6.4     18.187     20.092
REMARK  Name = 
REMARK  2 active torsions:
REMARK  status: ('A' for Active; 'I' for Inactive)
REMARK    1  A    between atoms: C_7  and  N_8
REMARK    2  A    between atoms: C_9  and  C_11
REMARK                            x       y       z     vdW  Elec       q    Type
REMARK                         _______ _______ _______ _____ _____    ______ ____
ROOT
ATOM      1  C   UNL     1      26.945  23.846  28.584  0.00  0.00    +0.000 A 
ATOM      2  C   UNL     1      25.941  24.440  29.309  0.00  0.00    +0.000 A 
ATOM      3  N   UNL     1      25.655  24.365  30.715  0.00  0.00    +0.000 NA
ATOM      4  S   UNL     1      25.071  25.322  28.142  0.00  0.00    +0.000 S 
ATOM      5  C   UNL     1      25.987  24.926  26.764  0.00  0.00    +0.000 A 
ATOM      6  C   UNL     1      26.955  24.110  27.252  0.00  0.00    +0.000 A 
ATOM      7  C   UNL     1      28.021  23.504  26.360  0.00  0.00    +0.000 C 
ATOM      8  C   UNL     1      27.397  22.969  25.093  0.00  0.00    +0.000 C 
ATOM      9  C   UNL     1      25.888  23.016  25.130  0.00  0.00    +0.000 C 
ATOM     10  C   UNL     1      25.453  24.292  24.443  0.00  0.00    +0.000 C 
ATOM     11  C   UNL     1      25.677  25.434  25.390  0.00  0.00    +0.000 C 
ENDROOT
BRANCH   1  13
ATOM     12  N   UNL     1      29.201  23.470  29.681  0.00  0.00    +0.000 NA
ATOM     13  C   UNL     1      27.935  22.974  29.277  0.00  0.00    +0.000 C 
ATOM     14  O   UNL     1      27.667  21.781  29.517  0.00  0.00    +0.000 OA
BRANCH  12  21
ATOM     15  C   UNL     1      31.429  22.610  28.197  0.00  0.00    +0.000 C 
ATOM     16  C   UNL     1      31.262  22.248  29.622  0.00  0.00    +0.000 A 
ATOM     17  C   UNL     1      32.222  21.468  30.241  0.00  0.00    +0.000 A 
ATOM     18  C   UNL     1      32.071  21.131  31.562  0.00  0.00    +0.000 A 
ATOM     19  C   UNL     1      30.968  21.568  32.265  0.00  0.00    +0.000 A 
ATOM     20  C   UNL     1      30.004  22.344  31.661  0.00  0.00    +0.000 A 
ATOM     21  C   UNL     1      30.170  22.672  30.343  0.00  0.00    +0.000 A 
ENDBRANCH  12  21
ENDBRANCH   1  13
TORSDOF 2
ENDMDL
MODEL 6
REMARK VINA RESULT:      -6.3     20.961     22.993
REMARK  Name = 
REMARK  2 active torsions:
REMARK  status: ('A' for Active; 'I' for Inactive)
REMARK    1  A    between atoms: C_7  and  N_8
REMARK    2  A    between atoms: C_9  and  C_11
REMARK                            x       y       z     vdW  Elec       q    Type
REMARK                         _______ _______ _______ _____ _____    ______ ____
ROOT
ATOM      1  C   UNL     1      29.378  23.541  23.997  0.00  0.00    +0.000 A 
ATOM      2  C   UNL     1      29.008  23.917  22.729  0.00  0.00    +0.000 A 
ATOM      3  N   UNL     1      29.823  24.312  21.613  0.00  0.00    +0.000 NA
ATOM      4  S   UNL     1      27.310  23.809  22.758  0.00  0.00    +0.000 S 
ATOM      5  C   UNL     1      27.098  23.294  24.365  0.00  0.00    +0.000 A 
ATOM      6  C   UNL     1      28.366  23.219  24.842  0.00  0.00    +0.000 A 
ATOM      7  C   UNL     1      28.665  22.790  26.266  0.00  0.00    +0.000 C 
ATOM      8  C   UNL     1      27.726  23.480  27.226  0.00  0.00    +0.000 C 
ATOM      9  C   UNL     1      26.875  24.527  26.546  0.00  0.00    +0.000 C 
ATOM     10  C   UNL     1      25.553  23.884  26.192  0.00  0.00    +0.000 C 
ATOM     11  C   UNL     1      25.759  23.026  24.978  0.00  0.00    +0.000 C 
ENDROOT
BRANCH   1  13
ATOM     12  N   UNL     1      31.459  24.629  24.958  0.00  0.00    +0.000 NA
ATOM     13  C   UNL     1      30.823  23.510  24.361  0.00  0.00    +0.000 C 
ATOM     14  O   UNL     1      31.506  22.491  24.146  0.00  0.00    +0.000 OA
BRANCH  12  21
ATOM     15  C   UNL     1      32.104  24.259  27.669  0.00  0.00    +0.000 C 
ATOM     16  C   UNL     1      33.153  24.459  26.645  0.00  0.00    +0.000 A 
ATOM     17  C   UNL     1      34.482  24.465  27.027  0.00  0.00    +0.000 A 
ATOM     18  C   UNL     1      35.457  24.649  26.079  0.00  0.00    +0.000 A 
ATOM     19  C   UNL     1      35.111  24.827  24.757  0.00  0.00    +0.000 A 
ATOM     20  C   UNL     1      33.791  24.825  24.363  0.00  0.00    +0.000 A 
ATOM     21  C   UNL     1      32.831  24.639  25.320  0.00  0.00    +0.000 A 
ENDBRANCH  12  21
ENDBRANCH   1  13
TORSDOF 2
ENDMDL
MODEL 7
REMARK VINA RESULT:      -6.3     17.143     18.531
REMARK  Name = 
REMARK  2 active torsions:
REMARK  status: ('A' for Active; 'I' for Inactive)
REMARK    1  A    between atoms: C_7  and  N_8
REMARK    2  A    between atoms: C_9  and  C_11
REMARK                            x       y       z     vdW  Elec       q    Type
REMARK                         _______ _______ _______ _____ _____    ______ ____
ROOT
ATOM      1  C   UNL     1      33.979   1.491  36.770  0.00  0.00    +0.000 A 
ATOM      2  C   UNL     1      34.054   0.761  37.931  0.00  0.00    +0.000 A 
ATOM      3  N   UNL     1      34.520   1.152  39.233  0.00  0.00    +0.000 NA
ATOM      4  S   UNL     1      33.453  -0.767  37.484  0.00  0.00    +0.000 S 
ATOM      5  C   UNL     1      33.118  -0.458  35.846  0.00  0.00    +0.000 A 
ATOM      6  C   UNL     1      33.487   0.838  35.687  0.00  0.00    +0.000 A 
ATOM      7  C   UNL     1      33.360   1.551  34.354  0.00  0.00    +0.000 C 
ATOM      8  C   UNL     1      33.863   0.666  33.240  0.00  0.00    +0.000 C 
ATOM      9  C   UNL     1      34.510  -0.598  33.755  0.00  0.00    +0.000 C 
ATOM     10  C   UNL     1      33.463  -1.689  33.738  0.00  0.00    +0.000 C 
ATOM     11  C   UNL     1      32.549  -1.481  34.911  0.00  0.00    +0.000 C 
ENDROOT
BRANCH   1  13
ATOM     12  N   UNL     1      33.497   3.979  36.877  0.00  0.00    +0.000 NA
ATOM     13  C   UNL     1      34.426   2.912  36.765  0.00  0.00    +0.000 C 
ATOM     14  O   UNL     1      35.635   3.194  36.661  0.00  0.00    +0.000 OA
BRANCH  12  21
ATOM     15  C   UNL     1      33.345   5.385  34.448  0.00  0.00    +0.000 C 
ATOM     16  C   UNL     1      33.812   6.038  35.691  0.00  0.00    +0.000 A 
ATOM     17  C   UNL     1      34.182   7.370  35.660  0.00  0.00    +0.000 A 
ATOM     18  C   UNL     1      34.614   7.978  36.811  0.00  0.00    +0.000 A 
ATOM     19  C   UNL     1      34.677   7.265  37.989  0.00  0.00    +0.000 A 
ATOM     20  C   UNL     1      34.312   5.937  38.033  0.00  0.00    +0.000 A 
ATOM     21  C   UNL     1      33.883   5.345  36.877  0.00  0.00    +0.000 A 
ENDBRANCH  12  21
ENDBRANCH   1  13
TORSDOF 2
ENDMDL
MODEL 8
REMARK VINA RESULT:      -6.2     19.275     21.272
REMARK  Name = 
REMARK  2 active torsions:
REMARK  status: ('A' for Active; 'I' for Inactive)
REMARK    1  A    between atoms: C_7  and  N_8
REMARK    2  A    between atoms: C_9  and  C_11
REMARK                            x       y       z     vdW  Elec       q    Type
REMARK                         _______ _______ _______ _____ _____    ______ ____
ROOT
ATOM      1  C   UNL     1      29.644  22.864  25.472  0.00  0.00    +0.000 A 
ATOM      2  C   UNL     1      30.421  23.268  24.414  0.00  0.00    +0.000 A 
ATOM      3  N   UNL     1      31.852  23.285  24.279  0.00  0.00    +0.000 NA
ATOM      4  S   UNL     1      29.286  23.764  23.248  0.00  0.00    +0.000 S 
ATOM      5  C   UNL     1      27.855  23.453  24.113  0.00  0.00    +0.000 A 
ATOM      6  C   UNL     1      28.301  22.968  25.298  0.00  0.00    +0.000 A 
ATOM      7  C   UNL     1      27.351  22.548  26.403  0.00  0.00    +0.000 C 
ATOM      8  C   UNL     1      26.263  23.580  26.575  0.00  0.00    +0.000 C 
ATOM      9  C   UNL     1      26.504  24.816  25.740  0.00  0.00    +0.000 C 
ATOM     10  C   UNL     1      25.730  24.656  24.450  0.00  0.00    +0.000 C 
ATOM     11  C   UNL     1      26.485  23.709  23.564  0.00  0.00    +0.000 C 
ENDROOT
BRANCH   1  13
ATOM     12  N   UNL     1      30.701  23.227  27.749  0.00  0.00    +0.000 NA
ATOM     13  C   UNL     1      30.296  22.350  26.709  0.00  0.00    +0.000 C 
ATOM     14  O   UNL     1      30.500  21.130  26.855  0.00  0.00    +0.000 OA
BRANCH  12  21
ATOM     15  C   UNL     1      29.083  22.864  30.019  0.00  0.00    +0.000 C 
ATOM     16  C   UNL     1      30.538  22.599  30.056  0.00  0.00    +0.000 A 
ATOM     17  C   UNL     1      31.119  22.162  31.233  0.00  0.00    +0.000 A 
ATOM     18  C   UNL     1      32.468  21.915  31.270  0.00  0.00    +0.000 A 
ATOM     19  C   UNL     1      33.236  22.101  30.141  0.00  0.00    +0.000 A 
ATOM     20  C   UNL     1      32.671  22.536  28.963  0.00  0.00    +0.000 A 
ATOM     21  C   UNL     1      31.325  22.777  28.942  0.00  0.00    +0.000 A 
ENDBRANCH  12  21
ENDBRANCH   1  13
TORSDOF 2
ENDMDL
MODEL 9
REMARK VINA RESULT:      -6.0     22.292     23.733
REMARK  Name = 
REMARK  2 active torsions:
REMARK  status: ('A' for Active; 'I' for Inactive)
REMARK    1  A    between atoms: C_7  and  N_8
REMARK    2  A    between atoms: C_9  and  C_11
REMARK                            x       y       z     vdW  Elec       q    Type
REMARK                         _______ _______ _______ _____ _____    ______ ____
ROOT
ATOM      1  C   UNL     1      22.454  -9.530  23.685  0.00  0.00    +0.000 A 
ATOM      2  C   UNL     1      22.593 -10.894  23.762  0.00  0.00    +0.000 A 
ATOM      3  N   UNL     1      21.720 -11.876  24.345  0.00  0.00    +0.000 NA
ATOM      4  S   UNL     1      24.079 -11.190  22.988  0.00  0.00    +0.000 S 
ATOM      5  C   UNL     1      24.497  -9.592  22.583  0.00  0.00    +0.000 A 
ATOM      6  C   UNL     1      23.460  -8.863  23.065  0.00  0.00    +0.000 A 
ATOM      7  C   UNL     1      23.405  -7.353  22.925  0.00  0.00    +0.000 C 
ATOM      8  C   UNL     1      24.746  -6.750  23.268  0.00  0.00    +0.000 C 
ATOM      9  C   UNL     1      25.713  -7.771  23.820  0.00  0.00    +0.000 C 
ATOM     10  C   UNL     1      26.568  -8.259  22.672  0.00  0.00    +0.000 C 
ATOM     11  C   UNL     1      25.756  -9.224  21.860  0.00  0.00    +0.000 C 
ENDROOT
BRANCH   1  13
ATOM     12  N   UNL     1      21.304  -8.181  25.500  0.00  0.00    +0.000 NA
ATOM     13  C   UNL     1      21.245  -8.881  24.267  0.00  0.00    +0.000 C 
ATOM     14  O   UNL     1      20.150  -8.942  23.678  0.00  0.00    +0.000 OA
BRANCH  12  21
ATOM     15  C   UNL     1      19.716  -9.698  27.254  0.00  0.00    +0.000 C 
ATOM     16  C   UNL     1      19.395  -8.287  26.945  0.00  0.00    +0.000 A 
ATOM     17  C   UNL     1      18.290  -7.698  27.531  0.00  0.00    +0.000 A 
ATOM     18  C   UNL     1      17.991  -6.390  27.247  0.00  0.00    +0.000 A 
ATOM     19  C   UNL     1      18.788  -5.669  26.384  0.00  0.00    +0.000 A 
ATOM     20  C   UNL     1      19.891  -6.244  25.793  0.00  0.00    +0.000 A 
ATOM     21  C   UNL     1      20.177  -7.549  26.087  0.00  0.00    +0.000 A 
ENDBRANCH  12  21
ENDBRANCH   1  13
TORSDOF 2
ENDMDL
MODEL 10
REMARK VINA RESULT:      -6.0     18.572     20.086
REMARK  Name = 
REMARK  2 active torsions:
REMARK  status: ('A' for Active; 'I' for Inactive)
REMARK    1  A    between atoms: C_7  and  N_8
REMARK    2  A    between atoms: C_9  and  C_11
REMARK                            x       y       z     vdW  Elec       q    Type
REMARK                         _______ _______ _______ _____ _____    ______ ____
ROOT
ATOM      1  C   UNL     1      27.040  23.667  27.051  0.00  0.00    +0.000 A 
ATOM      2  C   UNL     1      27.093  23.884  25.696  0.00  0.00    +0.000 A 
ATOM      3  N   UNL     1      28.072  23.459  24.734  0.00  0.00    +0.000 NA
ATOM      4  S   UNL     1      25.693  24.800  25.382  0.00  0.00    +0.000 S 
ATOM      5  C   UNL     1      25.069  24.893  26.961  0.00  0.00    +0.000 A 
ATOM      6  C   UNL     1      25.975  24.203  27.700  0.00  0.00    +0.000 A 
ATOM      7  C   UNL     1      25.820  24.022  29.198  0.00  0.00    +0.000 C 
ATOM      8  C   UNL     1      25.424  25.329  29.842  0.00  0.00    +0.000 C 
ATOM      9  C   UNL     1      25.461  26.485  28.869  0.00  0.00    +0.000 C 
ATOM     10  C   UNL     1      24.060  26.676  28.332  0.00  0.00    +0.000 C 
ATOM     11  C   UNL     1      23.801  25.609  27.309  0.00  0.00    +0.000 C 
ENDROOT
BRANCH   1  13
ATOM     12  N   UNL     1      29.227  23.522  28.329  0.00  0.00    +0.000 NA
ATOM     13  C   UNL     1      28.120  22.882  27.712  0.00  0.00    +0.000 C 
ATOM     14  O   UNL     1      28.073  21.638  27.734  0.00  0.00    +0.000 OA
BRANCH  12  21
ATOM     15  C   UNL     1      29.114  23.250  31.125  0.00  0.00    +0.000 C 
ATOM     16  C   UNL     1      30.226  22.674  30.337  0.00  0.00    +0.000 A 
ATOM     17  C   UNL     1      31.234  21.986  30.986  0.00  0.00    +0.000 A 
ATOM     18  C   UNL     1      32.266  21.451  30.258  0.00  0.00    +0.000 A 
ATOM     19  C   UNL     1      32.295  21.599  28.888  0.00  0.00    +0.000 A 
ATOM     20  C   UNL     1      31.298  22.283  28.228  0.00  0.00    +0.000 A 
ATOM     21  C   UNL     1      30.275  22.810  28.969  0.00  0.00    +0.000 A 
ENDBRANCH  12  21
ENDBRANCH   1  13
TORSDOF 2
ENDMDL
