MODEL 1
REMARK VINA RESULT:      -7.2      0.000      0.000
REMARK  Name = 
REMARK  0 active torsions:
REMARK  status: ('A' for Active; 'I' for Inactive)
REMARK                            x       y       z     vdW  Elec       q    Type
REMARK                         _______ _______ _______ _____ _____    ______ ____
ROOT
ATOM      1  C   UNL     1      26.922  23.478  23.057  0.00  0.00    +0.000 C 
ATOM      2  C   UNL     1      27.009  24.134  24.559  0.00  0.00    +0.000 C 
ATOM      3  C   UNL     1      25.702  23.340  25.081  0.00  0.00    +0.000 C 
ATOM      4  C   UNL     1      25.837  23.872  26.492  0.00  0.00    +0.000 A 
ATOM      5  C   UNL     1      25.027  24.811  27.071  0.00  0.00    +0.000 A 
ATOM      6  C   UNL     1      25.336  25.175  28.373  0.00  0.00    +0.000 A 
ATOM      7  O   UNL     1      24.583  26.120  29.067  0.00  0.00    +0.000 OA
ATOM      8  C   UNL     1      26.402  24.629  29.063  0.00  0.00    +0.000 A 
ATOM      9  C   UNL     1      27.185  23.668  28.391  0.00  0.00    +0.000 A 
ATOM     10  C   UNL     1      26.900  23.300  27.122  0.00  0.00    +0.000 A 
ATOM     11  C   UNL     1      27.627  22.273  26.269  0.00  0.00    +0.000 C 
ATOM     12  C   UNL     1      28.970  22.146  27.164  0.00  0.00    +0.000 C 
ATOM     13  C   UNL     1      30.168  22.228  26.323  0.00  0.00    +0.000 C 
ATOM     14  C   UNL     1      30.426  23.583  25.843  0.00  0.00    +0.000 C 
ATOM     15  C   UNL     1      31.479  24.395  26.374  0.00  0.00    +0.000 C 
ATOM     16  C   UNL     1      29.003  24.337  25.938  0.00  0.00    +0.000 C 
ATOM     17  C   UNL     1      29.192  25.353  24.706  0.00  0.00    +0.000 C 
ATOM     18  C   UNL     1      30.498  25.141  24.149  0.00  0.00    +0.000 C 
ATOM     19  C   UNL     1      30.505  23.502  24.213  0.00  0.00    +0.000 C 
ATOM     20  O   UNL     1      32.017  23.422  24.171  0.00  0.00    +0.000 OA
ATOM     21  C   UNL     1      28.240  23.163  25.029  0.00  0.00    +0.000 C 
ENDROOT
TORSDOF 0
ENDMDL
MODEL 2
REMARK VINA RESULT:      -7.1      2.286      3.919
REMARK  Name = 
REMARK  0 active torsions:
REMARK  status: ('A' for Active; 'I' for Inactive)
REMARK                            x       y       z     vdW  Elec       q    Type
REMARK                         _______ _______ _______ _____ _____    ______ ____
ROOT
ATOM      1  C   UNL     1      27.408  22.704  28.945  0.00  0.00    +0.000 C 
ATOM      2  C   UNL     1      27.550  22.766  27.311  0.00  0.00    +0.000 C 
ATOM      3  C   UNL     1      26.166  23.579  27.130  0.00  0.00    +0.000 C 
ATOM      4  C   UNL     1      26.344  23.719  25.634  0.00  0.00    +0.000 A 
ATOM      5  C   UNL     1      25.629  23.046  24.679  0.00  0.00    +0.000 A 
ATOM      6  C   UNL     1      25.963  23.306  23.359  0.00  0.00    +0.000 A 
ATOM      7  O   UNL     1      25.305  22.683  22.300  0.00  0.00    +0.000 OA
ATOM      8  C   UNL     1      26.964  24.194  23.007  0.00  0.00    +0.000 A 
ATOM      9  C   UNL     1      27.650  24.843  24.054  0.00  0.00    +0.000 A 
ATOM     10  C   UNL     1      27.339  24.603  25.347  0.00  0.00    +0.000 A 
ATOM     11  C   UNL     1      27.964  25.230  26.584  0.00  0.00    +0.000 C 
ATOM     12  C   UNL     1      29.281  25.853  25.878  0.00  0.00    +0.000 C 
ATOM     13  C   UNL     1      30.488  25.533  26.647  0.00  0.00    +0.000 C 
ATOM     14  C   UNL     1      30.884  24.134  26.512  0.00  0.00    +0.000 C 
ATOM     15  C   UNL     1      32.010  23.731  25.724  0.00  0.00    +0.000 C 
ATOM     16  C   UNL     1      29.545  23.363  26.052  0.00  0.00    +0.000 C 
ATOM     17  C   UNL     1      29.844  21.940  26.738  0.00  0.00    +0.000 C 
ATOM     18  C   UNL     1      31.126  22.015  27.380  0.00  0.00    +0.000 C 
ATOM     19  C   UNL     1      30.967  23.516  28.022  0.00  0.00    +0.000 C 
ATOM     20  O   UNL     1      32.463  23.713  28.150  0.00  0.00    +0.000 OA
ATOM     21  C   UNL     1      28.674  23.957  27.347  0.00  0.00    +0.000 C 
ENDROOT
TORSDOF 0
ENDMDL
MODEL 3
REMARK VINA RESULT:      -7.0      2.523      4.608
REMARK  Name = 
REMARK  0 active torsions:
REMARK  status: ('A' for Active; 'I' for Inactive)
REMARK                            x       y       z     vdW  Elec       q    Type
REMARK                         _______ _______ _______ _____ _____    ______ ____
ROOT
ATOM      1  C   UNL     1      25.104  25.221  25.294  0.00  0.00    +0.000 C 
ATOM      2  C   UNL     1      26.702  24.855  25.370  0.00  0.00    +0.000 C 
ATOM      3  C   UNL     1      26.426  23.282  25.608  0.00  0.00    +0.000 C 
ATOM      4  C   UNL     1      27.898  22.932  25.583  0.00  0.00    +0.000 A 
ATOM      5  C   UNL     1      28.651  22.572  26.669  0.00  0.00    +0.000 A 
ATOM      6  C   UNL     1      29.991  22.309  26.432  0.00  0.00    +0.000 A 
ATOM      7  O   UNL     1      30.856  21.933  27.458  0.00  0.00    +0.000 OA
ATOM      8  C   UNL     1      30.554  22.399  25.172  0.00  0.00    +0.000 A 
ATOM      9  C   UNL     1      29.706  22.776  24.110  0.00  0.00    +0.000 A 
ATOM     10  C   UNL     1      28.397  23.037  24.321  0.00  0.00    +0.000 A 
ATOM     11  C   UNL     1      27.352  23.433  23.290  0.00  0.00    +0.000 C 
ATOM     12  C   UNL     1      28.361  23.828  22.087  0.00  0.00    +0.000 C 
ATOM     13  C   UNL     1      27.992  25.119  21.498  0.00  0.00    +0.000 C 
ATOM     14  C   UNL     1      28.328  26.247  22.361  0.00  0.00    +0.000 C 
ATOM     15  C   UNL     1      29.430  27.119  22.086  0.00  0.00    +0.000 C 
ATOM     16  C   UNL     1      28.436  25.620  23.843  0.00  0.00    +0.000 C 
ATOM     17  C   UNL     1      27.961  26.908  24.680  0.00  0.00    +0.000 C 
ATOM     18  C   UNL     1      27.709  27.975  23.752  0.00  0.00    +0.000 C 
ATOM     19  C   UNL     1      26.949  27.091  22.598  0.00  0.00    +0.000 C 
ATOM     20  O   UNL     1      27.242  28.103  21.510  0.00  0.00    +0.000 OA
ATOM     21  C   UNL     1      26.910  24.950  23.748  0.00  0.00    +0.000 C 
ENDROOT
TORSDOF 0
ENDMDL
MODEL 4
REMARK VINA RESULT:      -6.8      1.980      5.321
REMARK  Name = 
REMARK  0 active torsions:
REMARK  status: ('A' for Active; 'I' for Inactive)
REMARK                            x       y       z     vdW  Elec       q    Type
REMARK                         _______ _______ _______ _____ _____    ______ ____
ROOT
ATOM      1  C   UNL     1      28.172  22.036  27.986  0.00  0.00    +0.000 C 
ATOM      2  C   UNL     1      29.172  23.156  27.323  0.00  0.00    +0.000 C 
ATOM      3  C   UNL     1      30.436  22.151  27.304  0.00  0.00    +0.000 C 
ATOM      4  C   UNL     1      31.331  23.153  26.607  0.00  0.00    +0.000 A 
ATOM      5  C   UNL     1      32.368  23.834  27.185  0.00  0.00    +0.000 A 
ATOM      6  C   UNL     1      33.053  24.724  26.372  0.00  0.00    +0.000 A 
ATOM      7  O   UNL     1      34.127  25.473  26.848  0.00  0.00    +0.000 OA
ATOM      8  C   UNL     1      32.720  24.924  25.045  0.00  0.00    +0.000 A 
ATOM      9  C   UNL     1      31.637  24.181  24.530  0.00  0.00    +0.000 A 
ATOM     10  C   UNL     1      30.958  23.309  25.307  0.00  0.00    +0.000 A 
ATOM     11  C   UNL     1      29.789  22.423  24.904  0.00  0.00    +0.000 C 
ATOM     12  C   UNL     1      29.416  23.162  23.512  0.00  0.00    +0.000 C 
ATOM     13  C   UNL     1      27.974  23.408  23.421  0.00  0.00    +0.000 C 
ATOM     14  C   UNL     1      27.532  24.490  24.296  0.00  0.00    +0.000 C 
ATOM     15  C   UNL     1      27.173  25.782  23.794  0.00  0.00    +0.000 C 
ATOM     16  C   UNL     1      28.674  24.601  25.430  0.00  0.00    +0.000 C 
ATOM     17  C   UNL     1      27.750  25.104  26.646  0.00  0.00    +0.000 C 
ATOM     18  C   UNL     1      26.407  25.244  26.158  0.00  0.00    +0.000 C 
ATOM     19  C   UNL     1      26.356  23.878  25.251  0.00  0.00    +0.000 C 
ATOM     20  O   UNL     1      25.223  24.392  24.387  0.00  0.00    +0.000 OA
ATOM     21  C   UNL     1      28.543  22.984  25.821  0.00  0.00    +0.000 C 
ENDROOT
TORSDOF 0
ENDMDL
MODEL 5
REMARK VINA RESULT:      -6.7      1.458      5.443
REMARK  Name = 
REMARK  0 active torsions:
REMARK  status: ('A' for Active; 'I' for Inactive)
REMARK                            x       y       z     vdW  Elec       q    Type
REMARK                         _______ _______ _______ _____ _____    ______ ____
ROOT
ATOM      1  C   UNL     1      26.795  23.008  28.820  0.00  0.00    +0.000 C 
ATOM      2  C   UNL     1      27.706  23.560  27.571  0.00  0.00    +0.000 C 
ATOM      3  C   UNL     1      28.267  22.090  27.209  0.00  0.00    +0.000 C 
ATOM      4  C   UNL     1      29.032  22.585  26.000  0.00  0.00    +0.000 A 
ATOM      5  C   UNL     1      30.393  22.707  25.912  0.00  0.00    +0.000 A 
ATOM      6  C   UNL     1      30.893  23.200  24.717  0.00  0.00    +0.000 A 
ATOM      7  O   UNL     1      32.260  23.369  24.509  0.00  0.00    +0.000 OA
ATOM      8  C   UNL     1      30.075  23.555  23.660  0.00  0.00    +0.000 A 
ATOM      9  C   UNL     1      28.685  23.397  23.836  0.00  0.00    +0.000 A 
ATOM     10  C   UNL     1      28.178  22.918  24.993  0.00  0.00    +0.000 A 
ATOM     11  C   UNL     1      26.717  22.670  25.335  0.00  0.00    +0.000 C 
ATOM     12  C   UNL     1      26.056  23.522  24.127  0.00  0.00    +0.000 C 
ATOM     13  C   UNL     1      24.995  24.401  24.626  0.00  0.00    +0.000 C 
ATOM     14  C   UNL     1      25.515  25.549  25.362  0.00  0.00    +0.000 C 
ATOM     15  C   UNL     1      25.521  26.872  24.812  0.00  0.00    +0.000 C 
ATOM     16  C   UNL     1      26.994  25.107  25.833  0.00  0.00    +0.000 C 
ATOM     17  C   UNL     1      27.070  25.954  27.197  0.00  0.00    +0.000 C 
ATOM     18  C   UNL     1      25.850  26.700  27.328  0.00  0.00    +0.000 C 
ATOM     19  C   UNL     1      24.816  25.525  26.838  0.00  0.00    +0.000 C 
ATOM     20  O   UNL     1      23.730  26.515  26.472  0.00  0.00    +0.000 OA
ATOM     21  C   UNL     1      26.423  23.721  26.566  0.00  0.00    +0.000 C 
ENDROOT
TORSDOF 0
ENDMDL
MODEL 6
REMARK VINA RESULT:      -6.5      2.408      3.581
REMARK  Name = 
REMARK  0 active torsions:
REMARK  status: ('A' for Active; 'I' for Inactive)
REMARK                            x       y       z     vdW  Elec       q    Type
REMARK                         _______ _______ _______ _____ _____    ______ ____
ROOT
ATOM      1  C   UNL     1      24.670  26.933  25.446  0.00  0.00    +0.000 C 
ATOM      2  C   UNL     1      25.888  25.954  25.949  0.00  0.00    +0.000 C 
ATOM      3  C   UNL     1      24.877  24.885  26.616  0.00  0.00    +0.000 C 
ATOM      4  C   UNL     1      25.994  23.937  26.996  0.00  0.00    +0.000 A 
ATOM      5  C   UNL     1      26.456  23.717  28.266  0.00  0.00    +0.000 A 
ATOM      6  C   UNL     1      27.504  22.819  28.396  0.00  0.00    +0.000 A 
ATOM      7  O   UNL     1      28.057  22.513  29.638  0.00  0.00    +0.000 OA
ATOM      8  C   UNL     1      28.065  22.172  27.311  0.00  0.00    +0.000 A 
ATOM      9  C   UNL     1      27.529  22.457  26.038  0.00  0.00    +0.000 A 
ATOM     10  C   UNL     1      26.508  23.329  25.891  0.00  0.00    +0.000 A 
ATOM     11  C   UNL     1      25.807  23.730  24.602  0.00  0.00    +0.000 C 
ATOM     12  C   UNL     1      26.905  23.153  23.561  0.00  0.00    +0.000 C 
ATOM     13  C   UNL     1      27.222  24.147  22.531  0.00  0.00    +0.000 C 
ATOM     14  C   UNL     1      28.045  25.240  23.040  0.00  0.00    +0.000 C 
ATOM     15  C   UNL     1      29.438  25.359  22.726  0.00  0.00    +0.000 C 
ATOM     16  C   UNL     1      27.805  25.236  24.635  0.00  0.00    +0.000 C 
ATOM     17  C   UNL     1      27.999  26.809  24.906  0.00  0.00    +0.000 C 
ATOM     18  C   UNL     1      28.315  27.442  23.657  0.00  0.00    +0.000 C 
ATOM     19  C   UNL     1      27.246  26.628  22.717  0.00  0.00    +0.000 C 
ATOM     20  O   UNL     1      28.015  26.915  21.445  0.00  0.00    +0.000 OA
ATOM     21  C   UNL     1      26.149  25.332  24.457  0.00  0.00    +0.000 C 
ENDROOT
TORSDOF 0
ENDMDL
MODEL 7
REMARK VINA RESULT:      -6.4     33.162     34.744
REMARK  Name = 
REMARK  0 active torsions:
REMARK  status: ('A' for Active; 'I' for Inactive)
REMARK                            x       y       z     vdW  Elec       q    Type
REMARK                         _______ _______ _______ _____ _____    ______ ____
ROOT
ATOM      1  C   UNL     1      21.320 -10.964  27.240  0.00  0.00    +0.000 C 
ATOM      2  C   UNL     1      20.432  -9.613  27.525  0.00  0.00    +0.000 C 
ATOM      3  C   UNL     1      20.236  -9.299  25.953  0.00  0.00    +0.000 C 
ATOM      4  C   UNL     1      19.340  -8.108  26.215  0.00  0.00    +0.000 A 
ATOM      5  C   UNL     1      19.687  -6.795  26.043  0.00  0.00    +0.000 A 
ATOM      6  C   UNL     1      18.720  -5.853  26.360  0.00  0.00    +0.000 A 
ATOM      7  O   UNL     1      18.956  -4.486  26.225  0.00  0.00    +0.000 OA
ATOM      8  C   UNL     1      17.467  -6.204  26.827  0.00  0.00    +0.000 A 
ATOM      9  C   UNL     1      17.193  -7.580  26.974  0.00  0.00    +0.000 A 
ATOM     10  C   UNL     1      18.122  -8.512  26.671  0.00  0.00    +0.000 A 
ATOM     11  C   UNL     1      17.981 -10.024  26.754  0.00  0.00    +0.000 C 
ATOM     12  C   UNL     1      16.644 -10.076  27.666  0.00  0.00    +0.000 C 
ATOM     13  C   UNL     1      16.802 -11.024  28.773  0.00  0.00    +0.000 C 
ATOM     14  C   UNL     1      17.687 -10.523  29.820  0.00  0.00    +0.000 C 
ATOM     15  C   UNL     1      17.193 -10.061  31.082  0.00  0.00    +0.000 C 
ATOM     16  C   UNL     1      18.590  -9.397  29.099  0.00  0.00    +0.000 C 
ATOM     17  C   UNL     1      19.925  -9.568  29.977  0.00  0.00    +0.000 C 
ATOM     18  C   UNL     1      19.681 -10.577  30.970  0.00  0.00    +0.000 C 
ATOM     19  C   UNL     1      18.867 -11.635  30.017  0.00  0.00    +0.000 C 
ATOM     20  O   UNL     1      18.198 -12.313  31.194  0.00  0.00    +0.000 OA
ATOM     21  C   UNL     1      19.078 -10.453  27.903  0.00  0.00    +0.000 C 
ENDROOT
TORSDOF 0
ENDMDL
MODEL 8
REMARK VINA RESULT:      -6.4      1.940      2.941
REMARK  Name = 
REMARK  0 active torsions:
REMARK  status: ('A' for Active; 'I' for Inactive)
REMARK                            x       y       z     vdW  Elec       q    Type
REMARK                         _______ _______ _______ _____ _____    ______ ____
ROOT
ATOM      1  C   UNL     1      26.523  27.964  23.588  0.00  0.00    +0.000 C 
ATOM      2  C   UNL     1      26.786  26.941  24.844  0.00  0.00    +0.000 C 
ATOM      3  C   UNL     1      25.273  27.077  25.393  0.00  0.00    +0.000 C 
ATOM      4  C   UNL     1      25.490  26.062  26.494  0.00  0.00    +0.000 A 
ATOM      5  C   UNL     1      25.592  26.344  27.830  0.00  0.00    +0.000 A 
ATOM      6  C   UNL     1      25.809  25.266  28.674  0.00  0.00    +0.000 A 
ATOM      7  O   UNL     1      25.930  25.428  30.053  0.00  0.00    +0.000 OA
ATOM      8  C   UNL     1      25.920  23.969  28.208  0.00  0.00    +0.000 A 
ATOM      9  C   UNL     1      25.802  23.768  26.817  0.00  0.00    +0.000 A 
ATOM     10  C   UNL     1      25.590  24.806  25.979  0.00  0.00    +0.000 A 
ATOM     11  C   UNL     1      25.421  24.758  24.468  0.00  0.00    +0.000 C 
ATOM     12  C   UNL     1      25.984  23.260  24.226  0.00  0.00    +0.000 C 
ATOM     13  C   UNL     1      26.950  23.235  23.123  0.00  0.00    +0.000 C 
ATOM     14  C   UNL     1      28.233  23.828  23.487  0.00  0.00    +0.000 C 
ATOM     15  C   UNL     1      29.401  23.034  23.729  0.00  0.00    +0.000 C 
ATOM     16  C   UNL     1      27.909  24.785  24.744  0.00  0.00    +0.000 C 
ATOM     17  C   UNL     1      29.037  25.901  24.488  0.00  0.00    +0.000 C 
ATOM     18  C   UNL     1      29.791  25.515  23.329  0.00  0.00    +0.000 C 
ATOM     19  C   UNL     1      28.535  25.011  22.403  0.00  0.00    +0.000 C 
ATOM     20  O   UNL     1      29.417  24.147  21.526  0.00  0.00    +0.000 OA
ATOM     21  C   UNL     1      26.718  25.601  23.906  0.00  0.00    +0.000 C 
ENDROOT
TORSDOF 0
ENDMDL
MODEL 9
REMARK VINA RESULT:      -6.4     21.358     23.142
REMARK  Name = 
REMARK  0 active torsions:
REMARK  status: ('A' for Active; 'I' for Inactive)
REMARK                            x       y       z     vdW  Elec       q    Type
REMARK                         _______ _______ _______ _____ _____    ______ ____
ROOT
ATOM      1  C   UNL     1      36.055   2.677  38.740  0.00  0.00    +0.000 C 
ATOM      2  C   UNL     1      35.730   3.356  37.282  0.00  0.00    +0.000 C 
ATOM      3  C   UNL     1      34.296   2.624  37.157  0.00  0.00    +0.000 C 
ATOM      4  C   UNL     1      33.955   3.323  35.859  0.00  0.00    +0.000 A 
ATOM      5  C   UNL     1      33.932   2.739  34.621  0.00  0.00    +0.000 A 
ATOM      6  C   UNL     1      33.612   3.564  33.554  0.00  0.00    +0.000 A 
ATOM      7  O   UNL     1      33.555   3.084  32.247  0.00  0.00    +0.000 OA
ATOM      8  C   UNL     1      33.329   4.909  33.714  0.00  0.00    +0.000 A 
ATOM      9  C   UNL     1      33.376   5.428  35.024  0.00  0.00    +0.000 A 
ATOM     10  C   UNL     1      33.686   4.640  36.077  0.00  0.00    +0.000 A 
ATOM     11  C   UNL     1      33.761   5.036  37.543  0.00  0.00    +0.000 C 
ATOM     12  C   UNL     1      33.786   6.642  37.341  0.00  0.00    +0.000 C 
ATOM     13  C   UNL     1      34.847   7.254  38.147  0.00  0.00    +0.000 C 
ATOM     14  C   UNL     1      36.179   7.006  37.605  0.00  0.00    +0.000 C 
ATOM     15  C   UNL     1      36.933   8.023  36.935  0.00  0.00    +0.000 C 
ATOM     16  C   UNL     1      36.015   5.696  36.679  0.00  0.00    +0.000 C 
ATOM     17  C   UNL     1      37.491   5.088  36.866  0.00  0.00    +0.000 C 
ATOM     18  C   UNL     1      38.238   5.981  37.707  0.00  0.00    +0.000 C 
ATOM     19  C   UNL     1      37.054   6.307  38.794  0.00  0.00    +0.000 C 
ATOM     20  O   UNL     1      37.702   7.600  39.241  0.00  0.00    +0.000 OA
ATOM     21  C   UNL     1      35.345   4.811  37.926  0.00  0.00    +0.000 C 
ENDROOT
TORSDOF 0
ENDMDL
MODEL 10
REMARK VINA RESULT:      -6.3      2.638      4.958
REMARK  Name = 
REMARK  0 active torsions:
REMARK  status: ('A' for Active; 'I' for Inactive)
REMARK                            x       y       z     vdW  Elec       q    Type
REMARK                         _______ _______ _______ _____ _____    ______ ____
ROOT
ATOM      1  C   UNL     1      31.366  26.618  26.790  0.00  0.00    +0.000 C 
ATOM      2  C   UNL     1      30.173  25.957  25.877  0.00  0.00    +0.000 C 
ATOM      3  C   UNL     1      31.024  26.077  24.510  0.00  0.00    +0.000 C 
ATOM      4  C   UNL     1      29.962  25.381  23.686  0.00  0.00    +0.000 A 
ATOM      5  C   UNL     1      29.138  25.985  22.775  0.00  0.00    +0.000 A 
ATOM      6  C   UNL     1      28.217  25.167  22.138  0.00  0.00    +0.000 A 
ATOM      7  O   UNL     1      27.325  25.667  21.191  0.00  0.00    +0.000 OA
ATOM      8  C   UNL     1      28.122  23.812  22.399  0.00  0.00    +0.000 A 
ATOM      9  C   UNL     1      29.010  23.273  23.352  0.00  0.00    +0.000 A 
ATOM     10  C   UNL     1      29.915  24.054  23.983  0.00  0.00    +0.000 A 
ATOM     11  C   UNL     1      30.949  23.628  25.014  0.00  0.00    +0.000 C 
ATOM     12  C   UNL     1      30.328  22.175  25.369  0.00  0.00    +0.000 C 
ATOM     13  C   UNL     1      30.255  21.978  26.820  0.00  0.00    +0.000 C 
ATOM     14  C   UNL     1      29.189  22.760  27.440  0.00  0.00    +0.000 C 
ATOM     15  C   UNL     1      27.974  22.162  27.905  0.00  0.00    +0.000 C 
ATOM     16  C   UNL     1      28.890  23.956  26.400  0.00  0.00    +0.000 C 
ATOM     17  C   UNL     1      28.438  25.079  27.457  0.00  0.00    +0.000 C 
ATOM     18  C   UNL     1      28.479  24.499  28.770  0.00  0.00    +0.000 C 
ATOM     19  C   UNL     1      29.884  23.671  28.604  0.00  0.00    +0.000 C 
ATOM     20  O   UNL     1      29.548  22.709  29.724  0.00  0.00    +0.000 OA
ATOM     21  C   UNL     1      30.491  24.430  26.376  0.00  0.00    +0.000 C 
ENDROOT
TORSDOF 0
ENDMDL
