MODEL 1
REMARK VINA RESULT:      -7.9      0.000      0.000
REMARK  Name = 
REMARK  8 active torsions:
REMARK  status: ('A' for Active; 'I' for Inactive)
REMARK    1  A    between atoms: O_2  and  C_3
REMARK    2  A    between atoms: C_6  and  C_7
REMARK    3  A    between atoms: N_8  and  N_9
REMARK    4  A    between atoms: C_10  and  C_12
REMARK    5  A    between atoms: C_15  and  C_16
REMARK    6  A    between atoms: C_16  and  O_17
REMARK    7  A    between atoms: O_17  and  C_18
REMARK    8  A    between atoms: C_21  and  C_22
REMARK                            x       y       z     vdW  Elec       q    Type
REMARK                         _______ _______ _______ _____ _____    ______ ____
ROOT
ATOM      1  C   UNL     1      35.259  -0.101  16.704  0.00  0.00    +0.000 A 
ATOM      2  C   UNL     1      34.726  -0.980  17.623  0.00  0.00    +0.000 A 
ATOM      3  C   UNL     1      34.832  -2.273  17.089  0.00  0.00    +0.000 A 
ATOM      4  C   UNL     1      35.429  -2.134  15.855  0.00  0.00    +0.000 A 
ATOM      5  O   UNL     1      35.649  -0.839  15.694  0.00  0.00    +0.000 OA
ENDROOT
BRANCH   1   7
ATOM      6  N   UNL     1      36.603   1.931  17.057  0.00  0.00    +0.000 NA
ATOM      7  C   UNL     1      35.388   1.374  16.775  0.00  0.00    +0.000 C 
ATOM      8  O   UNL     1      34.392   2.092  16.580  0.00  0.00    +0.000 OA
BRANCH   6  10
ATOM      9  C   UNL     1      37.707   4.049  16.734  0.00  0.00    +0.000 C 
ATOM     10  N   UNL     1      37.208   3.067  17.236  0.00  0.00    +0.000 NA
BRANCH   9  14
ATOM     11  C   UNL     1      39.617   7.362  18.721  0.00  0.00    +0.000 A 
ATOM     12  C   UNL     1      38.930   7.538  17.525  0.00  0.00    +0.000 A 
ATOM     13  C   UNL     1      38.298   6.481  16.872  0.00  0.00    +0.000 A 
ATOM     14  C   UNL     1      38.344   5.195  17.409  0.00  0.00    +0.000 A 
ATOM     15  C   UNL     1      39.025   5.037  18.589  0.00  0.00    +0.000 A 
ATOM     16  C   UNL     1      39.654   6.085  19.248  0.00  0.00    +0.000 A 
BRANCH  11  18
ATOM     17  C   UNL     1      39.426   9.509  19.879  0.00  0.00    +0.000 C 
ATOM     18  O   UNL     1      40.246   8.451  19.352  0.00  0.00    +0.000 OA
ENDBRANCH  11  18
ENDBRANCH   9  14
ENDBRANCH   6  10
ENDBRANCH   1   7
BRANCH   4  19
ATOM     19  C   UNL     1      35.776  -3.183  14.863  0.00  0.00    +0.000 C 
BRANCH  19  20
ATOM     20  O   UNL     1      37.037  -3.517  14.702  0.00  0.00    +0.000 OA
BRANCH  20  21
ATOM     21  C   UNL     1      38.220  -2.966  14.336  0.00  0.00    +0.000 A 
ATOM     22  C   UNL     1      38.659  -2.671  13.054  0.00  0.00    +0.000 A 
ATOM     23  C   UNL     1      39.890  -2.084  12.779  0.00  0.00    +0.000 A 
ATOM     24  C   UNL     1      40.754  -1.767  13.826  0.00  0.00    +0.000 A 
ATOM     25  C   UNL     1      40.335  -2.056  15.124  0.00  0.00    +0.000 A 
ATOM     26  C   UNL     1      39.122  -2.631  15.360  0.00  0.00    +0.000 A 
BRANCH  24  27
ATOM     27  C   UNL     1      42.033  -1.117  13.508  0.00  0.00    +0.000 C 
ATOM     28  C   UNL     1      43.028  -1.515  14.613  0.00  0.00    +0.000 C 
ATOM     29  C   UNL     1      42.595  -1.553  12.176  0.00  0.00    +0.000 C 
ATOM     30  C   UNL     1      41.906   0.400  13.599  0.00  0.00    +0.000 C 
ENDBRANCH  24  27
ENDBRANCH  20  21
ENDBRANCH  19  20
ENDBRANCH   4  19
TORSDOF 8
ENDMDL
MODEL 2
REMARK VINA RESULT:      -7.8      1.608      1.983
REMARK  Name = 
REMARK  8 active torsions:
REMARK  status: ('A' for Active; 'I' for Inactive)
REMARK    1  A    between atoms: O_2  and  C_3
REMARK    2  A    between atoms: C_6  and  C_7
REMARK    3  A    between atoms: N_8  and  N_9
REMARK    4  A    between atoms: C_10  and  C_12
REMARK    5  A    between atoms: C_15  and  C_16
REMARK    6  A    between atoms: C_16  and  O_17
REMARK    7  A    between atoms: O_17  and  C_18
REMARK    8  A    between atoms: C_21  and  C_22
REMARK                            x       y       z     vdW  Elec       q    Type
REMARK                         _______ _______ _______ _____ _____    ______ ____
ROOT
ATOM      1  C   UNL     1      35.931   1.250  17.029  0.00  0.00    +0.000 A 
ATOM      2  C   UNL     1      34.654   0.744  16.920  0.00  0.00    +0.000 A 
ATOM      3  C   UNL     1      34.736  -0.653  17.027  0.00  0.00    +0.000 A 
ATOM      4  C   UNL     1      36.071  -0.949  17.199  0.00  0.00    +0.000 A 
ATOM      5  O   UNL     1      36.712   0.209  17.189  0.00  0.00    +0.000 OA
ENDROOT
BRANCH   1   7
ATOM      6  N   UNL     1      37.522   3.018  17.663  0.00  0.00    +0.000 NA
ATOM      7  C   UNL     1      36.397   2.656  16.980  0.00  0.00    +0.000 C 
ATOM      8  O   UNL     1      35.759   3.495  16.320  0.00  0.00    +0.000 OA
BRANCH   6  10
ATOM      9  C   UNL     1      38.700   5.120  17.615  0.00  0.00    +0.000 C 
ATOM     10  N   UNL     1      38.288   4.030  17.942  0.00  0.00    +0.000 NA
BRANCH   9  14
ATOM     11  C   UNL     1      41.509   7.608  19.736  0.00  0.00    +0.000 A 
ATOM     12  C   UNL     1      41.830   7.046  18.505  0.00  0.00    +0.000 A 
ATOM     13  C   UNL     1      40.933   6.245  17.800  0.00  0.00    +0.000 A 
ATOM     14  C   UNL     1      39.667   5.980  18.322  0.00  0.00    +0.000 A 
ATOM     15  C   UNL     1      39.365   6.542  19.536  0.00  0.00    +0.000 A 
ATOM     16  C   UNL     1      40.251   7.343  20.243  0.00  0.00    +0.000 A 
BRANCH  11  18
ATOM     17  C   UNL     1      43.452   7.763  21.215  0.00  0.00    +0.000 C 
ATOM     18  O   UNL     1      42.440   8.409  20.422  0.00  0.00    +0.000 OA
ENDBRANCH  11  18
ENDBRANCH   9  14
ENDBRANCH   6  10
ENDBRANCH   1   7
BRANCH   4  19
ATOM     19  C   UNL     1      36.717  -2.276  17.365  0.00  0.00    +0.000 C 
BRANCH  19  20
ATOM     20  O   UNL     1      37.554  -2.698  16.444  0.00  0.00    +0.000 OA
BRANCH  20  21
ATOM     21  C   UNL     1      38.646  -2.278  15.760  0.00  0.00    +0.000 A 
ATOM     22  C   UNL     1      38.792  -1.110  15.028  0.00  0.00    +0.000 A 
ATOM     23  C   UNL     1      39.967  -0.755  14.372  0.00  0.00    +0.000 A 
ATOM     24  C   UNL     1      41.074  -1.601  14.432  0.00  0.00    +0.000 A 
ATOM     25  C   UNL     1      40.950  -2.783  15.161  0.00  0.00    +0.000 A 
ATOM     26  C   UNL     1      39.785  -3.101  15.791  0.00  0.00    +0.000 A 
BRANCH  24  27
ATOM     27  C   UNL     1      42.312  -1.185  13.758  0.00  0.00    +0.000 C 
ATOM     28  C   UNL     1      43.483  -1.632  14.650  0.00  0.00    +0.000 C 
ATOM     29  C   UNL     1      42.476  -1.816  12.396  0.00  0.00    +0.000 C 
ATOM     30  C   UNL     1      42.406   0.336  13.691  0.00  0.00    +0.000 C 
ENDBRANCH  24  27
ENDBRANCH  20  21
ENDBRANCH  19  20
ENDBRANCH   4  19
TORSDOF 8
ENDMDL
MODEL 3
REMARK VINA RESULT:      -7.4      3.076     10.133
REMARK  Name = 
REMARK  8 active torsions:
REMARK  status: ('A' for Active; 'I' for Inactive)
REMARK    1  A    between atoms: O_2  and  C_3
REMARK    2  A    between atoms: C_6  and  C_7
REMARK    3  A    between atoms: N_8  and  N_9
REMARK    4  A    between atoms: C_10  and  C_12
REMARK    5  A    between atoms: C_15  and  C_16
REMARK    6  A    between atoms: C_16  and  O_17
REMARK    7  A    between atoms: O_17  and  C_18
REMARK    8  A    between atoms: C_21  and  C_22
REMARK                            x       y       z     vdW  Elec       q    Type
REMARK                         _______ _______ _______ _____ _____    ______ ____
ROOT
ATOM      1  C   UNL     1      38.809   1.365  14.834  0.00  0.00    +0.000 A 
ATOM      2  C   UNL     1      39.802   2.057  14.174  0.00  0.00    +0.000 A 
ATOM      3  C   UNL     1      39.571   3.427  14.369  0.00  0.00    +0.000 A 
ATOM      4  C   UNL     1      38.438   3.521  15.147  0.00  0.00    +0.000 A 
ATOM      5  O   UNL     1      38.044   2.279  15.380  0.00  0.00    +0.000 OA
ENDROOT
BRANCH   1   7
ATOM      6  N   UNL     1      37.320  -0.577  15.095  0.00  0.00    +0.000 NA
ATOM      7  C   UNL     1      38.589  -0.097  14.940  0.00  0.00    +0.000 C 
ATOM      8  O   UNL     1      39.558  -0.873  14.889  0.00  0.00    +0.000 OA
BRANCH   6  10
ATOM      9  C   UNL     1      35.624  -2.196  15.652  0.00  0.00    +0.000 C 
ATOM     10  N   UNL     1      36.634  -1.672  15.242  0.00  0.00    +0.000 NA
BRANCH   9  14
ATOM     11  C   UNL     1      34.506  -6.352  15.416  0.00  0.00    +0.000 A 
ATOM     12  C   UNL     1      35.620  -5.946  16.141  0.00  0.00    +0.000 A 
ATOM     13  C   UNL     1      35.994  -4.606  16.237  0.00  0.00    +0.000 A 
ATOM     14  C   UNL     1      35.246  -3.620  15.592  0.00  0.00    +0.000 A 
ATOM     15  C   UNL     1      34.150  -4.037  14.882  0.00  0.00    +0.000 A 
ATOM     16  C   UNL     1      33.769  -5.368  14.784  0.00  0.00    +0.000 A 
BRANCH  11  18
ATOM     17  C   UNL     1      34.187  -8.501  16.542  0.00  0.00    +0.000 C 
ATOM     18  O   UNL     1      34.159  -7.713  15.338  0.00  0.00    +0.000 OA
ENDBRANCH  11  18
ENDBRANCH   9  14
ENDBRANCH   6  10
ENDBRANCH   1   7
BRANCH   4  19
ATOM     19  C   UNL     1      37.750   4.737  15.650  0.00  0.00    +0.000 C 
BRANCH  19  20
ATOM     20  O   UNL     1      38.123   5.253  16.800  0.00  0.00    +0.000 OA
BRANCH  20  21
ATOM     21  C   UNL     1      39.249   5.641  17.448  0.00  0.00    +0.000 A 
ATOM     22  C   UNL     1      40.469   5.995  16.894  0.00  0.00    +0.000 A 
ATOM     23  C   UNL     1      41.567   6.400  17.646  0.00  0.00    +0.000 A 
ATOM     24  C   UNL     1      41.468   6.460  19.036  0.00  0.00    +0.000 A 
ATOM     25  C   UNL     1      40.251   6.106  19.616  0.00  0.00    +0.000 A 
ATOM     26  C   UNL     1      39.195   5.714  18.851  0.00  0.00    +0.000 A 
BRANCH  24  27
ATOM     27  C   UNL     1      42.634   6.923  19.802  0.00  0.00    +0.000 C 
ATOM     28  C   UNL     1      42.368   8.390  20.182  0.00  0.00    +0.000 C 
ATOM     29  C   UNL     1      42.853   6.130  21.068  0.00  0.00    +0.000 C 
ATOM     30  C   UNL     1      43.882   6.946  18.927  0.00  0.00    +0.000 C 
ENDBRANCH  24  27
ENDBRANCH  20  21
ENDBRANCH  19  20
ENDBRANCH   4  19
TORSDOF 8
ENDMDL
MODEL 4
REMARK VINA RESULT:      -7.3      1.630      2.278
REMARK  Name = 
REMARK  8 active torsions:
REMARK  status: ('A' for Active; 'I' for Inactive)
REMARK    1  A    between atoms: O_2  and  C_3
REMARK    2  A    between atoms: C_6  and  C_7
REMARK    3  A    between atoms: N_8  and  N_9
REMARK    4  A    between atoms: C_10  and  C_12
REMARK    5  A    between atoms: C_15  and  C_16
REMARK    6  A    between atoms: C_16  and  O_17
REMARK    7  A    between atoms: O_17  and  C_18
REMARK    8  A    between atoms: C_21  and  C_22
REMARK                            x       y       z     vdW  Elec       q    Type
REMARK                         _______ _______ _______ _____ _____    ______ ____
ROOT
ATOM      1  C   UNL     1      36.679   1.374  15.266  0.00  0.00    +0.000 A 
ATOM      2  C   UNL     1      36.873   1.364  13.902  0.00  0.00    +0.000 A 
ATOM      3  C   UNL     1      36.929   0.024  13.487  0.00  0.00    +0.000 A 
ATOM      4  C   UNL     1      36.766  -0.738  14.623  0.00  0.00    +0.000 A 
ATOM      5  O   UNL     1      36.627   0.114  15.626  0.00  0.00    +0.000 OA
ENDROOT
BRANCH   1   7
ATOM      6  N   UNL     1      37.666   3.234  16.541  0.00  0.00    +0.000 NA
ATOM      7  C   UNL     1      36.553   2.524  16.193  0.00  0.00    +0.000 C 
ATOM      8  O   UNL     1      35.438   2.832  16.647  0.00  0.00    +0.000 OA
BRANCH   6  10
ATOM      9  C   UNL     1      39.018   4.854  17.706  0.00  0.00    +0.000 C 
ATOM     10  N   UNL     1      38.078   4.232  17.265  0.00  0.00    +0.000 NA
BRANCH   9  14
ATOM     11  C   UNL     1      39.016   8.323  20.264  0.00  0.00    +0.000 A 
ATOM     12  C   UNL     1      38.053   8.155  19.276  0.00  0.00    +0.000 A 
ATOM     13  C   UNL     1      38.030   7.036  18.444  0.00  0.00    +0.000 A 
ATOM     14  C   UNL     1      38.996   6.039  18.582  0.00  0.00    +0.000 A 
ATOM     15  C   UNL     1      39.939   6.218  19.562  0.00  0.00    +0.000 A 
ATOM     16  C   UNL     1      39.966   7.327  20.396  0.00  0.00    +0.000 A 
BRANCH  11  18
ATOM     17  C   UNL     1      39.822  10.591  20.704  0.00  0.00    +0.000 C 
ATOM     18  O   UNL     1      39.010   9.466  21.084  0.00  0.00    +0.000 OA
ENDBRANCH  11  18
ENDBRANCH   9  14
ENDBRANCH   6  10
ENDBRANCH   1   7
BRANCH   4  19
ATOM     19  C   UNL     1      36.745  -2.217  14.758  0.00  0.00    +0.000 C 
BRANCH  19  20
ATOM     20  O   UNL     1      37.834  -2.899  14.483  0.00  0.00    +0.000 OA
BRANCH  20  21
ATOM     21  C   UNL     1      39.117  -2.698  14.095  0.00  0.00    +0.000 A 
ATOM     22  C   UNL     1      40.218  -2.447  14.900  0.00  0.00    +0.000 A 
ATOM     23  C   UNL     1      41.507  -2.271  14.406  0.00  0.00    +0.000 A 
ATOM     24  C   UNL     1      41.736  -2.341  13.032  0.00  0.00    +0.000 A 
ATOM     25  C   UNL     1      40.643  -2.590  12.203  0.00  0.00    +0.000 A 
ATOM     26  C   UNL     1      39.393  -2.757  12.718  0.00  0.00    +0.000 A 
BRANCH  24  27
ATOM     27  C   UNL     1      43.113  -2.184  12.542  0.00  0.00    +0.000 C 
ATOM     28  C   UNL     1      43.785  -1.114  13.420  0.00  0.00    +0.000 C 
ATOM     29  C   UNL     1      43.916  -3.459  12.638  0.00  0.00    +0.000 C 
ATOM     30  C   UNL     1      43.121  -1.616  11.127  0.00  0.00    +0.000 C 
ENDBRANCH  24  27
ENDBRANCH  20  21
ENDBRANCH  19  20
ENDBRANCH   4  19
TORSDOF 8
ENDMDL
MODEL 5
REMARK VINA RESULT:      -7.2      3.641      4.796
REMARK  Name = 
REMARK  8 active torsions:
REMARK  status: ('A' for Active; 'I' for Inactive)
REMARK    1  A    between atoms: O_2  and  C_3
REMARK    2  A    between atoms: C_6  and  C_7
REMARK    3  A    between atoms: N_8  and  N_9
REMARK    4  A    between atoms: C_10  and  C_12
REMARK    5  A    between atoms: C_15  and  C_16
REMARK    6  A    between atoms: C_16  and  O_17
REMARK    7  A    between atoms: O_17  and  C_18
REMARK    8  A    between atoms: C_21  and  C_22
REMARK                            x       y       z     vdW  Elec       q    Type
REMARK                         _______ _______ _______ _____ _____    ______ ____
ROOT
ATOM      1  C   UNL     1      36.044   0.796  17.463  0.00  0.00    +0.000 A 
ATOM      2  C   UNL     1      35.928   0.393  18.776  0.00  0.00    +0.000 A 
ATOM      3  C   UNL     1      35.682  -0.988  18.780  0.00  0.00    +0.000 A 
ATOM      4  C   UNL     1      35.656  -1.380  17.459  0.00  0.00    +0.000 A 
ATOM      5  O   UNL     1      35.874  -0.287  16.744  0.00  0.00    +0.000 OA
ENDROOT
BRANCH   1   7
ATOM      6  N   UNL     1      35.694   2.524  15.745  0.00  0.00    +0.000 NA
ATOM      7  C   UNL     1      36.299   2.147  16.910  0.00  0.00    +0.000 C 
ATOM      8  O   UNL     1      37.063   2.925  17.507  0.00  0.00    +0.000 OA
BRANCH   6  10
ATOM      9  C   UNL     1      36.146   4.408  14.312  0.00  0.00    +0.000 C 
ATOM     10  N   UNL     1      35.595   3.501  14.894  0.00  0.00    +0.000 NA
BRANCH   9  14
ATOM     11  C   UNL     1      34.460   7.131  11.428  0.00  0.00    +0.000 A 
ATOM     12  C   UNL     1      33.937   7.026  12.712  0.00  0.00    +0.000 A 
ATOM     13  C   UNL     1      34.474   6.158  13.662  0.00  0.00    +0.000 A 
ATOM     14  C   UNL     1      35.567   5.354  13.341  0.00  0.00    +0.000 A 
ATOM     15  C   UNL     1      36.072   5.469  12.071  0.00  0.00    +0.000 A 
ATOM     16  C   UNL     1      35.546   6.334  11.120  0.00  0.00    +0.000 A 
BRANCH  11  18
ATOM     17  C   UNL     1      34.406   8.022   9.150  0.00  0.00    +0.000 C 
ATOM     18  O   UNL     1      33.892   8.016  10.494  0.00  0.00    +0.000 OA
ENDBRANCH  11  18
ENDBRANCH   9  14
ENDBRANCH   6  10
ENDBRANCH   1   7
BRANCH   4  19
ATOM     19  C   UNL     1      35.433  -2.734  16.892  0.00  0.00    +0.000 C 
BRANCH  19  20
ATOM     20  O   UNL     1      36.428  -3.346  16.290  0.00  0.00    +0.000 OA
BRANCH  20  21
ATOM     21  C   UNL     1      37.604  -3.064  15.677  0.00  0.00    +0.000 A 
ATOM     22  C   UNL     1      38.850  -2.900  16.263  0.00  0.00    +0.000 A 
ATOM     23  C   UNL     1      40.009  -2.630  15.542  0.00  0.00    +0.000 A 
ATOM     24  C   UNL     1      39.947  -2.507  14.155  0.00  0.00    +0.000 A 
ATOM     25  C   UNL     1      38.705  -2.667  13.543  0.00  0.00    +0.000 A 
ATOM     26  C   UNL     1      37.588  -2.931  14.278  0.00  0.00    +0.000 A 
BRANCH  24  27
ATOM     27  C   UNL     1      41.193  -2.254  13.417  0.00  0.00    +0.000 C 
ATOM     28  C   UNL     1      40.917  -1.086  12.454  0.00  0.00    +0.000 C 
ATOM     29  C   UNL     1      42.340  -1.873  14.321  0.00  0.00    +0.000 C 
ATOM     30  C   UNL     1      41.545  -3.443  12.528  0.00  0.00    +0.000 C 
ENDBRANCH  24  27
ENDBRANCH  20  21
ENDBRANCH  19  20
ENDBRANCH   4  19
TORSDOF 8
ENDMDL
MODEL 6
REMARK VINA RESULT:      -7.2      3.337     10.289
REMARK  Name = 
REMARK  8 active torsions:
REMARK  status: ('A' for Active; 'I' for Inactive)
REMARK    1  A    between atoms: O_2  and  C_3
REMARK    2  A    between atoms: C_6  and  C_7
REMARK    3  A    between atoms: N_8  and  N_9
REMARK    4  A    between atoms: C_10  and  C_12
REMARK    5  A    between atoms: C_15  and  C_16
REMARK    6  A    between atoms: C_16  and  O_17
REMARK    7  A    between atoms: O_17  and  C_18
REMARK    8  A    between atoms: C_21  and  C_22
REMARK                            x       y       z     vdW  Elec       q    Type
REMARK                         _______ _______ _______ _____ _____    ______ ____
ROOT
ATOM      1  C   UNL     1      37.011   2.162  16.026  0.00  0.00    +0.000 A 
ATOM      2  C   UNL     1      37.890   2.492  15.017  0.00  0.00    +0.000 A 
ATOM      3  C   UNL     1      38.490   3.715  15.353  0.00  0.00    +0.000 A 
ATOM      4  C   UNL     1      37.950   4.089  16.565  0.00  0.00    +0.000 A 
ATOM      5  O   UNL     1      37.093   3.138  16.899  0.00  0.00    +0.000 OA
ENDROOT
BRANCH   1   7
ATOM      6  N   UNL     1      36.539  -0.227  15.673  0.00  0.00    +0.000 NA
ATOM      7  C   UNL     1      36.128   0.980  16.160  0.00  0.00    +0.000 C 
ATOM      8  O   UNL     1      35.020   1.096  16.712  0.00  0.00    +0.000 OA
BRANCH   6  10
ATOM      9  C   UNL     1      36.272  -2.491  14.890  0.00  0.00    +0.000 C 
ATOM     10  N   UNL     1      36.178  -1.468  15.528  0.00  0.00    +0.000 NA
BRANCH   9  14
ATOM     11  C   UNL     1      34.319  -6.259  15.640  0.00  0.00    +0.000 A 
ATOM     12  C   UNL     1      33.696  -5.258  14.903  0.00  0.00    +0.000 A 
ATOM     13  C   UNL     1      34.314  -4.036  14.641  0.00  0.00    +0.000 A 
ATOM     14  C   UNL     1      35.597  -3.780  15.127  0.00  0.00    +0.000 A 
ATOM     15  C   UNL     1      36.198  -4.776  15.852  0.00  0.00    +0.000 A 
ATOM     16  C   UNL     1      35.591  -5.997  16.113  0.00  0.00    +0.000 A 
BRANCH  11  18
ATOM     17  C   UNL     1      33.509  -8.410  14.801  0.00  0.00    +0.000 C 
ATOM     18  O   UNL     1      33.665  -7.479  15.887  0.00  0.00    +0.000 OA
ENDBRANCH  11  18
ENDBRANCH   9  14
ENDBRANCH   6  10
ENDBRANCH   1   7
BRANCH   4  19
ATOM     19  C   UNL     1      38.231   5.301  17.376  0.00  0.00    +0.000 C 
BRANCH  19  20
ATOM     20  O   UNL     1      39.406   5.880  17.273  0.00  0.00    +0.000 OA
BRANCH  20  21
ATOM     21  C   UNL     1      40.506   6.142  18.022  0.00  0.00    +0.000 A 
ATOM     22  C   UNL     1      41.776   6.477  17.577  0.00  0.00    +0.000 A 
ATOM     23  C   UNL     1      42.842   6.748  18.429  0.00  0.00    +0.000 A 
ATOM     24  C   UNL     1      42.657   6.684  19.809  0.00  0.00    +0.000 A 
ATOM     25  C   UNL     1      41.388   6.348  20.280  0.00  0.00    +0.000 A 
ATOM     26  C   UNL     1      40.365   6.088  19.419  0.00  0.00    +0.000 A 
BRANCH  24  27
ATOM     27  C   UNL     1      43.792   7.008  20.685  0.00  0.00    +0.000 C 
ATOM     28  C   UNL     1      43.583   6.235  21.998  0.00  0.00    +0.000 C 
ATOM     29  C   UNL     1      45.121   6.602  20.094  0.00  0.00    +0.000 C 
ATOM     30  C   UNL     1      43.773   8.484  21.071  0.00  0.00    +0.000 C 
ENDBRANCH  24  27
ENDBRANCH  20  21
ENDBRANCH  19  20
ENDBRANCH   4  19
TORSDOF 8
ENDMDL
MODEL 7
REMARK VINA RESULT:      -7.1      3.969      6.878
REMARK  Name = 
REMARK  8 active torsions:
REMARK  status: ('A' for Active; 'I' for Inactive)
REMARK    1  A    between atoms: O_2  and  C_3
REMARK    2  A    between atoms: C_6  and  C_7
REMARK    3  A    between atoms: N_8  and  N_9
REMARK    4  A    between atoms: C_10  and  C_12
REMARK    5  A    between atoms: C_15  and  C_16
REMARK    6  A    between atoms: C_16  and  O_17
REMARK    7  A    between atoms: O_17  and  C_18
REMARK    8  A    between atoms: C_21  and  C_22
REMARK                            x       y       z     vdW  Elec       q    Type
REMARK                         _______ _______ _______ _____ _____    ______ ____
ROOT
ATOM      1  C   UNL     1      38.204   5.724  16.234  0.00  0.00    +0.000 A 
ATOM      2  C   UNL     1      38.000   6.945  15.628  0.00  0.00    +0.000 A 
ATOM      3  C   UNL     1      37.090   6.755  14.577  0.00  0.00    +0.000 A 
ATOM      4  C   UNL     1      36.771   5.415  14.580  0.00  0.00    +0.000 A 
ATOM      5  O   UNL     1      37.458   4.872  15.573  0.00  0.00    +0.000 OA
ENDROOT
BRANCH   1   7
ATOM      6  N   UNL     1      40.180   6.126  17.645  0.00  0.00    +0.000 NA
ATOM      7  C   UNL     1      39.070   5.375  17.385  0.00  0.00    +0.000 C 
ATOM      8  O   UNL     1      38.781   4.401  18.102  0.00  0.00    +0.000 OA
BRANCH   6  10
ATOM      9  C   UNL     1      41.817   6.926  19.223  0.00  0.00    +0.000 C 
ATOM     10  N   UNL     1      41.197   6.234  18.448  0.00  0.00    +0.000 NA
BRANCH   9  14
ATOM     11  C   UNL     1      45.374   5.885  21.422  0.00  0.00    +0.000 A 
ATOM     12  C   UNL     1      45.449   6.422  20.142  0.00  0.00    +0.000 A 
ATOM     13  C   UNL     1      44.311   6.773  19.418  0.00  0.00    +0.000 A 
ATOM     14  C   UNL     1      43.043   6.587  19.968  0.00  0.00    +0.000 A 
ATOM     15  C   UNL     1      42.985   6.058  21.232  0.00  0.00    +0.000 A 
ATOM     16  C   UNL     1      44.113   5.709  21.961  0.00  0.00    +0.000 A 
BRANCH  11  18
ATOM     17  C   UNL     1      47.092   4.221  21.942  0.00  0.00    +0.000 C 
ATOM     18  O   UNL     1      46.543   5.539  22.124  0.00  0.00    +0.000 OA
ENDBRANCH  11  18
ENDBRANCH   9  14
ENDBRANCH   6  10
ENDBRANCH   1   7
BRANCH   4  19
ATOM     19  C   UNL     1      35.853   4.673  13.679  0.00  0.00    +0.000 C 
BRANCH  19  20
ATOM     20  O   UNL     1      35.137   3.685  14.168  0.00  0.00    +0.000 OA
BRANCH  20  21
ATOM     21  C   UNL     1      35.295   2.532  14.865  0.00  0.00    +0.000 A 
ATOM     22  C   UNL     1      35.946   1.378  14.459  0.00  0.00    +0.000 A 
ATOM     23  C   UNL     1      36.072   0.245  15.258  0.00  0.00    +0.000 A 
ATOM     24  C   UNL     1      35.521   0.238  16.539  0.00  0.00    +0.000 A 
ATOM     25  C   UNL     1      34.860   1.388  16.968  0.00  0.00    +0.000 A 
ATOM     26  C   UNL     1      34.754   2.481  16.161  0.00  0.00    +0.000 A 
BRANCH  24  27
ATOM     27  C   UNL     1      35.699  -0.959  17.373  0.00  0.00    +0.000 C 
ATOM     28  C   UNL     1      37.069  -1.559  17.013  0.00  0.00    +0.000 C 
ATOM     29  C   UNL     1      35.682  -0.650  18.850  0.00  0.00    +0.000 C 
ATOM     30  C   UNL     1      34.675  -2.029  17.007  0.00  0.00    +0.000 C 
ENDBRANCH  24  27
ENDBRANCH  20  21
ENDBRANCH  19  20
ENDBRANCH   4  19
TORSDOF 8
ENDMDL
MODEL 8
REMARK VINA RESULT:      -7.0      4.023     10.883
REMARK  Name = 
REMARK  8 active torsions:
REMARK  status: ('A' for Active; 'I' for Inactive)
REMARK    1  A    between atoms: O_2  and  C_3
REMARK    2  A    between atoms: C_6  and  C_7
REMARK    3  A    between atoms: N_8  and  N_9
REMARK    4  A    between atoms: C_10  and  C_12
REMARK    5  A    between atoms: C_15  and  C_16
REMARK    6  A    between atoms: C_16  and  O_17
REMARK    7  A    between atoms: O_17  and  C_18
REMARK    8  A    between atoms: C_21  and  C_22
REMARK                            x       y       z     vdW  Elec       q    Type
REMARK                         _______ _______ _______ _____ _____    ______ ____
ROOT
ATOM      1  C   UNL     1      35.558  -1.084  16.400  0.00  0.00    +0.000 A 
ATOM      2  C   UNL     1      34.601  -0.346  17.062  0.00  0.00    +0.000 A 
ATOM      3  C   UNL     1      34.870   1.012  16.831  0.00  0.00    +0.000 A 
ATOM      4  C   UNL     1      35.991   1.052  16.030  0.00  0.00    +0.000 A 
ATOM      5  O   UNL     1      36.341  -0.207  15.818  0.00  0.00    +0.000 OA
ENDROOT
BRANCH   1   7
ATOM      6  N   UNL     1      34.860  -3.297  15.578  0.00  0.00    +0.000 NA
ATOM      7  C   UNL     1      35.730  -2.554  16.324  0.00  0.00    +0.000 C 
ATOM      8  O   UNL     1      36.663  -3.099  16.938  0.00  0.00    +0.000 OA
BRANCH   6  10
ATOM      9  C   UNL     1      33.742  -5.386  15.141  0.00  0.00    +0.000 C 
ATOM     10  N   UNL     1      34.575  -4.513  15.218  0.00  0.00    +0.000 NA
BRANCH   9  14
ATOM     11  C   UNL     1      34.231  -9.354  13.531  0.00  0.00    +0.000 A 
ATOM     12  C   UNL     1      34.321  -9.115  14.897  0.00  0.00    +0.000 A 
ATOM     13  C   UNL     1      34.157  -7.841  15.439  0.00  0.00    +0.000 A 
ATOM     14  C   UNL     1      33.898  -6.752  14.606  0.00  0.00    +0.000 A 
ATOM     15  C   UNL     1      33.813  -7.004  13.261  0.00  0.00    +0.000 A 
ATOM     16  C   UNL     1      33.971  -8.270  12.714  0.00  0.00    +0.000 A 
BRANCH  11  18
ATOM     17  C   UNL     1      34.550 -10.819  11.596  0.00  0.00    +0.000 C 
ATOM     18  O   UNL     1      34.405 -10.653  13.018  0.00  0.00    +0.000 OA
ENDBRANCH  11  18
ENDBRANCH   9  14
ENDBRANCH   6  10
ENDBRANCH   1   7
BRANCH   4  19
ATOM     19  C   UNL     1      36.707   2.234  15.486  0.00  0.00    +0.000 C 
BRANCH  19  20
ATOM     20  O   UNL     1      36.937   3.260  16.274  0.00  0.00    +0.000 OA
BRANCH  20  21
ATOM     21  C   UNL     1      37.955   4.070  16.657  0.00  0.00    +0.000 A 
ATOM     22  C   UNL     1      38.896   4.689  15.849  0.00  0.00    +0.000 A 
ATOM     23  C   UNL     1      39.898   5.523  16.337  0.00  0.00    +0.000 A 
ATOM     24  C   UNL     1      39.989   5.766  17.707  0.00  0.00    +0.000 A 
ATOM     25  C   UNL     1      39.053   5.152  18.539  0.00  0.00    +0.000 A 
ATOM     26  C   UNL     1      38.085   4.340  18.030  0.00  0.00    +0.000 A 
BRANCH  24  27
ATOM     27  C   UNL     1      41.036   6.677  18.190  0.00  0.00    +0.000 C 
ATOM     28  C   UNL     1      41.206   6.410  19.695  0.00  0.00    +0.000 C 
ATOM     29  C   UNL     1      42.364   6.454  17.509  0.00  0.00    +0.000 C 
ATOM     30  C   UNL     1      40.580   8.129  18.081  0.00  0.00    +0.000 C 
ENDBRANCH  24  27
ENDBRANCH  20  21
ENDBRANCH  19  20
ENDBRANCH   4  19
TORSDOF 8
ENDMDL
MODEL 9
REMARK VINA RESULT:      -7.0      3.778     11.150
REMARK  Name = 
REMARK  8 active torsions:
REMARK  status: ('A' for Active; 'I' for Inactive)
REMARK    1  A    between atoms: O_2  and  C_3
REMARK    2  A    between atoms: C_6  and  C_7
REMARK    3  A    between atoms: N_8  and  N_9
REMARK    4  A    between atoms: C_10  and  C_12
REMARK    5  A    between atoms: C_15  and  C_16
REMARK    6  A    between atoms: C_16  and  O_17
REMARK    7  A    between atoms: O_17  and  C_18
REMARK    8  A    between atoms: C_21  and  C_22
REMARK                            x       y       z     vdW  Elec       q    Type
REMARK                         _______ _______ _______ _____ _____    ______ ____
ROOT
ATOM      1  C   UNL     1      38.524   5.374  17.869  0.00  0.00    +0.000 A 
ATOM      2  C   UNL     1      39.535   5.503  18.797  0.00  0.00    +0.000 A 
ATOM      3  C   UNL     1      39.436   6.783  19.364  0.00  0.00    +0.000 A 
ATOM      4  C   UNL     1      38.359   7.392  18.755  0.00  0.00    +0.000 A 
ATOM      5  O   UNL     1      37.875   6.513  17.892  0.00  0.00    +0.000 OA
ENDROOT
BRANCH   1   7
ATOM      6  N   UNL     1      37.359   3.245  17.455  0.00  0.00    +0.000 NA
ATOM      7  C   UNL     1      38.188   4.227  16.992  0.00  0.00    +0.000 C 
ATOM      8  O   UNL     1      38.664   4.165  15.846  0.00  0.00    +0.000 OA
BRANCH   6  10
ATOM      9  C   UNL     1      35.816   1.418  17.158  0.00  0.00    +0.000 C 
ATOM     10  N   UNL     1      36.805   2.115  17.132  0.00  0.00    +0.000 NA
BRANCH   9  14
ATOM     11  C   UNL     1      35.364  -2.549  15.535  0.00  0.00    +0.000 A 
ATOM     12  C   UNL     1      34.643  -2.140  16.651  0.00  0.00    +0.000 A 
ATOM     13  C   UNL     1      34.768  -0.859  17.186  0.00  0.00    +0.000 A 
ATOM     14  C   UNL     1      35.641   0.062  16.607  0.00  0.00    +0.000 A 
ATOM     15  C   UNL     1      36.345  -0.356  15.507  0.00  0.00    +0.000 A 
ATOM     16  C   UNL     1      36.223  -1.628  14.965  0.00  0.00    +0.000 A 
BRANCH  11  18
ATOM     17  C   UNL     1      33.887  -4.347  14.779  0.00  0.00    +0.000 C 
ATOM     18  O   UNL     1      35.215  -3.851  15.024  0.00  0.00    +0.000 OA
ENDBRANCH  11  18
ENDBRANCH   9  14
ENDBRANCH   6  10
ENDBRANCH   1   7
BRANCH   4  19
ATOM     19  C   UNL     1      37.810   8.753  18.978  0.00  0.00    +0.000 C 
BRANCH  19  20
ATOM     20  O   UNL     1      36.610   9.040  18.524  0.00  0.00    +0.000 OA
BRANCH  20  21
ATOM     21  C   UNL     1      36.016   9.644  17.466  0.00  0.00    +0.000 A 
ATOM     22  C   UNL     1      34.699  10.064  17.357  0.00  0.00    +0.000 A 
ATOM     23  C   UNL     1      34.184  10.696  16.229  0.00  0.00    +0.000 A 
ATOM     24  C   UNL     1      35.010  10.929  15.131  0.00  0.00    +0.000 A 
ATOM     25  C   UNL     1      36.339  10.514  15.216  0.00  0.00    +0.000 A 
ATOM     26  C   UNL     1      36.812   9.898  16.335  0.00  0.00    +0.000 A 
BRANCH  24  27
ATOM     27  C   UNL     1      34.448  11.628  13.966  0.00  0.00    +0.000 C 
ATOM     28  C   UNL     1      35.527  12.602  13.461  0.00  0.00    +0.000 C 
ATOM     29  C   UNL     1      34.083  10.690  12.842  0.00  0.00    +0.000 C 
ATOM     30  C   UNL     1      33.268  12.503  14.379  0.00  0.00    +0.000 C 
ENDBRANCH  24  27
ENDBRANCH  20  21
ENDBRANCH  19  20
ENDBRANCH   4  19
TORSDOF 8
ENDMDL
MODEL 10
REMARK VINA RESULT:      -6.9     22.306     26.805
REMARK  Name = 
REMARK  8 active torsions:
REMARK  status: ('A' for Active; 'I' for Inactive)
REMARK    1  A    between atoms: O_2  and  C_3
REMARK    2  A    between atoms: C_6  and  C_7
REMARK    3  A    between atoms: N_8  and  N_9
REMARK    4  A    between atoms: C_10  and  C_12
REMARK    5  A    between atoms: C_15  and  C_16
REMARK    6  A    between atoms: C_16  and  O_17
REMARK    7  A    between atoms: O_17  and  C_18
REMARK    8  A    between atoms: C_21  and  C_22
REMARK                            x       y       z     vdW  Elec       q    Type
REMARK                         _______ _______ _______ _____ _____    ______ ____
ROOT
ATOM      1  C   UNL     1      12.204  -0.975  26.662  0.00  0.00    +0.000 A 
ATOM      2  C   UNL     1      11.889  -0.873  28.000  0.00  0.00    +0.000 A 
ATOM      3  C   UNL     1      13.003  -0.337  28.663  0.00  0.00    +0.000 A 
ATOM      4  C   UNL     1      13.964  -0.130  27.697  0.00  0.00    +0.000 A 
ATOM      5  O   UNL     1      13.431  -0.526  26.553  0.00  0.00    +0.000 OA
ENDROOT
BRANCH   1   7
ATOM      6  N   UNL     1      11.783  -2.597  24.860  0.00  0.00    +0.000 NA
ATOM      7  C   UNL     1      11.384  -1.480  25.536  0.00  0.00    +0.000 C 
ATOM      8  O   UNL     1      10.343  -0.883  25.213  0.00  0.00    +0.000 OA
BRANCH   6  10
ATOM      9  C   UNL     1      11.056  -4.465  23.521  0.00  0.00    +0.000 C 
ATOM     10  N   UNL     1      11.468  -3.383  23.873  0.00  0.00    +0.000 NA
BRANCH   9  14
ATOM     11  C   UNL     1      10.428  -5.853  19.489  0.00  0.00    +0.000 A 
ATOM     12  C   UNL     1      11.549  -6.235  20.217  0.00  0.00    +0.000 A 
ATOM     13  C   UNL     1      11.767  -5.804  21.525  0.00  0.00    +0.000 A 
ATOM     14  C   UNL     1      10.848  -4.959  22.147  0.00  0.00    +0.000 A 
ATOM     15  C   UNL     1       9.747  -4.591  21.418  0.00  0.00    +0.000 A 
ATOM     16  C   UNL     1       9.521  -5.019  20.116  0.00  0.00    +0.000 A 
BRANCH  11  18
ATOM     17  C   UNL     1      10.784  -5.522  17.091  0.00  0.00    +0.000 C 
ATOM     18  O   UNL     1      10.242  -6.304  18.170  0.00  0.00    +0.000 OA
ENDBRANCH  11  18
ENDBRANCH   9  14
ENDBRANCH   6  10
ENDBRANCH   1   7
BRANCH   4  19
ATOM     19  C   UNL     1      15.336   0.419  27.849  0.00  0.00    +0.000 C 
BRANCH  19  20
ATOM     20  O   UNL     1      16.347  -0.235  27.324  0.00  0.00    +0.000 OA
BRANCH  20  21
ATOM     21  C   UNL     1      17.271  -0.105  26.340  0.00  0.00    +0.000 A 
ATOM     22  C   UNL     1      17.743   1.066  25.768  0.00  0.00    +0.000 A 
ATOM     23  C   UNL     1      18.713   1.098  24.770  0.00  0.00    +0.000 A 
ATOM     24  C   UNL     1      19.255  -0.095  24.296  0.00  0.00    +0.000 A 
ATOM     25  C   UNL     1      18.795  -1.287  24.855  0.00  0.00    +0.000 A 
ATOM     26  C   UNL     1      17.844  -1.283  25.831  0.00  0.00    +0.000 A 
BRANCH  24  27
ATOM     27  C   UNL     1      20.302  -0.029  23.266  0.00  0.00    +0.000 C 
ATOM     28  C   UNL     1      21.599   0.407  23.968  0.00  0.00    +0.000 C 
ATOM     29  C   UNL     1      20.543  -1.359  22.592  0.00  0.00    +0.000 C 
ATOM     30  C   UNL     1      19.995   1.070  22.253  0.00  0.00    +0.000 C 
ENDBRANCH  24  27
ENDBRANCH  20  21
ENDBRANCH  19  20
ENDBRANCH   4  19
TORSDOF 8
ENDMDL
