MODEL 1
REMARK VINA RESULT:      -7.6      0.000      0.000
REMARK  Name = 
REMARK  8 active torsions:
REMARK  status: ('A' for Active; 'I' for Inactive)
REMARK    1  A    between atoms: C_2  and  C_4
REMARK    2  A    between atoms: C_4  and  C_5
REMARK    3  A    between atoms: C_5  and  N_6
REMARK    4  A    between atoms: C_5  and  C_17
REMARK    5  A    between atoms: C_7  and  O_9
REMARK    6  A    between atoms: O_9  and  C_10
REMARK    7  A    between atoms: C_10  and  C_11
REMARK    8  A    between atoms: N_19  and  C_20
REMARK                            x       y       z     vdW  Elec       q    Type
REMARK                         _______ _______ _______ _____ _____    ______ ____
ROOT
ATOM      1  C   UNL     1      36.460   1.794  15.707  0.00  0.00    +0.000 C 
ENDROOT
BRANCH   1   2
ATOM      2  N   UNL     1      37.656   0.957  15.609  0.00  0.00    +0.000 NA
ATOM      3  C   UNL     1      38.504   0.423  14.720  0.00  0.00    +0.000 C 
ATOM      4  O   UNL     1      38.212   0.660  13.539  0.00  0.00    +0.000 OA
BRANCH   3   5
ATOM      5  O   UNL     1      39.642  -0.311  15.118  0.00  0.00    +0.000 OA
BRANCH   5   6
ATOM      6  C   UNL     1      39.728  -1.602  14.404  0.00  0.00    +0.000 C 
BRANCH   6   7
ATOM      7  C   UNL     1      38.778  -2.449  15.224  0.00  0.00    +0.000 A 
ATOM      8  C   UNL     1      37.722  -3.092  14.712  0.00  0.00    +0.000 A 
ATOM      9  C   UNL     1      36.835  -3.906  15.362  0.00  0.00    +0.000 A 
ATOM     10  C   UNL     1      37.076  -4.082  16.724  0.00  0.00    +0.000 A 
ATOM     11  C   UNL     1      38.149  -3.438  17.283  0.00  0.00    +0.000 A 
ATOM     12  C   UNL     1      39.039  -2.609  16.602  0.00  0.00    +0.000 A 
ENDBRANCH   6   7
ENDBRANCH   5   6
ENDBRANCH   3   5
ENDBRANCH   1   2
BRANCH   1  13
ATOM     13  C   UNL     1      36.989   3.241  15.951  0.00  0.00    +0.000 C 
ATOM     14  O   UNL     1      36.405   4.227  15.462  0.00  0.00    +0.000 OA
ATOM     15  N   UNL     1      38.098   3.435  16.719  0.00  0.00    +0.000 NA
BRANCH  15  16
ATOM     16  C   UNL     1      38.790   4.565  17.121  0.00  0.00    +0.000 A 
ATOM     17  C   UNL     1      39.498   5.196  16.110  0.00  0.00    +0.000 A 
ATOM     18  C   UNL     1      40.268   6.324  16.355  0.00  0.00    +0.000 A 
ATOM     19  C   UNL     1      40.378   6.869  17.620  0.00  0.00    +0.000 A 
ATOM     20  C   UNL     1      41.180   7.983  17.827  0.00  0.00    +0.000 A 
ATOM     21  C   UNL     1      41.264   8.447  19.098  0.00  0.00    +0.000 A 
ATOM     22  C   UNL     1      40.592   7.852  20.181  0.00  0.00    +0.000 A 
ATOM     23  C   UNL     1      39.789   6.740  19.960  0.00  0.00    +0.000 A 
ATOM     24  C   UNL     1      39.675   6.243  18.662  0.00  0.00    +0.000 A 
ATOM     25  C   UNL     1      38.912   5.136  18.364  0.00  0.00    +0.000 A 
ENDBRANCH  15  16
ENDBRANCH   1  13
BRANCH   1  26
ATOM     26  C   UNL     1      35.897   1.496  17.202  0.00  0.00    +0.000 C 
BRANCH  26  28
ATOM     27  C   UNL     1      36.420  -0.374  18.775  0.00  0.00    +0.000 C 
ATOM     28  C   UNL     1      36.163  -0.019  17.312  0.00  0.00    +0.000 C 
ATOM     29  C   UNL     1      34.882  -0.715  16.885  0.00  0.00    +0.000 C 
ENDBRANCH  26  28
ENDBRANCH   1  26
TORSDOF 8
ENDMDL
MODEL 2
REMARK VINA RESULT:      -7.4     25.562     27.966
REMARK  Name = 
REMARK  8 active torsions:
REMARK  status: ('A' for Active; 'I' for Inactive)
REMARK    1  A    between atoms: C_2  and  C_4
REMARK    2  A    between atoms: C_4  and  C_5
REMARK    3  A    between atoms: C_5  and  N_6
REMARK    4  A    between atoms: C_5  and  C_17
REMARK    5  A    between atoms: C_7  and  O_9
REMARK    6  A    between atoms: O_9  and  C_10
REMARK    7  A    between atoms: C_10  and  C_11
REMARK    8  A    between atoms: N_19  and  C_20
REMARK                            x       y       z     vdW  Elec       q    Type
REMARK                         _______ _______ _______ _____ _____    ______ ____
ROOT
ATOM      1  C   UNL     1      26.758  14.087  40.651  0.00  0.00    +0.000 C 
ENDROOT
BRANCH   1   2
ATOM      2  N   UNL     1      26.837  12.627  40.632  0.00  0.00    +0.000 NA
ATOM      3  C   UNL     1      26.317  11.531  41.202  0.00  0.00    +0.000 C 
ATOM      4  O   UNL     1      25.486  11.770  42.090  0.00  0.00    +0.000 OA
BRANCH   3   5
ATOM      5  O   UNL     1      26.673  10.230  40.786  0.00  0.00    +0.000 OA
BRANCH   5   6
ATOM      6  C   UNL     1      27.196   9.427  41.911  0.00  0.00    +0.000 C 
BRANCH   6   7
ATOM      7  C   UNL     1      28.667   9.783  41.859  0.00  0.00    +0.000 A 
ATOM      8  C   UNL     1      29.349  10.287  42.894  0.00  0.00    +0.000 A 
ATOM      9  C   UNL     1      30.679  10.602  42.953  0.00  0.00    +0.000 A 
ATOM     10  C   UNL     1      31.402  10.356  41.787  0.00  0.00    +0.000 A 
ATOM     11  C   UNL     1      30.736   9.839  40.706  0.00  0.00    +0.000 A 
ATOM     12  C   UNL     1      29.377   9.530  40.666  0.00  0.00    +0.000 A 
ENDBRANCH   6   7
ENDBRANCH   5   6
ENDBRANCH   3   5
ENDBRANCH   1   2
BRANCH   1  13
ATOM     13  C   UNL     1      25.970  14.473  39.361  0.00  0.00    +0.000 C 
ATOM     14  O   UNL     1      24.749  14.248  39.265  0.00  0.00    +0.000 OA
ATOM     15  N   UNL     1      26.622  15.075  38.326  0.00  0.00    +0.000 NA
BRANCH  15  16
ATOM     16  C   UNL     1      26.213  15.539  37.087  0.00  0.00    +0.000 A 
ATOM     17  C   UNL     1      25.727  16.837  37.091  0.00  0.00    +0.000 A 
ATOM     18  C   UNL     1      25.248  17.439  35.935  0.00  0.00    +0.000 A 
ATOM     19  C   UNL     1      25.220  16.771  34.726  0.00  0.00    +0.000 A 
ATOM     20  C   UNL     1      24.709  17.400  33.599  0.00  0.00    +0.000 A 
ATOM     21  C   UNL     1      24.685  16.677  32.454  0.00  0.00    +0.000 A 
ATOM     22  C   UNL     1      25.142  15.349  32.372  0.00  0.00    +0.000 A 
ATOM     23  C   UNL     1      25.656  14.731  33.505  0.00  0.00    +0.000 A 
ATOM     24  C   UNL     1      25.701  15.452  34.699  0.00  0.00    +0.000 A 
ATOM     25  C   UNL     1      26.180  14.906  35.869  0.00  0.00    +0.000 A 
ENDBRANCH  15  16
ENDBRANCH   1  13
BRANCH   1  26
ATOM     26  C   UNL     1      28.235  14.565  40.174  0.00  0.00    +0.000 C 
BRANCH  26  28
ATOM     27  C   UNL     1      30.511  13.548  40.366  0.00  0.00    +0.000 C 
ATOM     28  C   UNL     1      29.125  13.618  41.005  0.00  0.00    +0.000 C 
ATOM     29  C   UNL     1      29.279  14.260  42.373  0.00  0.00    +0.000 C 
ENDBRANCH  26  28
ENDBRANCH   1  26
TORSDOF 8
ENDMDL
MODEL 3
REMARK VINA RESULT:      -7.2      2.018      3.453
REMARK  Name = 
REMARK  8 active torsions:
REMARK  status: ('A' for Active; 'I' for Inactive)
REMARK    1  A    between atoms: C_2  and  C_4
REMARK    2  A    between atoms: C_4  and  C_5
REMARK    3  A    between atoms: C_5  and  N_6
REMARK    4  A    between atoms: C_5  and  C_17
REMARK    5  A    between atoms: C_7  and  O_9
REMARK    6  A    between atoms: O_9  and  C_10
REMARK    7  A    between atoms: C_10  and  C_11
REMARK    8  A    between atoms: N_19  and  C_20
REMARK                            x       y       z     vdW  Elec       q    Type
REMARK                         _______ _______ _______ _____ _____    ______ ____
ROOT
ATOM      1  C   UNL     1      38.553   2.899  14.712  0.00  0.00    +0.000 C 
ENDROOT
BRANCH   1   2
ATOM      2  N   UNL     1      38.743   1.528  15.183  0.00  0.00    +0.000 NA
ATOM      3  C   UNL     1      39.096   0.304  14.765  0.00  0.00    +0.000 C 
ATOM      4  O   UNL     1      39.330   0.234  13.550  0.00  0.00    +0.000 OA
BRANCH   3   5
ATOM      5  O   UNL     1      39.217  -0.785  15.655  0.00  0.00    +0.000 OA
BRANCH   5   6
ATOM      6  C   UNL     1      38.026  -1.658  15.605  0.00  0.00    +0.000 C 
BRANCH   6   7
ATOM      7  C   UNL     1      37.316  -1.248  16.878  0.00  0.00    +0.000 A 
ATOM      8  C   UNL     1      36.238  -0.455  16.907  0.00  0.00    +0.000 A 
ATOM      9  C   UNL     1      35.510  -0.063  17.998  0.00  0.00    +0.000 A 
ATOM     10  C   UNL     1      35.953  -0.564  19.221  0.00  0.00    +0.000 A 
ATOM     11  C   UNL     1      37.054  -1.381  19.229  0.00  0.00    +0.000 A 
ATOM     12  C   UNL     1      37.785  -1.763  18.105  0.00  0.00    +0.000 A 
ENDBRANCH   6   7
ENDBRANCH   5   6
ENDBRANCH   3   5
ENDBRANCH   1   2
BRANCH   1  13
ATOM     13  C   UNL     1      38.223   3.731  15.989  0.00  0.00    +0.000 C 
ATOM     14  O   UNL     1      37.341   3.360  16.786  0.00  0.00    +0.000 OA
ATOM     15  N   UNL     1      38.916   4.877  16.247  0.00  0.00    +0.000 NA
BRANCH  15  16
ATOM     16  C   UNL     1      38.870   5.804  17.274  0.00  0.00    +0.000 A 
ATOM     17  C   UNL     1      39.615   5.462  18.391  0.00  0.00    +0.000 A 
ATOM     18  C   UNL     1      39.649   6.270  19.519  0.00  0.00    +0.000 A 
ATOM     19  C   UNL     1      38.933   7.449  19.591  0.00  0.00    +0.000 A 
ATOM     20  C   UNL     1      38.974   8.216  20.748  0.00  0.00    +0.000 A 
ATOM     21  C   UNL     1      38.226   9.345  20.759  0.00  0.00    +0.000 A 
ATOM     22  C   UNL     1      37.429   9.751  19.674  0.00  0.00    +0.000 A 
ATOM     23  C   UNL     1      37.399   8.979  18.519  0.00  0.00    +0.000 A 
ATOM     24  C   UNL     1      38.165   7.814  18.473  0.00  0.00    +0.000 A 
ATOM     25  C   UNL     1      38.178   6.986  17.373  0.00  0.00    +0.000 A 
ENDBRANCH  15  16
ENDBRANCH   1  13
BRANCH   1  26
ATOM     26  C   UNL     1      37.067   2.883  14.055  0.00  0.00    +0.000 C 
BRANCH  26  28
ATOM     27  C   UNL     1      37.214   3.985  11.816  0.00  0.00    +0.000 C 
ATOM     28  C   UNL     1      37.066   4.237  13.315  0.00  0.00    +0.000 C 
ATOM     29  C   UNL     1      35.698   4.855  13.547  0.00  0.00    +0.000 C 
ENDBRANCH  26  28
ENDBRANCH   1  26
TORSDOF 8
ENDMDL
MODEL 4
REMARK VINA RESULT:      -7.1      1.985      9.099
REMARK  Name = 
REMARK  8 active torsions:
REMARK  status: ('A' for Active; 'I' for Inactive)
REMARK    1  A    between atoms: C_2  and  C_4
REMARK    2  A    between atoms: C_4  and  C_5
REMARK    3  A    between atoms: C_5  and  N_6
REMARK    4  A    between atoms: C_5  and  C_17
REMARK    5  A    between atoms: C_7  and  O_9
REMARK    6  A    between atoms: O_9  and  C_10
REMARK    7  A    between atoms: C_10  and  C_11
REMARK    8  A    between atoms: N_19  and  C_20
REMARK                            x       y       z     vdW  Elec       q    Type
REMARK                         _______ _______ _______ _____ _____    ______ ____
ROOT
ATOM      1  C   UNL     1      37.849   2.899  15.102  0.00  0.00    +0.000 C 
ENDROOT
BRANCH   1   2
ATOM      2  N   UNL     1      38.321   3.451  16.371  0.00  0.00    +0.000 NA
ATOM      3  C   UNL     1      38.528   4.612  17.009  0.00  0.00    +0.000 C 
ATOM      4  O   UNL     1      38.276   5.615  16.326  0.00  0.00    +0.000 OA
BRANCH   3   5
ATOM      5  O   UNL     1      38.962   4.661  18.351  0.00  0.00    +0.000 OA
BRANCH   5   6
ATOM      6  C   UNL     1      39.009   6.051  18.853  0.00  0.00    +0.000 C 
BRANCH   6   7
ATOM      7  C   UNL     1      40.502   6.255  18.993  0.00  0.00    +0.000 A 
ATOM      8  C   UNL     1      41.331   6.434  17.958  0.00  0.00    +0.000 A 
ATOM      9  C   UNL     1      42.680   6.663  17.987  0.00  0.00    +0.000 A 
ATOM     10  C   UNL     1      43.246   6.721  19.260  0.00  0.00    +0.000 A 
ATOM     11  C   UNL     1      42.427   6.543  20.345  0.00  0.00    +0.000 A 
ATOM     12  C   UNL     1      41.055   6.306  20.291  0.00  0.00    +0.000 A 
ENDBRANCH   6   7
ENDBRANCH   5   6
ENDBRANCH   3   5
ENDBRANCH   1   2
BRANCH   1  13
ATOM     13  C   UNL     1      37.124   1.570  15.476  0.00  0.00    +0.000 C 
ATOM     14  O   UNL     1      35.940   1.573  15.864  0.00  0.00    +0.000 OA
ATOM     15  N   UNL     1      37.787   0.384  15.368  0.00  0.00    +0.000 NA
BRANCH  15  16
ATOM     16  C   UNL     1      37.427  -0.931  15.605  0.00  0.00    +0.000 A 
ATOM     17  C   UNL     1      38.362  -1.664  16.320  0.00  0.00    +0.000 A 
ATOM     18  C   UNL     1      38.166  -3.006  16.613  0.00  0.00    +0.000 A 
ATOM     19  C   UNL     1      37.036  -3.683  16.198  0.00  0.00    +0.000 A 
ATOM     20  C   UNL     1      36.891  -5.033  16.490  0.00  0.00    +0.000 A 
ATOM     21  C   UNL     1      35.772  -5.641  16.027  0.00  0.00    +0.000 A 
ATOM     22  C   UNL     1      34.786  -4.973  15.279  0.00  0.00    +0.000 A 
ATOM     23  C   UNL     1      34.940  -3.621  14.997  0.00  0.00    +0.000 A 
ATOM     24  C   UNL     1      36.077  -2.964  15.466  0.00  0.00    +0.000 A 
ATOM     25  C   UNL     1      36.312  -1.630  15.215  0.00  0.00    +0.000 A 
ENDBRANCH  15  16
ENDBRANCH   1  13
BRANCH   1  26
ATOM     26  C   UNL     1      39.183   2.257  14.435  0.00  0.00    +0.000 C 
BRANCH  26  28
ATOM     27  C   UNL     1      40.496   4.223  13.623  0.00  0.00    +0.000 C 
ATOM     28  C   UNL     1      39.405   3.221  13.251  0.00  0.00    +0.000 C 
ATOM     29  C   UNL     1      39.924   2.379  12.099  0.00  0.00    +0.000 C 
ENDBRANCH  26  28
ENDBRANCH   1  26
TORSDOF 8
ENDMDL
MODEL 5
REMARK VINA RESULT:      -7.1      2.796      4.665
REMARK  Name = 
REMARK  8 active torsions:
REMARK  status: ('A' for Active; 'I' for Inactive)
REMARK    1  A    between atoms: C_2  and  C_4
REMARK    2  A    between atoms: C_4  and  C_5
REMARK    3  A    between atoms: C_5  and  N_6
REMARK    4  A    between atoms: C_5  and  C_17
REMARK    5  A    between atoms: C_7  and  O_9
REMARK    6  A    between atoms: O_9  and  C_10
REMARK    7  A    between atoms: C_10  and  C_11
REMARK    8  A    between atoms: N_19  and  C_20
REMARK                            x       y       z     vdW  Elec       q    Type
REMARK                         _______ _______ _______ _____ _____    ______ ____
ROOT
ATOM      1  C   UNL     1      36.969   6.043  13.700  0.00  0.00    +0.000 C 
ENDROOT
BRANCH   1   2
ATOM      2  N   UNL     1      36.168   4.900  14.137  0.00  0.00    +0.000 NA
ATOM      3  C   UNL     1      36.051   3.572  13.994  0.00  0.00    +0.000 C 
ATOM      4  O   UNL     1      36.861   3.078  13.197  0.00  0.00    +0.000 OA
BRANCH   3   5
ATOM      5  O   UNL     1      35.104   2.821  14.722  0.00  0.00    +0.000 OA
BRANCH   5   6
ATOM      6  C   UNL     1      35.522   2.643  16.128  0.00  0.00    +0.000 C 
BRANCH   6   7
ATOM      7  C   UNL     1      35.475   1.134  16.253  0.00  0.00    +0.000 A 
ATOM      8  C   UNL     1      36.018   0.296  15.362  0.00  0.00    +0.000 A 
ATOM      9  C   UNL     1      36.060  -1.071  15.408  0.00  0.00    +0.000 A 
ATOM     10  C   UNL     1      35.466  -1.648  16.529  0.00  0.00    +0.000 A 
ATOM     11  C   UNL     1      34.900  -0.819  17.464  0.00  0.00    +0.000 A 
ATOM     12  C   UNL     1      34.864   0.572  17.394  0.00  0.00    +0.000 A 
ENDBRANCH   6   7
ENDBRANCH   5   6
ENDBRANCH   3   5
ENDBRANCH   1   2
BRANCH   1  13
ATOM     13  C   UNL     1      37.704   6.545  14.981  0.00  0.00    +0.000 C 
ATOM     14  O   UNL     1      37.453   7.664  15.466  0.00  0.00    +0.000 OA
ATOM     15  N   UNL     1      38.627   5.747  15.587  0.00  0.00    +0.000 NA
BRANCH  15  16
ATOM     16  C   UNL     1      39.419   5.895  16.713  0.00  0.00    +0.000 A 
ATOM     17  C   UNL     1      38.741   5.757  17.915  0.00  0.00    +0.000 A 
ATOM     18  C   UNL     1      39.385   5.908  19.135  0.00  0.00    +0.000 A 
ATOM     19  C   UNL     1      40.729   6.216  19.215  0.00  0.00    +0.000 A 
ATOM     20  C   UNL     1      41.329   6.385  20.455  0.00  0.00    +0.000 A 
ATOM     21  C   UNL     1      42.643   6.714  20.459  0.00  0.00    +0.000 A 
ATOM     22  C   UNL     1      43.396   6.891  19.284  0.00  0.00    +0.000 A 
ATOM     23  C   UNL     1      42.786   6.715  18.048  0.00  0.00    +0.000 A 
ATOM     24  C   UNL     1      41.436   6.368  18.011  0.00  0.00    +0.000 A 
ATOM     25  C   UNL     1      40.755   6.192  16.826  0.00  0.00    +0.000 A 
ENDBRANCH  15  16
ENDBRANCH   1  13
BRANCH   1  26
ATOM     26  C   UNL     1      35.888   7.247  13.564  0.00  0.00    +0.000 C 
BRANCH  26  28
ATOM     27  C   UNL     1      33.406   7.028  13.360  0.00  0.00    +0.000 C 
ATOM     28  C   UNL     1      34.744   6.524  12.824  0.00  0.00    +0.000 C 
ATOM     29  C   UNL     1      34.843   6.939  11.366  0.00  0.00    +0.000 C 
ENDBRANCH  26  28
ENDBRANCH   1  26
TORSDOF 8
ENDMDL
MODEL 6
REMARK VINA RESULT:      -6.9     25.271     27.941
REMARK  Name = 
REMARK  8 active torsions:
REMARK  status: ('A' for Active; 'I' for Inactive)
REMARK    1  A    between atoms: C_2  and  C_4
REMARK    2  A    between atoms: C_4  and  C_5
REMARK    3  A    between atoms: C_5  and  N_6
REMARK    4  A    between atoms: C_5  and  C_17
REMARK    5  A    between atoms: C_7  and  O_9
REMARK    6  A    between atoms: O_9  and  C_10
REMARK    7  A    between atoms: C_10  and  C_11
REMARK    8  A    between atoms: N_19  and  C_20
REMARK                            x       y       z     vdW  Elec       q    Type
REMARK                         _______ _______ _______ _____ _____    ______ ____
ROOT
ATOM      1  C   UNL     1      28.037  14.937  40.454  0.00  0.00    +0.000 C 
ENDROOT
BRANCH   1   2
ATOM      2  N   UNL     1      27.586  13.554  40.603  0.00  0.00    +0.000 NA
ATOM      3  C   UNL     1      26.483  12.813  40.778  0.00  0.00    +0.000 C 
ATOM      4  O   UNL     1      25.442  13.476  40.892  0.00  0.00    +0.000 OA
BRANCH   3   5
ATOM      5  O   UNL     1      26.523  11.402  40.794  0.00  0.00    +0.000 OA
BRANCH   5   6
ATOM      6  C   UNL     1      27.895  10.899  40.577  0.00  0.00    +0.000 C 
BRANCH   6   7
ATOM      7  C   UNL     1      27.855   9.605  41.364  0.00  0.00    +0.000 A 
ATOM      8  C   UNL     1      28.867   9.161  42.118  0.00  0.00    +0.000 A 
ATOM      9  C   UNL     1      28.910   8.031  42.890  0.00  0.00    +0.000 A 
ATOM     10  C   UNL     1      27.747   7.262  42.885  0.00  0.00    +0.000 A 
ATOM     11  C   UNL     1      26.690   7.688  42.123  0.00  0.00    +0.000 A 
ATOM     12  C   UNL     1      26.670   8.840  41.340  0.00  0.00    +0.000 A 
ENDBRANCH   6   7
ENDBRANCH   5   6
ENDBRANCH   3   5
ENDBRANCH   1   2
BRANCH   1  13
ATOM     13  C   UNL     1      27.927  15.244  38.929  0.00  0.00    +0.000 C 
ATOM     14  O   UNL     1      28.941  15.263  38.205  0.00  0.00    +0.000 OA
ATOM     15  N   UNL     1      26.706  15.485  38.373  0.00  0.00    +0.000 NA
BRANCH  15  16
ATOM     16  C   UNL     1      26.288  15.768  37.084  0.00  0.00    +0.000 A 
ATOM     17  C   UNL     1      25.777  17.046  36.913  0.00  0.00    +0.000 A 
ATOM     18  C   UNL     1      25.286  17.475  35.688  0.00  0.00    +0.000 A 
ATOM     19  C   UNL     1      25.271  16.649  34.581  0.00  0.00    +0.000 A 
ATOM     20  C   UNL     1      24.747  17.109  33.380  0.00  0.00    +0.000 A 
ATOM     21  C   UNL     1      24.737  16.236  32.344  0.00  0.00    +0.000 A 
ATOM     22  C   UNL     1      25.219  14.919  32.442  0.00  0.00    +0.000 A 
ATOM     23  C   UNL     1      25.745  14.470  33.647  0.00  0.00    +0.000 A 
ATOM     24  C   UNL     1      25.777  15.347  34.731  0.00  0.00    +0.000 A 
ATOM     25  C   UNL     1      26.267  14.975  35.964  0.00  0.00    +0.000 A 
ENDBRANCH  15  16
ENDBRANCH   1  13
BRANCH   1  26
ATOM     26  C   UNL     1      29.654  14.833  40.556  0.00  0.00    +0.000 C 
BRANCH  26  28
ATOM     27  C   UNL     1      30.857  12.960  41.693  0.00  0.00    +0.000 C 
ATOM     28  C   UNL     1      29.809  14.056  41.879  0.00  0.00    +0.000 C 
ATOM     29  C   UNL     1      30.349  15.044  42.900  0.00  0.00    +0.000 C 
ENDBRANCH  26  28
ENDBRANCH   1  26
TORSDOF 8
ENDMDL
MODEL 7
REMARK VINA RESULT:      -6.7      1.933      2.635
REMARK  Name = 
REMARK  8 active torsions:
REMARK  status: ('A' for Active; 'I' for Inactive)
REMARK    1  A    between atoms: C_2  and  C_4
REMARK    2  A    between atoms: C_4  and  C_5
REMARK    3  A    between atoms: C_5  and  N_6
REMARK    4  A    between atoms: C_5  and  C_17
REMARK    5  A    between atoms: C_7  and  O_9
REMARK    6  A    between atoms: O_9  and  C_10
REMARK    7  A    between atoms: C_10  and  C_11
REMARK    8  A    between atoms: N_19  and  C_20
REMARK                            x       y       z     vdW  Elec       q    Type
REMARK                         _______ _______ _______ _____ _____    ______ ____
ROOT
ATOM      1  C   UNL     1      36.873   2.451  13.966  0.00  0.00    +0.000 C 
ENDROOT
BRANCH   1   2
ATOM      2  N   UNL     1      37.518   1.659  12.919  0.00  0.00    +0.000 NA
ATOM      3  C   UNL     1      38.300   1.770  11.837  0.00  0.00    +0.000 C 
ATOM      4  O   UNL     1      38.597   2.939  11.548  0.00  0.00    +0.000 OA
BRANCH   3   5
ATOM      5  O   UNL     1      38.761   0.642  11.126  0.00  0.00    +0.000 OA
BRANCH   5   6
ATOM      6  C   UNL     1      40.135   0.275  11.528  0.00  0.00    +0.000 C 
BRANCH   6   7
ATOM      7  C   UNL     1      39.855  -0.708  12.646  0.00  0.00    +0.000 A 
ATOM      8  C   UNL     1      39.042  -1.764  12.523  0.00  0.00    +0.000 A 
ATOM      9  C   UNL     1      38.758  -2.723  13.458  0.00  0.00    +0.000 A 
ATOM     10  C   UNL     1      39.408  -2.571  14.682  0.00  0.00    +0.000 A 
ATOM     11  C   UNL     1      40.249  -1.501  14.843  0.00  0.00    +0.000 A 
ATOM     12  C   UNL     1      40.520  -0.533  13.878  0.00  0.00    +0.000 A 
ENDBRANCH   6   7
ENDBRANCH   5   6
ENDBRANCH   3   5
ENDBRANCH   1   2
BRANCH   1  13
ATOM     13  C   UNL     1      38.029   2.899  14.913  0.00  0.00    +0.000 C 
ATOM     14  O   UNL     1      38.849   2.074  15.357  0.00  0.00    +0.000 OA
ATOM     15  N   UNL     1      38.152   4.213  15.255  0.00  0.00    +0.000 NA
BRANCH  15  16
ATOM     16  C   UNL     1      39.052   4.909  16.043  0.00  0.00    +0.000 A 
ATOM     17  C   UNL     1      40.159   5.391  15.362  0.00  0.00    +0.000 A 
ATOM     18  C   UNL     1      41.171   6.083  16.015  0.00  0.00    +0.000 A 
ATOM     19  C   UNL     1      41.130   6.317  17.376  0.00  0.00    +0.000 A 
ATOM     20  C   UNL     1      42.175   6.991  17.994  0.00  0.00    +0.000 A 
ATOM     21  C   UNL     1      42.084   7.160  19.335  0.00  0.00    +0.000 A 
ATOM     22  C   UNL     1      41.003   6.686  20.099  0.00  0.00    +0.000 A 
ATOM     23  C   UNL     1      39.961   6.017  19.469  0.00  0.00    +0.000 A 
ATOM     24  C   UNL     1      40.021   5.833  18.088  0.00  0.00    +0.000 A 
ATOM     25  C   UNL     1      39.037   5.166  17.392  0.00  0.00    +0.000 A 
ENDBRANCH  15  16
ENDBRANCH   1  13
BRANCH   1  26
ATOM     26  C   UNL     1      36.195   1.339  14.936  0.00  0.00    +0.000 C 
BRANCH  26  28
ATOM     27  C   UNL     1      34.382   3.030  15.253  0.00  0.00    +0.000 C 
ATOM     28  C   UNL     1      35.485   2.246  15.961  0.00  0.00    +0.000 C 
ATOM     29  C   UNL     1      34.822   1.323  16.969  0.00  0.00    +0.000 C 
ENDBRANCH  26  28
ENDBRANCH   1  26
TORSDOF 8
ENDMDL
MODEL 8
REMARK VINA RESULT:      -6.7     25.604     28.663
REMARK  Name = 
REMARK  8 active torsions:
REMARK  status: ('A' for Active; 'I' for Inactive)
REMARK    1  A    between atoms: C_2  and  C_4
REMARK    2  A    between atoms: C_4  and  C_5
REMARK    3  A    between atoms: C_5  and  N_6
REMARK    4  A    between atoms: C_5  and  C_17
REMARK    5  A    between atoms: C_7  and  O_9
REMARK    6  A    between atoms: O_9  and  C_10
REMARK    7  A    between atoms: C_10  and  C_11
REMARK    8  A    between atoms: N_19  and  C_20
REMARK                            x       y       z     vdW  Elec       q    Type
REMARK                         _______ _______ _______ _____ _____    ______ ____
ROOT
ATOM      1  C   UNL     1      25.552  15.234  41.174  0.00  0.00    +0.000 C 
ENDROOT
BRANCH   1   2
ATOM      2  N   UNL     1      25.970  13.862  41.462  0.00  0.00    +0.000 NA
ATOM      3  C   UNL     1      25.585  12.751  42.105  0.00  0.00    +0.000 C 
ATOM      4  O   UNL     1      24.515  12.869  42.720  0.00  0.00    +0.000 OA
BRANCH   3   5
ATOM      5  O   UNL     1      26.330  11.554  42.043  0.00  0.00    +0.000 OA
BRANCH   5   6
ATOM      6  C   UNL     1      26.962  11.379  40.719  0.00  0.00    +0.000 C 
BRANCH   6   7
ATOM      7  C   UNL     1      27.999  10.320  41.033  0.00  0.00    +0.000 A 
ATOM      8  C   UNL     1      27.768   9.261  41.817  0.00  0.00    +0.000 A 
ATOM      9  C   UNL     1      28.623   8.239  42.126  0.00  0.00    +0.000 A 
ATOM     10  C   UNL     1      29.885   8.321  41.540  0.00  0.00    +0.000 A 
ATOM     11  C   UNL     1      30.157   9.393  40.730  0.00  0.00    +0.000 A 
ATOM     12  C   UNL     1      29.271  10.427  40.432  0.00  0.00    +0.000 A 
ENDBRANCH   6   7
ENDBRANCH   5   6
ENDBRANCH   3   5
ENDBRANCH   1   2
BRANCH   1  13
ATOM     13  C   UNL     1      25.077  15.217  39.689  0.00  0.00    +0.000 C 
ATOM     14  O   UNL     1      24.032  14.626  39.358  0.00  0.00    +0.000 OA
ATOM     15  N   UNL     1      25.807  15.866  38.738  0.00  0.00    +0.000 NA
BRANCH  15  16
ATOM     16  C   UNL     1      25.647  16.043  37.374  0.00  0.00    +0.000 A 
ATOM     17  C   UNL     1      25.180  17.295  37.007  0.00  0.00    +0.000 A 
ATOM     18  C   UNL     1      24.937  17.622  35.680  0.00  0.00    +0.000 A 
ATOM     19  C   UNL     1      25.137  16.712  34.660  0.00  0.00    +0.000 A 
ATOM     20  C   UNL     1      24.857  17.071  33.348  0.00  0.00    +0.000 A 
ATOM     21  C   UNL     1      25.049  16.121  32.401  0.00  0.00    +0.000 A 
ATOM     22  C   UNL     1      25.502  14.822  32.694  0.00  0.00    +0.000 A 
ATOM     23  C   UNL     1      25.783  14.476  34.010  0.00  0.00    +0.000 A 
ATOM     24  C   UNL     1      25.604  15.434  35.007  0.00  0.00    +0.000 A 
ATOM     25  C   UNL     1      25.845  15.166  36.337  0.00  0.00    +0.000 A 
ENDBRANCH  15  16
ENDBRANCH   1  13
BRANCH   1  26
ATOM     26  C   UNL     1      26.951  16.031  40.962  0.00  0.00    +0.000 C 
BRANCH  26  28
ATOM     27  C   UNL     1      27.859  16.994  43.083  0.00  0.00    +0.000 C 
ATOM     28  C   UNL     1      26.797  17.163  41.999  0.00  0.00    +0.000 C 
ATOM     29  C   UNL     1      27.086  18.462  41.266  0.00  0.00    +0.000 C 
ENDBRANCH  26  28
ENDBRANCH   1  26
TORSDOF 8
ENDMDL
MODEL 9
REMARK VINA RESULT:      -6.7      2.260      6.819
REMARK  Name = 
REMARK  8 active torsions:
REMARK  status: ('A' for Active; 'I' for Inactive)
REMARK    1  A    between atoms: C_2  and  C_4
REMARK    2  A    between atoms: C_4  and  C_5
REMARK    3  A    between atoms: C_5  and  N_6
REMARK    4  A    between atoms: C_5  and  C_17
REMARK    5  A    between atoms: C_7  and  O_9
REMARK    6  A    between atoms: O_9  and  C_10
REMARK    7  A    between atoms: C_10  and  C_11
REMARK    8  A    between atoms: N_19  and  C_20
REMARK                            x       y       z     vdW  Elec       q    Type
REMARK                         _______ _______ _______ _____ _____    ______ ____
ROOT
ATOM      1  C   UNL     1      37.341   3.787  15.365  0.00  0.00    +0.000 C 
ENDROOT
BRANCH   1   2
ATOM      2  N   UNL     1      36.343   2.969  16.054  0.00  0.00    +0.000 NA
ATOM      3  C   UNL     1      35.033   2.688  16.071  0.00  0.00    +0.000 C 
ATOM      4  O   UNL     1      34.366   3.343  15.257  0.00  0.00    +0.000 OA
BRANCH   3   5
ATOM      5  O   UNL     1      34.488   1.706  16.925  0.00  0.00    +0.000 OA
BRANCH   5   6
ATOM      6  C   UNL     1      35.549   0.912  17.579  0.00  0.00    +0.000 C 
BRANCH   6   7
ATOM      7  C   UNL     1      35.417  -0.406  16.844  0.00  0.00    +0.000 A 
ATOM      8  C   UNL     1      36.182  -0.759  15.805  0.00  0.00    +0.000 A 
ATOM      9  C   UNL     1      36.163  -1.935  15.105  0.00  0.00    +0.000 A 
ATOM     10  C   UNL     1      35.231  -2.874  15.544  0.00  0.00    +0.000 A 
ATOM     11  C   UNL     1      34.430  -2.547  16.608  0.00  0.00    +0.000 A 
ATOM     12  C   UNL     1      34.463  -1.339  17.303  0.00  0.00    +0.000 A 
ENDBRANCH   6   7
ENDBRANCH   5   6
ENDBRANCH   3   5
ENDBRANCH   1   2
BRANCH   1  13
ATOM     13  C   UNL     1      38.036   2.824  14.353  0.00  0.00    +0.000 C 
ATOM     14  O   UNL     1      37.962   3.023  13.126  0.00  0.00    +0.000 OA
ATOM     15  N   UNL     1      38.745   1.756  14.815  0.00  0.00    +0.000 NA
BRANCH  15  16
ATOM     16  C   UNL     1      39.467   0.753  14.191  0.00  0.00    +0.000 A 
ATOM     17  C   UNL     1      40.843   0.882  14.300  0.00  0.00    +0.000 A 
ATOM     18  C   UNL     1      41.708  -0.023  13.703  0.00  0.00    +0.000 A 
ATOM     19  C   UNL     1      41.244  -1.092  12.960  0.00  0.00    +0.000 A 
ATOM     20  C   UNL     1      42.144  -1.961  12.358  0.00  0.00    +0.000 A 
ATOM     21  C   UNL     1      41.620  -2.970  11.622  0.00  0.00    +0.000 A 
ATOM     22  C   UNL     1      40.237  -3.158  11.448  0.00  0.00    +0.000 A 
ATOM     23  C   UNL     1      39.345  -2.286  12.059  0.00  0.00    +0.000 A 
ATOM     24  C   UNL     1      39.854  -1.241  12.831  0.00  0.00    +0.000 A 
ATOM     25  C   UNL     1      39.037  -0.324  13.456  0.00  0.00    +0.000 A 
ENDBRANCH  15  16
ENDBRANCH   1  13
BRANCH   1  26
ATOM     26  C   UNL     1      38.552   3.911  16.439  0.00  0.00    +0.000 C 
BRANCH  26  28
ATOM     27  C   UNL     1      39.044   5.351  18.422  0.00  0.00    +0.000 C 
ATOM     28  C   UNL     1      38.106   5.157  17.232  0.00  0.00    +0.000 C 
ATOM     29  C   UNL     1      38.284   6.347  16.305  0.00  0.00    +0.000 C 
ENDBRANCH  26  28
ENDBRANCH   1  26
TORSDOF 8
ENDMDL
MODEL 10
REMARK VINA RESULT:      -6.7      2.277      9.009
REMARK  Name = 
REMARK  8 active torsions:
REMARK  status: ('A' for Active; 'I' for Inactive)
REMARK    1  A    between atoms: C_2  and  C_4
REMARK    2  A    between atoms: C_4  and  C_5
REMARK    3  A    between atoms: C_5  and  N_6
REMARK    4  A    between atoms: C_5  and  C_17
REMARK    5  A    between atoms: C_7  and  O_9
REMARK    6  A    between atoms: O_9  and  C_10
REMARK    7  A    between atoms: C_10  and  C_11
REMARK    8  A    between atoms: N_19  and  C_20
REMARK                            x       y       z     vdW  Elec       q    Type
REMARK                         _______ _______ _______ _____ _____    ______ ____
ROOT
ATOM      1  C   UNL     1      38.661   5.654  15.495  0.00  0.00    +0.000 C 
ENDROOT
BRANCH   1   2
ATOM      2  N   UNL     1      38.592   6.681  16.534  0.00  0.00    +0.000 NA
ATOM      3  C   UNL     1      38.043   7.872  16.810  0.00  0.00    +0.000 C 
ATOM      4  O   UNL     1      37.363   8.340  15.887  0.00  0.00    +0.000 OA
BRANCH   3   5
ATOM      5  O   UNL     1      38.212   8.502  18.062  0.00  0.00    +0.000 OA
BRANCH   5   6
ATOM      6  C   UNL     1      38.193   7.521  19.167  0.00  0.00    +0.000 C 
BRANCH   6   7
ATOM      7  C   UNL     1      39.649   7.525  19.581  0.00  0.00    +0.000 A 
ATOM      8  C   UNL     1      40.361   8.638  19.793  0.00  0.00    +0.000 A 
ATOM      9  C   UNL     1      41.662   8.742  20.203  0.00  0.00    +0.000 A 
ATOM     10  C   UNL     1      42.313   7.530  20.430  0.00  0.00    +0.000 A 
ATOM     11  C   UNL     1      41.615   6.369  20.224  0.00  0.00    +0.000 A 
ATOM     12  C   UNL     1      40.289   6.286  19.801  0.00  0.00    +0.000 A 
ENDBRANCH   6   7
ENDBRANCH   5   6
ENDBRANCH   3   5
ENDBRANCH   1   2
BRANCH   1  13
ATOM     13  C   UNL     1      38.100   4.358  16.159  0.00  0.00    +0.000 C 
ATOM     14  O   UNL     1      38.353   4.087  17.348  0.00  0.00    +0.000 OA
ATOM     15  N   UNL     1      37.314   3.513  15.434  0.00  0.00    +0.000 NA
BRANCH  15  16
ATOM     16  C   UNL     1      36.671   2.324  15.732  0.00  0.00    +0.000 A 
ATOM     17  C   UNL     1      35.589   2.455  16.589  0.00  0.00    +0.000 A 
ATOM     18  C   UNL     1      34.857   1.353  17.011  0.00  0.00    +0.000 A 
ATOM     19  C   UNL     1      35.176   0.071  16.608  0.00  0.00    +0.000 A 
ATOM     20  C   UNL     1      34.434  -1.007  17.073  0.00  0.00    +0.000 A 
ATOM     21  C   UNL     1      34.820  -2.238  16.661  0.00  0.00    +0.000 A 
ATOM     22  C   UNL     1      35.916  -2.455  15.808  0.00  0.00    +0.000 A 
ATOM     23  C   UNL     1      36.649  -1.369  15.344  0.00  0.00    +0.000 A 
ATOM     24  C   UNL     1      36.272  -0.088  15.745  0.00  0.00    +0.000 A 
ATOM     25  C   UNL     1      36.956   1.039  15.343  0.00  0.00    +0.000 A 
ENDBRANCH  15  16
ENDBRANCH   1  13
BRANCH   1  26
ATOM     26  C   UNL     1      40.230   5.238  15.461  0.00  0.00    +0.000 C 
BRANCH  26  28
ATOM     27  C   UNL     1      42.120   6.514  16.484  0.00  0.00    +0.000 C 
ATOM     28  C   UNL     1      40.897   6.624  15.576  0.00  0.00    +0.000 C 
ATOM     29  C   UNL     1      41.386   6.986  14.184  0.00  0.00    +0.000 C 
ENDBRANCH  26  28
ENDBRANCH   1  26
TORSDOF 8
ENDMDL
