MODEL 1
REMARK VINA RESULT:      -5.6      0.000      0.000
REMARK  Name = 
REMARK  2 active torsions:
REMARK  status: ('A' for Active; 'I' for Inactive)
REMARK    1  A    between atoms: C_5  and  N_6
REMARK    2  A    between atoms: N_6  and  C_7
REMARK                            x       y       z     vdW  Elec       q    Type
REMARK                         _______ _______ _______ _____ _____    ______ ____
ROOT
ATOM      1  C   UNL     1      27.502   5.782  12.778  0.00  0.00    +0.000 C 
ATOM      2  C   UNL     1      27.322   6.322  14.152  0.00  0.00    +0.000 C 
ATOM      3  C   UNL     1      26.107   7.207  14.308  0.00  0.00    +0.000 C 
ATOM      4  C   UNL     1      27.157   5.192  15.135  0.00  0.00    +0.000 C 
ATOM      5  C   UNL     1      27.097   5.417  16.434  0.00  0.00    +0.000 C 
ATOM      6  C   UNL     1      27.211   6.903  16.822  0.00  0.00    +0.000 C 
ATOM      7 BR   UNL     1      27.845   6.748  18.728  0.00  0.00    +0.000 Br
ATOM      8  C   UNL     1      28.535   7.204  16.130  0.00  0.00    +0.000 C 
ATOM      9  O   UNL     1      29.557   7.500  16.673  0.00  0.00    +0.000 OA
ATOM     10  C   UNL     1      28.514   7.111  14.654  0.00  0.00    +0.000 C 
ENDROOT
BRANCH   5  11
ATOM     11  N   UNL     1      26.946   4.376  17.317  0.00  0.00    +0.000 NA
BRANCH  11  12
ATOM     12  C   UNL     1      25.692   3.818  17.649  0.00  0.00    +0.000 A 
ATOM     13  C   UNL     1      24.628   4.568  18.083  0.00  0.00    +0.000 A 
ATOM     14  C   UNL     1      23.423   3.963  18.394  0.00  0.00    +0.000 A 
ATOM     15  C   UNL     1      23.274   2.597  18.272  0.00  0.00    +0.000 A 
ATOM     16  C   UNL     1      24.343   1.818  17.834  0.00  0.00    +0.000 A 
ATOM     17  C   UNL     1      25.539   2.458  17.530  0.00  0.00    +0.000 A 
ATOM     18  O   UNL     1      26.606   1.672  17.091  0.00  0.00    +0.000 OA
ENDBRANCH  11  12
ENDBRANCH   5  11
TORSDOF 2
ENDMDL
MODEL 2
REMARK VINA RESULT:      -5.4     20.067     21.444
REMARK  Name = 
REMARK  2 active torsions:
REMARK  status: ('A' for Active; 'I' for Inactive)
REMARK    1  A    between atoms: C_5  and  N_6
REMARK    2  A    between atoms: N_6  and  C_7
REMARK                            x       y       z     vdW  Elec       q    Type
REMARK                         _______ _______ _______ _____ _____    ______ ____
ROOT
ATOM      1  C   UNL     1      31.701  24.636  24.709  0.00  0.00    +0.000 C 
ATOM      2  C   UNL     1      30.404  23.930  24.537  0.00  0.00    +0.000 C 
ATOM      3  C   UNL     1      30.488  22.435  24.747  0.00  0.00    +0.000 C 
ATOM      4  C   UNL     1      29.398  24.445  25.533  0.00  0.00    +0.000 C 
ATOM      5  C   UNL     1      28.138  24.052  25.500  0.00  0.00    +0.000 C 
ATOM      6  C   UNL     1      27.820  23.049  24.376  0.00  0.00    +0.000 C 
ATOM      7 BR   UNL     1      25.833  23.319  24.180  0.00  0.00    +0.000 Br
ATOM      8  C   UNL     1      28.314  23.883  23.199  0.00  0.00    +0.000 C 
ATOM      9  O   UNL     1      27.636  24.320  22.318  0.00  0.00    +0.000 OA
ATOM     10  C   UNL     1      29.768  24.153  23.181  0.00  0.00    +0.000 C 
ENDROOT
BRANCH   5  11
ATOM     11  N   UNL     1      27.234  24.532  26.415  0.00  0.00    +0.000 NA
BRANCH  11  12
ATOM     12  C   UNL     1      27.016  23.935  27.676  0.00  0.00    +0.000 A 
ATOM     13  C   UNL     1      27.614  22.761  28.063  0.00  0.00    +0.000 A 
ATOM     14  C   UNL     1      27.362  22.225  29.313  0.00  0.00    +0.000 A 
ATOM     15  C   UNL     1      26.506  22.861  30.189  0.00  0.00    +0.000 A 
ATOM     16  C   UNL     1      25.890  24.054  29.814  0.00  0.00    +0.000 A 
ATOM     17  C   UNL     1      26.166  24.565  28.551  0.00  0.00    +0.000 A 
ATOM     18  O   UNL     1      25.545  25.760  28.181  0.00  0.00    +0.000 OA
ENDBRANCH  11  12
ENDBRANCH   5  11
TORSDOF 2
ENDMDL
MODEL 3
REMARK VINA RESULT:      -5.2     20.020     21.335
REMARK  Name = 
REMARK  2 active torsions:
REMARK  status: ('A' for Active; 'I' for Inactive)
REMARK    1  A    between atoms: C_5  and  N_6
REMARK    2  A    between atoms: N_6  and  C_7
REMARK                            x       y       z     vdW  Elec       q    Type
REMARK                         _______ _______ _______ _____ _____    ______ ____
ROOT
ATOM      1  C   UNL     1      26.324  23.836  27.624  0.00  0.00    +0.000 C 
ATOM      2  C   UNL     1      27.638  23.319  27.158  0.00  0.00    +0.000 C 
ATOM      3  C   UNL     1      27.920  21.895  27.578  0.00  0.00    +0.000 C 
ATOM      4  C   UNL     1      27.699  23.341  25.653  0.00  0.00    +0.000 C 
ATOM      5  C   UNL     1      28.810  23.037  25.008  0.00  0.00    +0.000 C 
ATOM      6  C   UNL     1      29.992  22.674  25.925  0.00  0.00    +0.000 C 
ATOM      7 BR   UNL     1      31.549  23.051  24.703  0.00  0.00    +0.000 Br
ATOM      8  C   UNL     1      30.008  23.944  26.767  0.00  0.00    +0.000 C 
ATOM      9  O   UNL     1      30.885  24.754  26.794  0.00  0.00    +0.000 OA
ATOM     10  C   UNL     1      28.814  24.158  27.614  0.00  0.00    +0.000 C 
ENDROOT
BRANCH   5  11
ATOM     11  N   UNL     1      28.849  23.062  23.635  0.00  0.00    +0.000 NA
BRANCH  11  12
ATOM     12  C   UNL     1      28.658  24.237  22.876  0.00  0.00    +0.000 A 
ATOM     13  C   UNL     1      29.557  25.272  22.857  0.00  0.00    +0.000 A 
ATOM     14  C   UNL     1      29.315  26.399  22.092  0.00  0.00    +0.000 A 
ATOM     15  C   UNL     1      28.164  26.498  21.336  0.00  0.00    +0.000 A 
ATOM     16  C   UNL     1      27.239  25.456  21.343  0.00  0.00    +0.000 A 
ATOM     17  C   UNL     1      27.514  24.339  22.122  0.00  0.00    +0.000 A 
ATOM     18  O   UNL     1      26.582  23.299  22.124  0.00  0.00    +0.000 OA
ENDBRANCH  11  12
ENDBRANCH   5  11
TORSDOF 2
ENDMDL
MODEL 4
REMARK VINA RESULT:      -5.2     20.754     21.708
REMARK  Name = 
REMARK  2 active torsions:
REMARK  status: ('A' for Active; 'I' for Inactive)
REMARK    1  A    between atoms: C_5  and  N_6
REMARK    2  A    between atoms: N_6  and  C_7
REMARK                            x       y       z     vdW  Elec       q    Type
REMARK                         _______ _______ _______ _____ _____    ______ ____
ROOT
ATOM      1  C   UNL     1      27.137  28.244  21.015  0.00  0.00    +0.000 C 
ATOM      2  C   UNL     1      27.947  27.278  21.805  0.00  0.00    +0.000 C 
ATOM      3  C   UNL     1      28.800  27.924  22.872  0.00  0.00    +0.000 C 
ATOM      4  C   UNL     1      27.044  26.302  22.512  0.00  0.00    +0.000 C 
ATOM      5  C   UNL     1      27.535  25.277  23.184  0.00  0.00    +0.000 C 
ATOM      6  C   UNL     1      29.072  25.190  23.166  0.00  0.00    +0.000 C 
ATOM      7 BR   UNL     1      29.345  23.233  23.560  0.00  0.00    +0.000 Br
ATOM      8  C   UNL     1      29.269  25.183  21.655  0.00  0.00    +0.000 C 
ATOM      9  O   UNL     1      29.709  24.278  21.011  0.00  0.00    +0.000 OA
ATOM     10  C   UNL     1      28.867  26.424  20.957  0.00  0.00    +0.000 C 
ENDROOT
BRANCH   5  11
ATOM     11  N   UNL     1      26.697  24.396  23.823  0.00  0.00    +0.000 NA
BRANCH  11  12
ATOM     12  C   UNL     1      26.039  24.694  25.036  0.00  0.00    +0.000 A 
ATOM     13  C   UNL     1      25.278  25.822  25.219  0.00  0.00    +0.000 A 
ATOM     14  C   UNL     1      24.656  26.059  26.432  0.00  0.00    +0.000 A 
ATOM     15  C   UNL     1      24.792  25.166  27.475  0.00  0.00    +0.000 A 
ATOM     16  C   UNL     1      25.561  24.016  27.308  0.00  0.00    +0.000 A 
ATOM     17  C   UNL     1      26.171  23.808  26.077  0.00  0.00    +0.000 A 
ATOM     18  O   UNL     1      26.940  22.653  25.917  0.00  0.00    +0.000 OA
ENDBRANCH  11  12
ENDBRANCH   5  11
TORSDOF 2
ENDMDL
MODEL 5
REMARK VINA RESULT:      -5.2     19.896     21.624
REMARK  Name = 
REMARK  2 active torsions:
REMARK  status: ('A' for Active; 'I' for Inactive)
REMARK    1  A    between atoms: C_5  and  N_6
REMARK    2  A    between atoms: N_6  and  C_7
REMARK                            x       y       z     vdW  Elec       q    Type
REMARK                         _______ _______ _______ _____ _____    ______ ____
ROOT
ATOM      1  C   UNL     1      25.337  25.313  28.396  0.00  0.00    +0.000 C 
ATOM      2  C   UNL     1      26.438  24.317  28.320  0.00  0.00    +0.000 C 
ATOM      3  C   UNL     1      26.198  23.075  29.149  0.00  0.00    +0.000 C 
ATOM      4  C   UNL     1      26.620  23.853  26.899  0.00  0.00    +0.000 C 
ATOM      5  C   UNL     1      27.615  23.053  26.561  0.00  0.00    +0.000 C 
ATOM      6  C   UNL     1      28.533  22.661  27.733  0.00  0.00    +0.000 C 
ATOM      7 BR   UNL     1      30.218  22.167  26.743  0.00  0.00    +0.000 Br
ATOM      8  C   UNL     1      28.904  24.066  28.194  0.00  0.00    +0.000 C 
ATOM      9  O   UNL     1      29.995  24.550  28.155  0.00  0.00    +0.000 OA
ATOM     10  C   UNL     1      27.786  24.871  28.732  0.00  0.00    +0.000 C 
ENDROOT
BRANCH   5  11
ATOM     11  N   UNL     1      27.767  22.639  25.261  0.00  0.00    +0.000 NA
BRANCH  11  12
ATOM     12  C   UNL     1      28.016  23.525  24.190  0.00  0.00    +0.000 A 
ATOM     13  C   UNL     1      29.148  24.296  24.103  0.00  0.00    +0.000 A 
ATOM     14  C   UNL     1      29.337  25.147  23.028  0.00  0.00    +0.000 A 
ATOM     15  C   UNL     1      28.390  25.232  22.028  0.00  0.00    +0.000 A 
ATOM     16  C   UNL     1      27.233  24.458  22.100  0.00  0.00    +0.000 A 
ATOM     17  C   UNL     1      27.076  23.614  23.193  0.00  0.00    +0.000 A 
ATOM     18  O   UNL     1      25.915  22.840  23.258  0.00  0.00    +0.000 OA
ENDBRANCH  11  12
ENDBRANCH   5  11
TORSDOF 2
ENDMDL
MODEL 6
REMARK VINA RESULT:      -5.1     20.220     21.704
REMARK  Name = 
REMARK  2 active torsions:
REMARK  status: ('A' for Active; 'I' for Inactive)
REMARK    1  A    between atoms: C_5  and  N_6
REMARK    2  A    between atoms: N_6  and  C_7
REMARK                            x       y       z     vdW  Elec       q    Type
REMARK                         _______ _______ _______ _____ _____    ______ ____
ROOT
ATOM      1  C   UNL     1      25.051  24.918  26.758  0.00  0.00    +0.000 C 
ATOM      2  C   UNL     1      25.756  25.094  25.461  0.00  0.00    +0.000 C 
ATOM      3  C   UNL     1      25.538  26.448  24.824  0.00  0.00    +0.000 C 
ATOM      4  C   UNL     1      27.242  24.947  25.654  0.00  0.00    +0.000 C 
ATOM      5  C   UNL     1      28.071  24.947  24.626  0.00  0.00    +0.000 C 
ATOM      6  C   UNL     1      27.379  25.107  23.260  0.00  0.00    +0.000 C 
ATOM      7 BR   UNL     1      28.766  24.304  22.038  0.00  0.00    +0.000 Br
ATOM      8  C   UNL     1      26.415  23.932  23.369  0.00  0.00    +0.000 C 
ATOM      9  O   UNL     1      26.427  22.951  22.687  0.00  0.00    +0.000 OA
ATOM     10  C   UNL     1      25.386  24.052  24.425  0.00  0.00    +0.000 C 
ENDROOT
BRANCH   5  11
ATOM     11  N   UNL     1      29.423  24.812  24.820  0.00  0.00    +0.000 NA
BRANCH  11  12
ATOM     12  C   UNL     1      29.985  23.956  25.793  0.00  0.00    +0.000 A 
ATOM     13  C   UNL     1      29.773  22.601  25.812  0.00  0.00    +0.000 A 
ATOM     14  C   UNL     1      30.351  21.814  26.793  0.00  0.00    +0.000 A 
ATOM     15  C   UNL     1      31.149  22.380  27.765  0.00  0.00    +0.000 A 
ATOM     16  C   UNL     1      31.375  23.755  27.763  0.00  0.00    +0.000 A 
ATOM     17  C   UNL     1      30.780  24.516  26.764  0.00  0.00    +0.000 A 
ATOM     18  O   UNL     1      31.011  25.893  26.767  0.00  0.00    +0.000 OA
ENDBRANCH  11  12
ENDBRANCH   5  11
TORSDOF 2
ENDMDL
MODEL 7
REMARK VINA RESULT:      -5.1     17.658     18.928
REMARK  Name = 
REMARK  2 active torsions:
REMARK  status: ('A' for Active; 'I' for Inactive)
REMARK    1  A    between atoms: C_5  and  N_6
REMARK    2  A    between atoms: N_6  and  C_7
REMARK                            x       y       z     vdW  Elec       q    Type
REMARK                         _______ _______ _______ _____ _____    ______ ____
ROOT
ATOM      1  C   UNL     1      34.824  19.771  10.854  0.00  0.00    +0.000 C 
ATOM      2  C   UNL     1      33.695  20.724  11.022  0.00  0.00    +0.000 C 
ATOM      3  C   UNL     1      34.081  22.172  10.815  0.00  0.00    +0.000 C 
ATOM      4  C   UNL     1      32.610  20.424  10.022  0.00  0.00    +0.000 C 
ATOM      5  C   UNL     1      31.455  21.063  10.050  0.00  0.00    +0.000 C 
ATOM      6  C   UNL     1      31.342  22.108  11.174  0.00  0.00    +0.000 C 
ATOM      7 BR   UNL     1      29.340  22.245  11.362  0.00  0.00    +0.000 Br
ATOM      8  C   UNL     1      31.652  21.192  12.352  0.00  0.00    +0.000 C 
ATOM      9  O   UNL     1      30.896  20.899  13.229  0.00  0.00    +0.000 OA
ATOM     10  C   UNL     1      33.022  20.634  12.376  0.00  0.00    +0.000 C 
ENDROOT
BRANCH   5  11
ATOM     11  N   UNL     1      30.477  20.776   9.130  0.00  0.00    +0.000 NA
BRANCH  11  12
ATOM     12  C   UNL     1      30.714  20.716   7.740  0.00  0.00    +0.000 A 
ATOM     13  C   UNL     1      30.518  19.580   6.995  0.00  0.00    +0.000 A 
ATOM     14  C   UNL     1      30.767  19.582   5.634  0.00  0.00    +0.000 A 
ATOM     15  C   UNL     1      31.217  20.726   5.006  0.00  0.00    +0.000 A 
ATOM     16  C   UNL     1      31.423  21.888   5.747  0.00  0.00    +0.000 A 
ATOM     17  C   UNL     1      31.162  21.852   7.111  0.00  0.00    +0.000 A 
ATOM     18  O   UNL     1      31.370  23.020   7.847  0.00  0.00    +0.000 OA
ENDBRANCH  11  12
ENDBRANCH   5  11
TORSDOF 2
ENDMDL
MODEL 8
REMARK VINA RESULT:      -5.1     20.444     22.448
REMARK  Name = 
REMARK  2 active torsions:
REMARK  status: ('A' for Active; 'I' for Inactive)
REMARK    1  A    between atoms: C_5  and  N_6
REMARK    2  A    between atoms: N_6  and  C_7
REMARK                            x       y       z     vdW  Elec       q    Type
REMARK                         _______ _______ _______ _____ _____    ______ ____
ROOT
ATOM      1  C   UNL     1      26.603  27.438  27.861  0.00  0.00    +0.000 C 
ATOM      2  C   UNL     1      26.270  26.159  28.545  0.00  0.00    +0.000 C 
ATOM      3  C   UNL     1      24.792  25.966  28.796  0.00  0.00    +0.000 C 
ATOM      4  C   UNL     1      26.717  24.992  27.705  0.00  0.00    +0.000 C 
ATOM      5  C   UNL     1      26.634  23.753  28.154  0.00  0.00    +0.000 C 
ATOM      6  C   UNL     1      26.055  23.635  29.575  0.00  0.00    +0.000 C 
ATOM      7 BR   UNL     1      26.798  21.850  30.140  0.00  0.00    +0.000 Br
ATOM      8  C   UNL     1      27.035  24.562  30.284  0.00  0.00    +0.000 C 
ATOM      9  O   UNL     1      27.825  24.238  31.119  0.00  0.00    +0.000 OA
ATOM     10  C   UNL     1      26.973  25.983  29.875  0.00  0.00    +0.000 C 
ENDROOT
BRANCH   5  11
ATOM     11  N   UNL     1      27.047  22.700  27.375  0.00  0.00    +0.000 NA
BRANCH  11  12
ATOM     12  C   UNL     1      28.300  22.659  26.727  0.00  0.00    +0.000 A 
ATOM     13  C   UNL     1      29.480  22.428  27.389  0.00  0.00    +0.000 A 
ATOM     14  C   UNL     1      30.679  22.400  26.699  0.00  0.00    +0.000 A 
ATOM     15  C   UNL     1      30.706  22.604  25.335  0.00  0.00    +0.000 A 
ATOM     16  C   UNL     1      29.518  22.840  24.645  0.00  0.00    +0.000 A 
ATOM     17  C   UNL     1      28.332  22.862  25.369  0.00  0.00    +0.000 A 
ATOM     18  O   UNL     1      27.146  23.099  24.671  0.00  0.00    +0.000 OA
ENDBRANCH  11  12
ENDBRANCH   5  11
TORSDOF 2
ENDMDL
MODEL 9
REMARK VINA RESULT:      -5.0     20.140     21.421
REMARK  Name = 
REMARK  2 active torsions:
REMARK  status: ('A' for Active; 'I' for Inactive)
REMARK    1  A    between atoms: C_5  and  N_6
REMARK    2  A    between atoms: N_6  and  C_7
REMARK                            x       y       z     vdW  Elec       q    Type
REMARK                         _______ _______ _______ _____ _____    ______ ____
ROOT
ATOM      1  C   UNL     1      24.936  25.413  25.048  0.00  0.00    +0.000 C 
ATOM      2  C   UNL     1      26.376  25.062  24.933  0.00  0.00    +0.000 C 
ATOM      3  C   UNL     1      27.312  26.206  25.248  0.00  0.00    +0.000 C 
ATOM      4  C   UNL     1      26.718  23.954  25.894  0.00  0.00    +0.000 C 
ATOM      5  C   UNL     1      27.912  23.391  25.895  0.00  0.00    +0.000 C 
ATOM      6  C   UNL     1      28.881  23.968  24.847  0.00  0.00    +0.000 C 
ATOM      7 BR   UNL     1      30.172  22.435  24.642  0.00  0.00    +0.000 Br
ATOM      8  C   UNL     1      28.016  23.748  23.612  0.00  0.00    +0.000 C 
ATOM      9  O   UNL     1      28.266  23.011  22.705  0.00  0.00    +0.000 OA
ATOM     10  C   UNL     1      26.764  24.535  23.567  0.00  0.00    +0.000 C 
ENDROOT
BRANCH   5  11
ATOM     11  N   UNL     1      28.207  22.381  26.778  0.00  0.00    +0.000 NA
BRANCH  11  12
ATOM     12  C   UNL     1      28.816  22.602  28.033  0.00  0.00    +0.000 A 
ATOM     13  C   UNL     1      30.172  22.735  28.195  0.00  0.00    +0.000 A 
ATOM     14  C   UNL     1      30.710  22.951  29.451  0.00  0.00    +0.000 A 
ATOM     15  C   UNL     1      29.892  23.036  30.559  0.00  0.00    +0.000 A 
ATOM     16  C   UNL     1      28.512  22.904  30.414  0.00  0.00    +0.000 A 
ATOM     17  C   UNL     1      28.004  22.688  29.138  0.00  0.00    +0.000 A 
ATOM     18  O   UNL     1      26.621  22.557  29.000  0.00  0.00    +0.000 OA
ENDBRANCH  11  12
ENDBRANCH   5  11
TORSDOF 2
ENDMDL
MODEL 10
REMARK VINA RESULT:      -4.9     18.873     20.694
REMARK  Name = 
REMARK  2 active torsions:
REMARK  status: ('A' for Active; 'I' for Inactive)
REMARK    1  A    between atoms: C_5  and  N_6
REMARK    2  A    between atoms: N_6  and  C_7
REMARK                            x       y       z     vdW  Elec       q    Type
REMARK                         _______ _______ _______ _____ _____    ______ ____
ROOT
ATOM      1  C   UNL     1      30.110  -8.948  32.327  0.00  0.00    +0.000 C 
ATOM      2  C   UNL     1      30.748  -7.928  31.453  0.00  0.00    +0.000 C 
ATOM      3  C   UNL     1      29.887  -6.710  31.204  0.00  0.00    +0.000 C 
ATOM      4  C   UNL     1      32.022  -7.429  32.084  0.00  0.00    +0.000 C 
ATOM      5  C   UNL     1      32.826  -6.602  31.442  0.00  0.00    +0.000 C 
ATOM      6  C   UNL     1      32.341  -6.218  30.032  0.00  0.00    +0.000 C 
ATOM      7 BR   UNL     1      34.077  -5.669  29.171  0.00  0.00    +0.000 Br
ATOM      8  C   UNL     1      32.201  -7.625  29.463  0.00  0.00    +0.000 C 
ATOM      9  O   UNL     1      32.847  -8.086  28.571  0.00  0.00    +0.000 OA
ATOM     10  C   UNL     1      31.161  -8.464  30.098  0.00  0.00    +0.000 C 
ENDROOT
BRANCH   5  11
ATOM     11  N   UNL     1      33.984  -6.156  32.031  0.00  0.00    +0.000 NA
BRANCH  11  12
ATOM     12  C   UNL     1      34.017  -5.116  32.985  0.00  0.00    +0.000 A 
ATOM     13  C   UNL     1      33.497  -3.868  32.752  0.00  0.00    +0.000 A 
ATOM     14  C   UNL     1      33.559  -2.888  33.727  0.00  0.00    +0.000 A 
ATOM     15  C   UNL     1      34.145  -3.151  34.947  0.00  0.00    +0.000 A 
ATOM     16  C   UNL     1      34.680  -4.413  35.203  0.00  0.00    +0.000 A 
ATOM     17  C   UNL     1      34.600  -5.374  34.202  0.00  0.00    +0.000 A 
ATOM     18  O   UNL     1      35.137  -6.635  34.464  0.00  0.00    +0.000 OA
ENDBRANCH  11  12
ENDBRANCH   5  11
TORSDOF 2
ENDMDL
