MODEL 1
REMARK VINA RESULT:      -7.2      0.000      0.000
REMARK  Name = 
REMARK  4 active torsions:
REMARK  status: ('A' for Active; 'I' for Inactive)
REMARK    1  A    between atoms: C_2  and  C_4
REMARK    2  A    between atoms: C_4  and  O_5
REMARK    3  A    between atoms: O_5  and  C_6
REMARK    4  A    between atoms: C_9  and  C_10
REMARK                            x       y       z     vdW  Elec       q    Type
REMARK                         _______ _______ _______ _____ _____    ______ ____
ROOT
ATOM      1  C   UNL     1      16.356  11.262  32.976  0.00  0.00    +0.000 A 
ATOM      2  C   UNL     1      17.197  10.247  33.319  0.00  0.00    +0.000 A 
ATOM      3  C   UNL     1      17.437   9.834  34.626  0.00  0.00    +0.000 A 
ATOM      4  C   UNL     1      16.782  10.495  35.675  0.00  0.00    +0.000 A 
ATOM      5  C   UNL     1      15.938  11.515  35.333  0.00  0.00    +0.000 A 
ATOM      6  C   UNL     1      15.709  11.912  34.016  0.00  0.00    +0.000 A 
ENDROOT
BRANCH   4   7
ATOM      7  C   UNL     1      17.004  10.054  37.058  0.00  0.00    +0.000 C 
ATOM      8  C   UNL     1      18.159   9.894  37.622  0.00  0.00    +0.000 C 
ATOM      9  N   UNL     1      19.412  10.108  37.033  0.00  0.00    +0.000 NA
ATOM     10  C   UNL     1      20.419   9.823  37.996  0.00  0.00    +0.000 C 
ATOM     11  S   UNL     1      22.046   9.919  37.804  0.00  0.00    +0.000 S 
ATOM     12  N   UNL     1      19.768   9.423  39.201  0.00  0.00    +0.000 NA
ATOM     13  C   UNL     1      18.365   9.452  39.013  0.00  0.00    +0.000 C 
ATOM     14  O   UNL     1      17.454   9.161  39.859  0.00  0.00    +0.000 OA
ENDBRANCH   4   7
BRANCH   1  15
ATOM     15  O   UNL     1      16.164  11.620  31.638  0.00  0.00    +0.000 OA
BRANCH  15  16
ATOM     16  C   UNL     1      14.868  11.981  31.168  0.00  0.00    +0.000 C 
BRANCH  16  18
ATOM     17  C   UNL     1      16.286  13.807  30.195  0.00  0.00    +0.000 C 
ATOM     18  C   UNL     1      14.890  13.361  30.515  0.00  0.00    +0.000 C 
ATOM     19  C   UNL     1      14.122  14.306  31.380  0.00  0.00    +0.000 C 
ENDBRANCH  16  18
ENDBRANCH  15  16
ENDBRANCH   1  15
TORSDOF 4
ENDMDL
MODEL 2
REMARK VINA RESULT:      -6.5      1.758      2.576
REMARK  Name = 
REMARK  4 active torsions:
REMARK  status: ('A' for Active; 'I' for Inactive)
REMARK    1  A    between atoms: C_2  and  C_4
REMARK    2  A    between atoms: C_4  and  O_5
REMARK    3  A    between atoms: O_5  and  C_6
REMARK    4  A    between atoms: C_9  and  C_10
REMARK                            x       y       z     vdW  Elec       q    Type
REMARK                         _______ _______ _______ _____ _____    ______ ____
ROOT
ATOM      1  C   UNL     1      16.622  10.600  34.482  0.00  0.00    +0.000 A 
ATOM      2  C   UNL     1      16.793  11.501  35.488  0.00  0.00    +0.000 A 
ATOM      3  C   UNL     1      17.612  11.297  36.594  0.00  0.00    +0.000 A 
ATOM      4  C   UNL     1      18.316  10.089  36.700  0.00  0.00    +0.000 A 
ATOM      5  C   UNL     1      18.146   9.182  35.691  0.00  0.00    +0.000 A 
ATOM      6  C   UNL     1      17.320   9.407  34.590  0.00  0.00    +0.000 A 
ENDROOT
BRANCH   4   7
ATOM      7  C   UNL     1      19.207   9.868  37.847  0.00  0.00    +0.000 C 
ATOM      8  C   UNL     1      20.497   9.783  37.794  0.00  0.00    +0.000 C 
ATOM      9  N   UNL     1      21.294   9.885  36.646  0.00  0.00    +0.000 NA
ATOM     10  C   UNL     1      22.657   9.742  37.026  0.00  0.00    +0.000 C 
ATOM     11  S   UNL     1      23.979   9.784  36.054  0.00  0.00    +0.000 S 
ATOM     12  N   UNL     1      22.696   9.545  38.439  0.00  0.00    +0.000 NA
ATOM     13  C   UNL     1      21.377   9.564  38.956  0.00  0.00    +0.000 C 
ATOM     14  O   UNL     1      21.009   9.424  40.170  0.00  0.00    +0.000 OA
ENDBRANCH   4   7
BRANCH   1  15
ATOM     15  O   UNL     1      15.781  10.877  33.400  0.00  0.00    +0.000 OA
BRANCH  15  16
ATOM     16  C   UNL     1      15.080  12.115  33.329  0.00  0.00    +0.000 C 
BRANCH  16  18
ATOM     17  C   UNL     1      13.797  13.580  31.747  0.00  0.00    +0.000 C 
ATOM     18  C   UNL     1      14.873  12.543  31.877  0.00  0.00    +0.000 C 
ATOM     19  C   UNL     1      14.654  11.318  31.049  0.00  0.00    +0.000 C 
ENDBRANCH  16  18
ENDBRANCH  15  16
ENDBRANCH   1  15
TORSDOF 4
ENDMDL
MODEL 3
REMARK VINA RESULT:      -6.0     18.401     21.033
REMARK  Name = 
REMARK  4 active torsions:
REMARK  status: ('A' for Active; 'I' for Inactive)
REMARK    1  A    between atoms: C_2  and  C_4
REMARK    2  A    between atoms: C_4  and  O_5
REMARK    3  A    between atoms: O_5  and  C_6
REMARK    4  A    between atoms: C_9  and  C_10
REMARK                            x       y       z     vdW  Elec       q    Type
REMARK                         _______ _______ _______ _____ _____    ______ ____
ROOT
ATOM      1  C   UNL     1      31.587  22.806  28.012  0.00  0.00    +0.000 A 
ATOM      2  C   UNL     1      32.042  23.888  27.323  0.00  0.00    +0.000 A 
ATOM      3  C   UNL     1      31.710  24.175  26.003  0.00  0.00    +0.000 A 
ATOM      4  C   UNL     1      30.854  23.302  25.317  0.00  0.00    +0.000 A 
ATOM      5  C   UNL     1      30.396  22.214  26.006  0.00  0.00    +0.000 A 
ATOM      6  C   UNL     1      30.739  21.946  27.331  0.00  0.00    +0.000 A 
ENDROOT
BRANCH   4   7
ATOM      7  C   UNL     1      30.472  23.604  23.931  0.00  0.00    +0.000 C 
ATOM      8  C   UNL     1      29.264  23.605  23.465  0.00  0.00    +0.000 C 
ATOM      9  N   UNL     1      28.093  23.325  24.181  0.00  0.00    +0.000 NA
ATOM     10  C   UNL     1      26.983  23.444  23.299  0.00  0.00    +0.000 C 
ATOM     11  S   UNL     1      25.396  23.217  23.648  0.00  0.00    +0.000 S 
ATOM     12  N   UNL     1      27.487  23.803  22.013  0.00  0.00    +0.000 NA
ATOM     13  C   UNL     1      28.898  23.914  22.071  0.00  0.00    +0.000 C 
ATOM     14  O   UNL     1      29.700  24.217  21.125  0.00  0.00    +0.000 OA
ENDBRANCH   4   7
BRANCH   1  15
ATOM     15  O   UNL     1      31.963  22.585  29.341  0.00  0.00    +0.000 OA
BRANCH  15  16
ATOM     16  C   UNL     1      31.249  23.204  30.406  0.00  0.00    +0.000 C 
BRANCH  16  18
ATOM     17  C   UNL     1      28.771  22.874  30.617  0.00  0.00    +0.000 C 
ATOM     18  C   UNL     1      30.125  22.300  30.909  0.00  0.00    +0.000 C 
ATOM     19  C   UNL     1      30.371  21.997  32.351  0.00  0.00    +0.000 C 
ENDBRANCH  16  18
ENDBRANCH  15  16
ENDBRANCH   1  15
TORSDOF 4
ENDMDL
MODEL 4
REMARK VINA RESULT:      -5.9     19.912     20.842
REMARK  Name = 
REMARK  4 active torsions:
REMARK  status: ('A' for Active; 'I' for Inactive)
REMARK    1  A    between atoms: C_2  and  C_4
REMARK    2  A    between atoms: C_4  and  O_5
REMARK    3  A    between atoms: O_5  and  C_6
REMARK    4  A    between atoms: C_9  and  C_10
REMARK                            x       y       z     vdW  Elec       q    Type
REMARK                         _______ _______ _______ _____ _____    ______ ____
ROOT
ATOM      1  C   UNL     1      22.418   1.860  17.773  0.00  0.00    +0.000 A 
ATOM      2  C   UNL     1      23.719   1.461  17.733  0.00  0.00    +0.000 A 
ATOM      3  C   UNL     1      24.801   2.284  18.026  0.00  0.00    +0.000 A 
ATOM      4  C   UNL     1      24.559   3.617  18.385  0.00  0.00    +0.000 A 
ATOM      5  C   UNL     1      23.254   4.021  18.425  0.00  0.00    +0.000 A 
ATOM      6  C   UNL     1      22.182   3.179  18.130  0.00  0.00    +0.000 A 
ENDROOT
BRANCH   4   7
ATOM      7  C   UNL     1      25.690   4.492  18.724  0.00  0.00    +0.000 C 
ATOM      8  C   UNL     1      26.272   5.318  17.914  0.00  0.00    +0.000 C 
ATOM      9  N   UNL     1      25.942   5.543  16.571  0.00  0.00    +0.000 NA
ATOM     10  C   UNL     1      26.820   6.532  16.048  0.00  0.00    +0.000 C 
ATOM     11  S   UNL     1      26.848   7.146  14.527  0.00  0.00    +0.000 S 
ATOM     12  N   UNL     1      27.710   6.920  17.094  0.00  0.00    +0.000 NA
ATOM     13  C   UNL     1      27.405   6.192  18.270  0.00  0.00    +0.000 C 
ATOM     14  O   UNL     1      27.979   6.263  19.408  0.00  0.00    +0.000 OA
ENDBRANCH   4   7
BRANCH   1  15
ATOM     15  O   UNL     1      21.380   0.974  17.466  0.00  0.00    +0.000 OA
BRANCH  15  16
ATOM     16  C   UNL     1      20.953   0.802  16.118  0.00  0.00    +0.000 C 
BRANCH  16  18
ATOM     17  C   UNL     1      19.855   2.863  15.202  0.00  0.00    +0.000 C 
ATOM     18  C   UNL     1      19.637   1.535  15.865  0.00  0.00    +0.000 C 
ATOM     19  C   UNL     1      18.877   1.602  17.149  0.00  0.00    +0.000 C 
ENDBRANCH  16  18
ENDBRANCH  15  16
ENDBRANCH   1  15
TORSDOF 4
ENDMDL
MODEL 5
REMARK VINA RESULT:      -5.9      3.675      7.248
REMARK  Name = 
REMARK  4 active torsions:
REMARK  status: ('A' for Active; 'I' for Inactive)
REMARK    1  A    between atoms: C_2  and  C_4
REMARK    2  A    between atoms: C_4  and  O_5
REMARK    3  A    between atoms: O_5  and  C_6
REMARK    4  A    between atoms: C_9  and  C_10
REMARK                            x       y       z     vdW  Elec       q    Type
REMARK                         _______ _______ _______ _____ _____    ______ ____
ROOT
ATOM      1  C   UNL     1      20.611  10.131  37.668  0.00  0.00    +0.000 A 
ATOM      2  C   UNL     1      20.153  11.313  38.165  0.00  0.00    +0.000 A 
ATOM      3  C   UNL     1      18.897  11.846  37.891  0.00  0.00    +0.000 A 
ATOM      4  C   UNL     1      18.031  11.136  37.047  0.00  0.00    +0.000 A 
ATOM      5  C   UNL     1      18.489   9.949  36.546  0.00  0.00    +0.000 A 
ATOM      6  C   UNL     1      19.751   9.431  36.835  0.00  0.00    +0.000 A 
ENDROOT
BRANCH   4   7
ATOM      7  C   UNL     1      16.692  11.672  36.769  0.00  0.00    +0.000 C 
ATOM      8  C   UNL     1      16.158  11.794  35.596  0.00  0.00    +0.000 C 
ATOM      9  N   UNL     1      16.741  11.441  34.373  0.00  0.00    +0.000 NA
ATOM     10  C   UNL     1      15.817  11.730  33.330  0.00  0.00    +0.000 C 
ATOM     11  S   UNL     1      16.020  11.500  31.718  0.00  0.00    +0.000 S 
ATOM     12  N   UNL     1      14.642  12.274  33.929  0.00  0.00    +0.000 NA
ATOM     13  C   UNL     1      14.810  12.331  35.334  0.00  0.00    +0.000 C 
ATOM     14  O   UNL     1      13.980  12.756  36.207  0.00  0.00    +0.000 OA
ENDBRANCH   4   7
BRANCH   1  15
ATOM     15  O   UNL     1      21.887   9.658  37.990  0.00  0.00    +0.000 OA
BRANCH  15  16
ATOM     16  C   UNL     1      22.978  10.563  38.127  0.00  0.00    +0.000 C 
BRANCH  16  18
ATOM     17  C   UNL     1      23.976   9.647  36.016  0.00  0.00    +0.000 C 
ATOM     18  C   UNL     1      23.593  10.888  36.767  0.00  0.00    +0.000 C 
ATOM     19  C   UNL     1      24.713  11.856  36.973  0.00  0.00    +0.000 C 
ENDBRANCH  16  18
ENDBRANCH  15  16
ENDBRANCH   1  15
TORSDOF 4
ENDMDL
MODEL 6
REMARK VINA RESULT:      -5.8     21.132     22.591
REMARK  Name = 
REMARK  4 active torsions:
REMARK  status: ('A' for Active; 'I' for Inactive)
REMARK    1  A    between atoms: C_2  and  C_4
REMARK    2  A    between atoms: C_4  and  O_5
REMARK    3  A    between atoms: O_5  and  C_6
REMARK    4  A    between atoms: C_9  and  C_10
REMARK                            x       y       z     vdW  Elec       q    Type
REMARK                         _______ _______ _______ _____ _____    ______ ____
ROOT
ATOM      1  C   UNL     1      23.834  -8.557  24.047  0.00  0.00    +0.000 A 
ATOM      2  C   UNL     1      23.593  -7.283  23.631  0.00  0.00    +0.000 A 
ATOM      3  C   UNL     1      22.551  -6.488  24.097  0.00  0.00    +0.000 A 
ATOM      4  C   UNL     1      21.678  -7.016  25.059  0.00  0.00    +0.000 A 
ATOM      5  C   UNL     1      21.917  -8.294  25.478  0.00  0.00    +0.000 A 
ATOM      6  C   UNL     1      22.969  -9.074  24.999  0.00  0.00    +0.000 A 
ENDROOT
BRANCH   4   7
ATOM      7  C   UNL     1      20.588  -6.180  25.582  0.00  0.00    +0.000 C 
ATOM      8  C   UNL     1      19.404  -6.597  25.898  0.00  0.00    +0.000 C 
ATOM      9  N   UNL     1      18.931  -7.912  25.809  0.00  0.00    +0.000 NA
ATOM     10  C   UNL     1      17.583  -7.941  26.261  0.00  0.00    +0.000 C 
ATOM     11  S   UNL     1      16.582  -9.239  26.353  0.00  0.00    +0.000 S 
ATOM     12  N   UNL     1      17.221  -6.612  26.633  0.00  0.00    +0.000 NA
ATOM     13  C   UNL     1      18.322  -5.746  26.425  0.00  0.00    +0.000 C 
ATOM     14  O   UNL     1      18.383  -4.489  26.641  0.00  0.00    +0.000 OA
ENDBRANCH   4   7
BRANCH   1  15
ATOM     15  O   UNL     1      24.904  -9.295  23.532  0.00  0.00    +0.000 OA
BRANCH  15  16
ATOM     16  C   UNL     1      26.247  -8.891  23.785  0.00  0.00    +0.000 C 
BRANCH  16  18
ATOM     17  C   UNL     1      27.552  -7.403  22.244  0.00  0.00    +0.000 C 
ATOM     18  C   UNL     1      27.042  -8.793  22.484  0.00  0.00    +0.000 C 
ATOM     19  C   UNL     1      26.205  -9.345  21.376  0.00  0.00    +0.000 C 
ENDBRANCH  16  18
ENDBRANCH  15  16
ENDBRANCH   1  15
TORSDOF 4
ENDMDL
MODEL 7
REMARK VINA RESULT:      -5.6     21.760     23.114
REMARK  Name = 
REMARK  4 active torsions:
REMARK  status: ('A' for Active; 'I' for Inactive)
REMARK    1  A    between atoms: C_2  and  C_4
REMARK    2  A    between atoms: C_4  and  O_5
REMARK    3  A    between atoms: O_5  and  C_6
REMARK    4  A    between atoms: C_9  and  C_10
REMARK                            x       y       z     vdW  Elec       q    Type
REMARK                         _______ _______ _______ _____ _____    ______ ____
ROOT
ATOM      1  C   UNL     1      21.266  -7.790  24.505  0.00  0.00    +0.000 A 
ATOM      2  C   UNL     1      22.088  -6.797  24.942  0.00  0.00    +0.000 A 
ATOM      3  C   UNL     1      23.389  -6.600  24.493  0.00  0.00    +0.000 A 
ATOM      4  C   UNL     1      23.910  -7.473  23.528  0.00  0.00    +0.000 A 
ATOM      5  C   UNL     1      23.088  -8.472  23.087  0.00  0.00    +0.000 A 
ATOM      6  C   UNL     1      21.784  -8.651  23.549  0.00  0.00    +0.000 A 
ENDROOT
BRANCH   4   7
ATOM      7  C   UNL     1      25.274  -7.263  23.023  0.00  0.00    +0.000 C 
ATOM      8  C   UNL     1      26.269  -8.076  23.180  0.00  0.00    +0.000 C 
ATOM      9  N   UNL     1      26.245  -9.305  23.852  0.00  0.00    +0.000 NA
ATOM     10  C   UNL     1      27.543  -9.883  23.787  0.00  0.00    +0.000 C 
ATOM     11  S   UNL     1      28.037 -11.315  24.419  0.00  0.00    +0.000 S 
ATOM     12  N   UNL     1      28.382  -8.986  23.061  0.00  0.00    +0.000 NA
ATOM     13  C   UNL     1      27.632  -7.851  22.665  0.00  0.00    +0.000 C 
ATOM     14  O   UNL     1      28.035  -6.838  22.001  0.00  0.00    +0.000 OA
ENDBRANCH   4   7
BRANCH   1  15
ATOM     15  O   UNL     1      19.966  -7.925  25.002  0.00  0.00    +0.000 OA
BRANCH  15  16
ATOM     16  C   UNL     1      19.633  -7.426  26.294  0.00  0.00    +0.000 C 
BRANCH  16  18
ATOM     17  C   UNL     1      19.145  -4.967  26.395  0.00  0.00    +0.000 C 
ATOM     18  C   UNL     1      18.566  -6.337  26.201  0.00  0.00    +0.000 C 
ATOM     19  C   UNL     1      17.457  -6.678  27.142  0.00  0.00    +0.000 C 
ENDBRANCH  16  18
ENDBRANCH  15  16
ENDBRANCH   1  15
TORSDOF 4
ENDMDL
MODEL 8
REMARK VINA RESULT:      -5.6     17.728     19.814
REMARK  Name = 
REMARK  4 active torsions:
REMARK  status: ('A' for Active; 'I' for Inactive)
REMARK    1  A    between atoms: C_2  and  C_4
REMARK    2  A    between atoms: C_4  and  O_5
REMARK    3  A    between atoms: O_5  and  C_6
REMARK    4  A    between atoms: C_9  and  C_10
REMARK                            x       y       z     vdW  Elec       q    Type
REMARK                         _______ _______ _______ _____ _____    ______ ____
ROOT
ATOM      1  C   UNL     1      30.145  23.889  23.706  0.00  0.00    +0.000 A 
ATOM      2  C   UNL     1      29.870  22.672  24.249  0.00  0.00    +0.000 A 
ATOM      3  C   UNL     1      30.176  22.308  25.556  0.00  0.00    +0.000 A 
ATOM      4  C   UNL     1      30.812  23.241  26.387  0.00  0.00    +0.000 A 
ATOM      5  C   UNL     1      31.090  24.465  25.844  0.00  0.00    +0.000 A 
ATOM      6  C   UNL     1      30.774  24.811  24.531  0.00  0.00    +0.000 A 
ENDROOT
BRANCH   4   7
ATOM      7  C   UNL     1      31.118  22.882  27.778  0.00  0.00    +0.000 C 
ATOM      8  C   UNL     1      30.251  22.754  28.731  0.00  0.00    +0.000 C 
ATOM      9  N   UNL     1      28.865  22.927  28.627  0.00  0.00    +0.000 NA
ATOM     10  C   UNL     1      28.281  22.686  29.901  0.00  0.00    +0.000 C 
ATOM     11  S   UNL     1      26.693  22.760  30.308  0.00  0.00    +0.000 S 
ATOM     12  N   UNL     1      29.334  22.360  30.807  0.00  0.00    +0.000 NA
ATOM     13  C   UNL     1      30.574  22.390  30.122  0.00  0.00    +0.000 C 
ATOM     14  O   UNL     1      31.736  22.154  30.594  0.00  0.00    +0.000 OA
ENDBRANCH   4   7
BRANCH   1  15
ATOM     15  O   UNL     1      29.806  24.184  22.382  0.00  0.00    +0.000 OA
BRANCH  15  16
ATOM     16  C   UNL     1      28.537  23.800  21.860  0.00  0.00    +0.000 C 
BRANCH  16  18
ATOM     17  C   UNL     1      28.234  26.274  21.585  0.00  0.00    +0.000 C 
ATOM     18  C   UNL     1      27.557  24.971  21.890  0.00  0.00    +0.000 C 
ATOM     19  C   UNL     1      26.826  24.944  23.193  0.00  0.00    +0.000 C 
ENDBRANCH  16  18
ENDBRANCH  15  16
ENDBRANCH   1  15
TORSDOF 4
ENDMDL
MODEL 9
REMARK VINA RESULT:      -5.6     19.588     21.864
REMARK  Name = 
REMARK  4 active torsions:
REMARK  status: ('A' for Active; 'I' for Inactive)
REMARK    1  A    between atoms: C_2  and  C_4
REMARK    2  A    between atoms: C_4  and  O_5
REMARK    3  A    between atoms: O_5  and  C_6
REMARK    4  A    between atoms: C_9  and  C_10
REMARK                            x       y       z     vdW  Elec       q    Type
REMARK                         _______ _______ _______ _____ _____    ______ ____
ROOT
ATOM      1  C   UNL     1      31.913  22.957  28.011  0.00  0.00    +0.000 A 
ATOM      2  C   UNL     1      30.941  22.228  27.395  0.00  0.00    +0.000 A 
ATOM      3  C   UNL     1      30.496  22.451  26.096  0.00  0.00    +0.000 A 
ATOM      4  C   UNL     1      31.072  23.493  25.355  0.00  0.00    +0.000 A 
ATOM      5  C   UNL     1      32.047  24.226  25.970  0.00  0.00    +0.000 A 
ATOM      6  C   UNL     1      32.481  23.985  27.273  0.00  0.00    +0.000 A 
ENDROOT
BRANCH   4   7
ATOM      7  C   UNL     1      30.632  23.724  23.972  0.00  0.00    +0.000 C 
ATOM      8  C   UNL     1      29.591  24.408  23.617  0.00  0.00    +0.000 C 
ATOM      9  N   UNL     1      28.689  25.058  24.469  0.00  0.00    +0.000 NA
ATOM     10  C   UNL     1      27.696  25.697  23.675  0.00  0.00    +0.000 C 
ATOM     11  S   UNL     1      26.418  26.586  24.192  0.00  0.00    +0.000 S 
ATOM     12  N   UNL     1      27.997  25.430  22.306  0.00  0.00    +0.000 NA
ATOM     13  C   UNL     1      29.165  24.633  22.224  0.00  0.00    +0.000 C 
ATOM     14  O   UNL     1      29.743  24.194  21.173  0.00  0.00    +0.000 OA
ENDBRANCH   4   7
BRANCH   1  15
ATOM     15  O   UNL     1      32.309  22.672  29.321  0.00  0.00    +0.000 OA
BRANCH  15  16
ATOM     16  C   UNL     1      33.118  21.533  29.598  0.00  0.00    +0.000 C 
BRANCH  16  18
ATOM     17  C   UNL     1      31.630  21.613  31.616  0.00  0.00    +0.000 C 
ATOM     18  C   UNL     1      32.867  21.016  31.013  0.00  0.00    +0.000 C 
ATOM     19  C   UNL     1      34.108  21.220  31.820  0.00  0.00    +0.000 C 
ENDBRANCH  16  18
ENDBRANCH  15  16
ENDBRANCH   1  15
TORSDOF 4
ENDMDL
MODEL 10
REMARK VINA RESULT:      -5.6     19.418     22.246
REMARK  Name = 
REMARK  4 active torsions:
REMARK  status: ('A' for Active; 'I' for Inactive)
REMARK    1  A    between atoms: C_2  and  C_4
REMARK    2  A    between atoms: C_4  and  O_5
REMARK    3  A    between atoms: O_5  and  C_6
REMARK    4  A    between atoms: C_9  and  C_10
REMARK                            x       y       z     vdW  Elec       q    Type
REMARK                         _______ _______ _______ _____ _____    ______ ____
ROOT
ATOM      1  C   UNL     1      32.190  24.209  24.868  0.00  0.00    +0.000 A 
ATOM      2  C   UNL     1      31.398  25.166  24.312  0.00  0.00    +0.000 A 
ATOM      3  C   UNL     1      30.133  24.930  23.784  0.00  0.00    +0.000 A 
ATOM      4  C   UNL     1      29.621  23.625  23.815  0.00  0.00    +0.000 A 
ATOM      5  C   UNL     1      30.413  22.661  24.373  0.00  0.00    +0.000 A 
ATOM      6  C   UNL     1      31.679  22.919  24.898  0.00  0.00    +0.000 A 
ENDROOT
BRANCH   4   7
ATOM      7  C   UNL     1      28.275  23.364  23.286  0.00  0.00    +0.000 C 
ATOM      8  C   UNL     1      27.163  23.611  23.902  0.00  0.00    +0.000 C 
ATOM      9  N   UNL     1      27.021  24.172  25.177  0.00  0.00    +0.000 NA
ATOM     10  C   UNL     1      25.634  24.279  25.474  0.00  0.00    +0.000 C 
ATOM     11  S   UNL     1      24.943  24.870  26.840  0.00  0.00    +0.000 S 
ATOM     12  N   UNL     1      24.910  23.770  24.354  0.00  0.00    +0.000 NA
ATOM     13  C   UNL     1      25.820  23.345  23.356  0.00  0.00    +0.000 C 
ATOM     14  O   UNL     1      25.551  22.835  22.216  0.00  0.00    +0.000 OA
ENDBRANCH   4   7
BRANCH   1  15
ATOM     15  O   UNL     1      33.452  24.522  25.381  0.00  0.00    +0.000 OA
BRANCH  15  16
ATOM     16  C   UNL     1      34.153  25.673  24.918  0.00  0.00    +0.000 C 
BRANCH  16  18
ATOM     17  C   UNL     1      35.820  23.850  24.481  0.00  0.00    +0.000 C 
ATOM     18  C   UNL     1      35.444  25.276  24.205  0.00  0.00    +0.000 C 
ATOM     19  C   UNL     1      36.503  26.272  24.553  0.00  0.00    +0.000 C 
ENDBRANCH  16  18
ENDBRANCH  15  16
ENDBRANCH   1  15
TORSDOF 4
ENDMDL
