MODEL 1
REMARK VINA RESULT:      -7.7      0.000      0.000
REMARK  Name = 
REMARK  4 active torsions:
REMARK  status: ('A' for Active; 'I' for Inactive)
REMARK    1  A    between atoms: C_2  and  C_3
REMARK    2  A    between atoms: C_6  and  C_7
REMARK    3  A    between atoms: N_9  and  N_10
REMARK    4  A    between atoms: N_10  and  C_11
REMARK                            x       y       z     vdW  Elec       q    Type
REMARK                         _______ _______ _______ _____ _____    ______ ____
ROOT
ATOM      1  C   UNL     1      13.881  12.299  36.622  0.00  0.00    +0.000 C 
ATOM      2  O   UNL     1      12.631  12.307  36.692  0.00  0.00    +0.000 OA
ATOM      3  N   UNL     1      14.515  13.047  35.604  0.00  0.00    +0.000 NA
ENDROOT
BRANCH   1   7
ATOM      4  C   UNL     1      16.059   9.998  39.470  0.00  0.00    +0.000 A 
ATOM      5  C   UNL     1      14.716  10.258  39.639  0.00  0.00    +0.000 A 
ATOM      6  C   UNL     1      14.032  11.005  38.713  0.00  0.00    +0.000 A 
ATOM      7  C   UNL     1      14.659  11.521  37.590  0.00  0.00    +0.000 A 
ATOM      8  C   UNL     1      15.997  11.253  37.441  0.00  0.00    +0.000 A 
ATOM      9  C   UNL     1      16.695  10.494  38.377  0.00  0.00    +0.000 A 
BRANCH   4  11
ATOM     10  C   UNL     1      16.346   9.463  41.855  0.00  0.00    +0.000 C 
ATOM     11  C   UNL     1      16.820   9.174  40.475  0.00  0.00    +0.000 C 
ENDBRANCH   4  11
ENDBRANCH   1   7
BRANCH   3  12
ATOM     12  N   UNL     1      13.858  13.820  34.639  0.00  0.00    +0.000 NA
BRANCH  12  13
ATOM     13  C   UNL     1      14.127  13.413  33.274  0.00  0.00    +0.000 A 
ATOM     14  C   UNL     1      13.607  14.147  32.251  0.00  0.00    +0.000 A 
ATOM     15  C   UNL     1      13.858  13.746  30.955  0.00  0.00    +0.000 A 
ATOM     16  C   UNL     1      14.619  12.626  30.700  0.00  0.00    +0.000 A 
ATOM     17  C   UNL     1      15.149  11.877  31.736  0.00  0.00    +0.000 A 
ATOM     18  C   UNL     1      15.950  10.690  31.368  0.00  0.00    +0.000 C 
ATOM     19  C   UNL     1      14.894  12.282  33.010  0.00  0.00    +0.000 A 
ENDBRANCH  12  13
ENDBRANCH   3  12
TORSDOF 4
ENDMDL
MODEL 2
REMARK VINA RESULT:      -7.5      3.755      7.753
REMARK  Name = 
REMARK  4 active torsions:
REMARK  status: ('A' for Active; 'I' for Inactive)
REMARK    1  A    between atoms: C_2  and  C_3
REMARK    2  A    between atoms: C_6  and  C_7
REMARK    3  A    between atoms: N_9  and  N_10
REMARK    4  A    between atoms: N_10  and  C_11
REMARK                            x       y       z     vdW  Elec       q    Type
REMARK                         _______ _______ _______ _____ _____    ______ ____
ROOT
ATOM      1  C   UNL     1      17.294  10.006  35.106  0.00  0.00    +0.000 C 
ATOM      2  O   UNL     1      17.710   8.829  34.995  0.00  0.00    +0.000 OA
ATOM      3  N   UNL     1      17.517  10.700  36.316  0.00  0.00    +0.000 NA
ENDROOT
BRANCH   1   7
ATOM      4  C   UNL     1      15.225  11.918  31.910  0.00  0.00    +0.000 A 
ATOM      5  C   UNL     1      14.991  12.268  33.223  0.00  0.00    +0.000 A 
ATOM      6  C   UNL     1      15.664  11.637  34.239  0.00  0.00    +0.000 A 
ATOM      7  C   UNL     1      16.590  10.637  33.986  0.00  0.00    +0.000 A 
ATOM      8  C   UNL     1      16.807  10.303  32.674  0.00  0.00    +0.000 A 
ATOM      9  C   UNL     1      16.128  10.940  31.638  0.00  0.00    +0.000 A 
BRANCH   4  11
ATOM     10  C   UNL     1      13.663  13.721  31.306  0.00  0.00    +0.000 C 
ATOM     11  C   UNL     1      14.500  12.607  30.785  0.00  0.00    +0.000 C 
ENDBRANCH   4  11
ENDBRANCH   1   7
BRANCH   3  12
ATOM     12  N   UNL     1      18.178  10.182  37.437  0.00  0.00    +0.000 NA
BRANCH  12  13
ATOM     13  C   UNL     1      19.571  10.572  37.531  0.00  0.00    +0.000 A 
ATOM     14  C   UNL     1      19.890  11.729  38.175  0.00  0.00    +0.000 A 
ATOM     15  C   UNL     1      21.217  12.100  38.251  0.00  0.00    +0.000 A 
ATOM     16  C   UNL     1      22.200  11.316  37.686  0.00  0.00    +0.000 A 
ATOM     17  C   UNL     1      21.880  10.140  37.030  0.00  0.00    +0.000 A 
ATOM     18  C   UNL     1      22.999   9.365  36.453  0.00  0.00    +0.000 C 
ATOM     19  C   UNL     1      20.568   9.785  36.962  0.00  0.00    +0.000 A 
ENDBRANCH  12  13
ENDBRANCH   3  12
TORSDOF 4
ENDMDL
MODEL 3
REMARK VINA RESULT:      -7.2      3.457      7.890
REMARK  Name = 
REMARK  4 active torsions:
REMARK  status: ('A' for Active; 'I' for Inactive)
REMARK    1  A    between atoms: C_2  and  C_3
REMARK    2  A    between atoms: C_6  and  C_7
REMARK    3  A    between atoms: N_9  and  N_10
REMARK    4  A    between atoms: N_10  and  C_11
REMARK                            x       y       z     vdW  Elec       q    Type
REMARK                         _______ _______ _______ _____ _____    ______ ____
ROOT
ATOM      1  C   UNL     1      17.184  10.128  34.993  0.00  0.00    +0.000 C 
ATOM      2  O   UNL     1      17.770   9.039  34.797  0.00  0.00    +0.000 OA
ATOM      3  N   UNL     1      17.228  10.708  36.281  0.00  0.00    +0.000 NA
ENDROOT
BRANCH   1   7
ATOM      4  C   UNL     1      15.131  11.943  31.731  0.00  0.00    +0.000 A 
ATOM      5  C   UNL     1      16.079  10.964  31.522  0.00  0.00    +0.000 A 
ATOM      6  C   UNL     1      16.733  10.395  32.586  0.00  0.00    +0.000 A 
ATOM      7  C   UNL     1      16.470  10.779  33.891  0.00  0.00    +0.000 A 
ATOM      8  C   UNL     1      15.525  11.755  34.077  0.00  0.00    +0.000 A 
ATOM      9  C   UNL     1      14.856  12.336  33.002  0.00  0.00    +0.000 A 
BRANCH   4  11
ATOM     10  C   UNL     1      13.602  13.740  31.033  0.00  0.00    +0.000 C 
ATOM     11  C   UNL     1      14.400  12.571  30.574  0.00  0.00    +0.000 C 
ENDBRANCH   4  11
ENDBRANCH   1   7
BRANCH   3  12
ATOM     12  N   UNL     1      17.885  10.163  37.391  0.00  0.00    +0.000 NA
BRANCH  12  13
ATOM     13  C   UNL     1      19.226  10.675  37.593  0.00  0.00    +0.000 A 
ATOM     14  C   UNL     1      20.288   9.912  37.210  0.00  0.00    +0.000 A 
ATOM     15  C   UNL     1      21.562  10.401  37.416  0.00  0.00    +0.000 A 
ATOM     16  C   UNL     1      21.756  11.636  37.997  0.00  0.00    +0.000 A 
ATOM     17  C   UNL     1      20.680  12.414  38.387  0.00  0.00    +0.000 A 
ATOM     18  C   UNL     1      20.984  13.722  39.004  0.00  0.00    +0.000 C 
ATOM     19  C   UNL     1      19.429  11.921  38.180  0.00  0.00    +0.000 A 
ENDBRANCH  12  13
ENDBRANCH   3  12
TORSDOF 4
ENDMDL
MODEL 4
REMARK VINA RESULT:      -7.1     22.709     24.446
REMARK  Name = 
REMARK  4 active torsions:
REMARK  status: ('A' for Active; 'I' for Inactive)
REMARK    1  A    between atoms: C_2  and  C_3
REMARK    2  A    between atoms: C_6  and  C_7
REMARK    3  A    between atoms: N_9  and  N_10
REMARK    4  A    between atoms: N_10  and  C_11
REMARK                            x       y       z     vdW  Elec       q    Type
REMARK                         _______ _______ _______ _____ _____    ______ ____
ROOT
ATOM      1  C   UNL     1      33.930  -2.002  34.348  0.00  0.00    +0.000 C 
ATOM      2  O   UNL     1      34.522  -2.378  35.386  0.00  0.00    +0.000 OA
ATOM      3  N   UNL     1      33.365  -2.974  33.492  0.00  0.00    +0.000 NA
ENDROOT
BRANCH   1   7
ATOM      4  C   UNL     1      33.647   2.132  33.361  0.00  0.00    +0.000 A 
ATOM      5  C   UNL     1      34.047   1.201  32.427  0.00  0.00    +0.000 A 
ATOM      6  C   UNL     1      34.137  -0.126  32.765  0.00  0.00    +0.000 A 
ATOM      7  C   UNL     1      33.834  -0.572  34.042  0.00  0.00    +0.000 A 
ATOM      8  C   UNL     1      33.441   0.370  34.957  0.00  0.00    +0.000 A 
ATOM      9  C   UNL     1      33.347   1.718  34.620  0.00  0.00    +0.000 A 
BRANCH   4  11
ATOM     10  C   UNL     1      33.595   4.436  34.226  0.00  0.00    +0.000 C 
ATOM     11  C   UNL     1      33.537   3.591  33.002  0.00  0.00    +0.000 C 
ENDBRANCH   4  11
ENDBRANCH   1   7
BRANCH   3  12
ATOM     12  N   UNL     1      33.405  -4.359  33.701  0.00  0.00    +0.000 NA
BRANCH  12  13
ATOM     13  C   UNL     1      33.984  -5.105  32.602  0.00  0.00    +0.000 A 
ATOM     14  C   UNL     1      35.066  -5.898  32.840  0.00  0.00    +0.000 A 
ATOM     15  C   UNL     1      35.619  -6.596  31.787  0.00  0.00    +0.000 A 
ATOM     16  C   UNL     1      35.088  -6.494  30.519  0.00  0.00    +0.000 A 
ATOM     17  C   UNL     1      33.990  -5.688  30.273  0.00  0.00    +0.000 A 
ATOM     18  C   UNL     1      33.491  -5.638  28.882  0.00  0.00    +0.000 C 
ATOM     19  C   UNL     1      33.453  -5.004  31.320  0.00  0.00    +0.000 A 
ENDBRANCH  12  13
ENDBRANCH   3  12
TORSDOF 4
ENDMDL
MODEL 5
REMARK VINA RESULT:      -7.0      2.929      8.146
REMARK  Name = 
REMARK  4 active torsions:
REMARK  status: ('A' for Active; 'I' for Inactive)
REMARK    1  A    between atoms: C_2  and  C_3
REMARK    2  A    between atoms: C_6  and  C_7
REMARK    3  A    between atoms: N_9  and  N_10
REMARK    4  A    between atoms: N_10  and  C_11
REMARK                            x       y       z     vdW  Elec       q    Type
REMARK                         _______ _______ _______ _____ _____    ______ ____
ROOT
ATOM      1  C   UNL     1      17.950  10.121  36.382  0.00  0.00    +0.000 C 
ATOM      2  O   UNL     1      18.989   9.458  36.160  0.00  0.00    +0.000 OA
ATOM      3  N   UNL     1      17.577  10.383  37.720  0.00  0.00    +0.000 NA
ENDROOT
BRANCH   1   7
ATOM      4  C   UNL     1      15.576  11.618  33.178  0.00  0.00    +0.000 A 
ATOM      5  C   UNL     1      15.302  11.954  34.486  0.00  0.00    +0.000 A 
ATOM      6  C   UNL     1      16.076  11.458  35.505  0.00  0.00    +0.000 A 
ATOM      7  C   UNL     1      17.145  10.611  35.260  0.00  0.00    +0.000 A 
ATOM      8  C   UNL     1      17.399  10.287  33.951  0.00  0.00    +0.000 A 
ATOM      9  C   UNL     1      16.618  10.788  32.913  0.00  0.00    +0.000 A 
BRANCH   4  11
ATOM     10  C   UNL     1      15.608  12.620  30.930  0.00  0.00    +0.000 C 
ATOM     11  C   UNL     1      14.741  12.161  32.048  0.00  0.00    +0.000 C 
ENDBRANCH   4  11
ENDBRANCH   1   7
BRANCH   3  12
ATOM     12  N   UNL     1      18.282   9.960  38.854  0.00  0.00    +0.000 NA
BRANCH  12  13
ATOM     13  C   UNL     1      17.490   9.175  39.781  0.00  0.00    +0.000 A 
ATOM     14  C   UNL     1      16.346   9.712  40.290  0.00  0.00    +0.000 A 
ATOM     15  C   UNL     1      15.604   8.964  41.181  0.00  0.00    +0.000 A 
ATOM     16  C   UNL     1      16.012   7.700  41.549  0.00  0.00    +0.000 A 
ATOM     17  C   UNL     1      17.174   7.152  41.035  0.00  0.00    +0.000 A 
ATOM     18  C   UNL     1      17.535   5.791  41.489  0.00  0.00    +0.000 C 
ATOM     19  C   UNL     1      17.898   7.899  40.158  0.00  0.00    +0.000 A 
ENDBRANCH  12  13
ENDBRANCH   3  12
TORSDOF 4
ENDMDL
MODEL 6
REMARK VINA RESULT:      -6.9      3.232      3.997
REMARK  Name = 
REMARK  4 active torsions:
REMARK  status: ('A' for Active; 'I' for Inactive)
REMARK    1  A    between atoms: C_2  and  C_3
REMARK    2  A    between atoms: C_6  and  C_7
REMARK    3  A    between atoms: N_9  and  N_10
REMARK    4  A    between atoms: N_10  and  C_11
REMARK                            x       y       z     vdW  Elec       q    Type
REMARK                         _______ _______ _______ _____ _____    ______ ____
ROOT
ATOM      1  C   UNL     1      17.361   9.998  35.256  0.00  0.00    +0.000 C 
ATOM      2  O   UNL     1      17.061   8.783  35.209  0.00  0.00    +0.000 OA
ATOM      3  N   UNL     1      16.835  10.871  34.276  0.00  0.00    +0.000 NA
ENDROOT
BRANCH   1   7
ATOM      4  C   UNL     1      19.852  11.487  38.373  0.00  0.00    +0.000 A 
ATOM      5  C   UNL     1      18.732  12.177  37.964  0.00  0.00    +0.000 A 
ATOM      6  C   UNL     1      17.944  11.683  36.955  0.00  0.00    +0.000 A 
ATOM      7  C   UNL     1      18.243  10.490  36.317  0.00  0.00    +0.000 A 
ATOM      8  C   UNL     1      19.364   9.820  36.737  0.00  0.00    +0.000 A 
ATOM      9  C   UNL     1      20.167  10.315  37.762  0.00  0.00    +0.000 A 
BRANCH   4  11
ATOM     10  C   UNL     1      20.911  13.483  39.350  0.00  0.00    +0.000 C 
ATOM     11  C   UNL     1      20.722  12.013  39.485  0.00  0.00    +0.000 C 
ENDBRANCH   4  11
ENDBRANCH   1   7
BRANCH   3  12
ATOM     12  N   UNL     1      15.986  10.494  33.228  0.00  0.00    +0.000 NA
BRANCH  12  13
ATOM     13  C   UNL     1      15.393  11.611  32.519  0.00  0.00    +0.000 A 
ATOM     14  C   UNL     1      15.562  11.701  31.171  0.00  0.00    +0.000 A 
ATOM     15  C   UNL     1      15.004  12.773  30.505  0.00  0.00    +0.000 A 
ATOM     16  C   UNL     1      14.291  13.734  31.189  0.00  0.00    +0.000 A 
ATOM     17  C   UNL     1      14.118  13.646  32.560  0.00  0.00    +0.000 A 
ATOM     18  C   UNL     1      13.341  14.722  33.210  0.00  0.00    +0.000 C 
ATOM     19  C   UNL     1      14.673  12.584  33.206  0.00  0.00    +0.000 A 
ENDBRANCH  12  13
ENDBRANCH   3  12
TORSDOF 4
ENDMDL
MODEL 7
REMARK VINA RESULT:      -6.7     23.024     24.675
REMARK  Name = 
REMARK  4 active torsions:
REMARK  status: ('A' for Active; 'I' for Inactive)
REMARK    1  A    between atoms: C_2  and  C_3
REMARK    2  A    between atoms: C_6  and  C_7
REMARK    3  A    between atoms: N_9  and  N_10
REMARK    4  A    between atoms: N_10  and  C_11
REMARK                            x       y       z     vdW  Elec       q    Type
REMARK                         _______ _______ _______ _____ _____    ______ ____
ROOT
ATOM      1  C   UNL     1      33.515  -2.510  33.967  0.00  0.00    +0.000 C 
ATOM      2  O   UNL     1      33.451  -2.967  35.131  0.00  0.00    +0.000 OA
ATOM      3  N   UNL     1      33.589  -3.411  32.880  0.00  0.00    +0.000 NA
ENDROOT
BRANCH   1   7
ATOM      4  C   UNL     1      33.537   1.690  33.252  0.00  0.00    +0.000 A 
ATOM      5  C   UNL     1      34.303   0.832  32.492  0.00  0.00    +0.000 A 
ATOM      6  C   UNL     1      34.286  -0.517  32.741  0.00  0.00    +0.000 A 
ATOM      7  C   UNL     1      33.510  -1.060  33.752  0.00  0.00    +0.000 A 
ATOM      8  C   UNL     1      32.757  -0.190  34.499  0.00  0.00    +0.000 A 
ATOM      9  C   UNL     1      32.769   1.180  34.251  0.00  0.00    +0.000 A 
BRANCH   4  11
ATOM     10  C   UNL     1      33.887   3.924  34.222  0.00  0.00    +0.000 C 
ATOM     11  C   UNL     1      33.539   3.172  32.986  0.00  0.00    +0.000 C 
ENDBRANCH   4  11
ENDBRANCH   1   7
BRANCH   3  12
ATOM     12  N   UNL     1      33.598  -4.807  32.986  0.00  0.00    +0.000 NA
BRANCH  12  13
ATOM     13  C   UNL     1      33.868  -5.492  31.737  0.00  0.00    +0.000 A 
ATOM     14  C   UNL     1      33.474  -4.912  30.569  0.00  0.00    +0.000 A 
ATOM     15  C   UNL     1      33.724  -5.575  29.385  0.00  0.00    +0.000 A 
ATOM     16  C   UNL     1      34.358  -6.799  29.383  0.00  0.00    +0.000 A 
ATOM     17  C   UNL     1      34.759  -7.391  30.568  0.00  0.00    +0.000 A 
ATOM     18  C   UNL     1      35.430  -8.705  30.471  0.00  0.00    +0.000 C 
ATOM     19  C   UNL     1      34.507  -6.728  31.730  0.00  0.00    +0.000 A 
ENDBRANCH  12  13
ENDBRANCH   3  12
TORSDOF 4
ENDMDL
MODEL 8
REMARK VINA RESULT:      -6.6      5.141      8.289
REMARK  Name = 
REMARK  4 active torsions:
REMARK  status: ('A' for Active; 'I' for Inactive)
REMARK    1  A    between atoms: C_2  and  C_3
REMARK    2  A    between atoms: C_6  and  C_7
REMARK    3  A    between atoms: N_9  and  N_10
REMARK    4  A    between atoms: N_10  and  C_11
REMARK                            x       y       z     vdW  Elec       q    Type
REMARK                         _______ _______ _______ _____ _____    ______ ____
ROOT
ATOM      1  C   UNL     1      18.270  10.215  36.572  0.00  0.00    +0.000 C 
ATOM      2  O   UNL     1      17.763  10.077  37.709  0.00  0.00    +0.000 OA
ATOM      3  N   UNL     1      19.666  10.049  36.420  0.00  0.00    +0.000 NA
ENDROOT
BRANCH   1   7
ATOM      4  C   UNL     1      15.748  11.246  33.297  0.00  0.00    +0.000 A 
ATOM      5  C   UNL     1      15.482  11.696  34.572  0.00  0.00    +0.000 A 
ATOM      6  C   UNL     1      16.304  11.349  35.615  0.00  0.00    +0.000 A 
ATOM      7  C   UNL     1      17.416  10.543  35.428  0.00  0.00    +0.000 A 
ATOM      8  C   UNL     1      17.662  10.105  34.152  0.00  0.00    +0.000 A 
ATOM      9  C   UNL     1      16.832  10.454  33.089  0.00  0.00    +0.000 A 
BRANCH   4  11
ATOM     10  C   UNL     1      15.588  12.506  31.188  0.00  0.00    +0.000 C 
ATOM     11  C   UNL     1      14.860  11.625  32.142  0.00  0.00    +0.000 C 
ENDBRANCH   4  11
ENDBRANCH   1   7
BRANCH   3  12
ATOM     12  N   UNL     1      20.560   9.734  37.451  0.00  0.00    +0.000 NA
BRANCH  12  13
ATOM     13  C   UNL     1      21.934  10.104  37.173  0.00  0.00    +0.000 A 
ATOM     14  C   UNL     1      22.701   9.274  36.413  0.00  0.00    +0.000 A 
ATOM     15  C   UNL     1      24.010   9.628  36.162  0.00  0.00    +0.000 A 
ATOM     16  C   UNL     1      24.533  10.797  36.672  0.00  0.00    +0.000 A 
ATOM     17  C   UNL     1      23.757  11.643  37.445  0.00  0.00    +0.000 A 
ATOM     18  C   UNL     1      24.403  12.873  37.951  0.00  0.00    +0.000 C 
ATOM     19  C   UNL     1      22.467  11.283  37.686  0.00  0.00    +0.000 A 
ENDBRANCH  12  13
ENDBRANCH   3  12
TORSDOF 4
ENDMDL
MODEL 9
REMARK VINA RESULT:      -6.4     29.720     31.483
REMARK  Name = 
REMARK  4 active torsions:
REMARK  status: ('A' for Active; 'I' for Inactive)
REMARK    1  A    between atoms: C_2  and  C_3
REMARK    2  A    between atoms: C_6  and  C_7
REMARK    3  A    between atoms: N_9  and  N_10
REMARK    4  A    between atoms: N_10  and  C_11
REMARK                            x       y       z     vdW  Elec       q    Type
REMARK                         _______ _______ _______ _____ _____    ______ ____
ROOT
ATOM      1  C   UNL     1      33.266  20.248  11.262  0.00  0.00    +0.000 C 
ATOM      2  O   UNL     1      33.482  19.677  10.168  0.00  0.00    +0.000 OA
ATOM      3  N   UNL     1      34.252  20.188  12.272  0.00  0.00    +0.000 NA
ENDROOT
BRANCH   1   7
ATOM      4  C   UNL     1      29.562  22.285  11.794  0.00  0.00    +0.000 A 
ATOM      5  C   UNL     1      29.900  21.723  10.582  0.00  0.00    +0.000 A 
ATOM      6  C   UNL     1      31.100  21.075  10.428  0.00  0.00    +0.000 A 
ATOM      7  C   UNL     1      32.005  20.964  11.472  0.00  0.00    +0.000 A 
ATOM      8  C   UNL     1      31.651  21.532  12.670  0.00  0.00    +0.000 A 
ATOM      9  C   UNL     1      30.434  22.190  12.832  0.00  0.00    +0.000 A 
BRANCH   4  11
ATOM     10  C   UNL     1      27.148  22.236  11.317  0.00  0.00    +0.000 C 
ATOM     11  C   UNL     1      28.246  22.992  11.979  0.00  0.00    +0.000 C 
ENDBRANCH   4  11
ENDBRANCH   1   7
BRANCH   3  12
ATOM     12  N   UNL     1      35.484  19.531  12.163  0.00  0.00    +0.000 NA
BRANCH  12  13
ATOM     13  C   UNL     1      36.101  19.218  13.437  0.00  0.00    +0.000 A 
ATOM     14  C   UNL     1      36.939  20.129  14.006  0.00  0.00    +0.000 A 
ATOM     15  C   UNL     1      37.531  19.819  15.213  0.00  0.00    +0.000 A 
ATOM     16  C   UNL     1      37.281  18.612  15.830  0.00  0.00    +0.000 A 
ATOM     17  C   UNL     1      36.430  17.684  15.255  0.00  0.00    +0.000 A 
ATOM     18  C   UNL     1      36.223  16.417  15.987  0.00  0.00    +0.000 C 
ATOM     19  C   UNL     1      35.852  18.001  14.064  0.00  0.00    +0.000 A 
ENDBRANCH  12  13
ENDBRANCH   3  12
TORSDOF 4
ENDMDL
MODEL 10
REMARK VINA RESULT:      -6.4     20.455     22.174
REMARK  Name = 
REMARK  4 active torsions:
REMARK  status: ('A' for Active; 'I' for Inactive)
REMARK    1  A    between atoms: C_2  and  C_3
REMARK    2  A    between atoms: C_6  and  C_7
REMARK    3  A    between atoms: N_9  and  N_10
REMARK    4  A    between atoms: N_10  and  C_11
REMARK                            x       y       z     vdW  Elec       q    Type
REMARK                         _______ _______ _______ _____ _____    ______ ____
ROOT
ATOM      1  C   UNL     1      33.808   0.282  33.147  0.00  0.00    +0.000 C 
ATOM      2  O   UNL     1      34.700   0.214  32.270  0.00  0.00    +0.000 OA
ATOM      3  N   UNL     1      33.286   1.549  33.495  0.00  0.00    +0.000 NA
ENDROOT
BRANCH   1   7
ATOM      4  C   UNL     1      32.478  -3.326  34.979  0.00  0.00    +0.000 A 
ATOM      5  C   UNL     1      33.360  -3.346  33.920  0.00  0.00    +0.000 A 
ATOM      6  C   UNL     1      33.773  -2.173  33.340  0.00  0.00    +0.000 A 
ATOM      7  C   UNL     1      33.324  -0.942  33.790  0.00  0.00    +0.000 A 
ATOM      8  C   UNL     1      32.445  -0.944  34.844  0.00  0.00    +0.000 A 
ATOM      9  C   UNL     1      32.023  -2.131  35.437  0.00  0.00    +0.000 A 
BRANCH   4  11
ATOM     10  C   UNL     1      32.781  -5.766  35.092  0.00  0.00    +0.000 C 
ATOM     11  C   UNL     1      32.021  -4.605  35.630  0.00  0.00    +0.000 C 
ENDBRANCH   4  11
ENDBRANCH   1   7
BRANCH   3  12
ATOM     12  N   UNL     1      33.683   2.770  32.935  0.00  0.00    +0.000 NA
BRANCH  12  13
ATOM     13  C   UNL     1      33.709   3.870  33.879  0.00  0.00    +0.000 A 
ATOM     14  C   UNL     1      32.822   4.892  33.726  0.00  0.00    +0.000 A 
ATOM     15  C   UNL     1      32.861   5.941  34.621  0.00  0.00    +0.000 A 
ATOM     16  C   UNL     1      33.778   5.956  35.649  0.00  0.00    +0.000 A 
ATOM     17  C   UNL     1      34.682   4.919  35.808  0.00  0.00    +0.000 A 
ATOM     18  C   UNL     1      35.630   5.021  36.937  0.00  0.00    +0.000 C 
ATOM     19  C   UNL     1      34.634   3.890  34.919  0.00  0.00    +0.000 A 
ENDBRANCH  12  13
ENDBRANCH   3  12
TORSDOF 4
ENDMDL
