MODEL 1
REMARK VINA RESULT:      -8.1      0.000      0.000
REMARK  Name = 
REMARK  3 active torsions:
REMARK  status: ('A' for Active; 'I' for Inactive)
REMARK    1  A    between atoms: C_7  and  N_8
REMARK    2  A    between atoms: C_9  and  C_11
REMARK    3  A    between atoms: C_14  and  N_15
REMARK                            x       y       z     vdW  Elec       q    Type
REMARK                         _______ _______ _______ _____ _____    ______ ____
ROOT
ATOM      1  N   UNL     1      15.602  11.367  35.276  0.00  0.00    +0.000 NA
ATOM      2  C   UNL     1      16.693  11.797  36.089  0.00  0.00    +0.000 C 
ATOM      3  O   UNL     1      17.078  12.978  35.967  0.00  0.00    +0.000 OA
ENDROOT
BRANCH   1  10
ATOM      4  C   UNL     1      12.813  15.299  34.478  0.00  0.00    +0.000 C 
ATOM      5  C   UNL     1      13.605  14.187  33.892  0.00  0.00    +0.000 A 
ATOM      6  C   UNL     1      13.763  13.970  32.551  0.00  0.00    +0.000 A 
ATOM      7  C   UNL     1      14.520  12.903  32.095  0.00  0.00    +0.000 A 
ATOM      8  C   UNL     1      15.132  12.038  33.009  0.00  0.00    +0.000 A 
ATOM      9  C   UNL     1      15.944  10.894  32.549  0.00  0.00    +0.000 C 
ATOM     10  C   UNL     1      14.977  12.252  34.361  0.00  0.00    +0.000 A 
ATOM     11  C   UNL     1      14.221  13.314  34.772  0.00  0.00    +0.000 A 
ENDBRANCH   1  10
BRANCH   2  12
ATOM     12  C   UNL     1      17.307  10.851  37.017  0.00  0.00    +0.000 A 
ATOM     13  C   UNL     1      18.470  10.177  36.715  0.00  0.00    +0.000 A 
ATOM     14  C   UNL     1      19.037   9.285  37.603  0.00  0.00    +0.000 A 
ATOM     15  C   UNL     1      18.464   9.029  38.832  0.00  0.00    +0.000 A 
ATOM     16  C   UNL     1      17.299   9.698  39.144  0.00  0.00    +0.000 A 
ATOM     17  C   UNL     1      16.627   9.470  40.451  0.00  0.00    +0.000 C 
ATOM     18  C   UNL     1      16.733  10.596  38.244  0.00  0.00    +0.000 A 
BRANCH  15  19
ATOM     19  N   UNL     1      19.069   8.102  39.731  0.00  0.00    +0.000 N 
ATOM     20  O   UNL     1      19.993   8.410  40.504  0.00  0.00    +0.000 OA
ATOM     21  O   UNL     1      18.637   6.797  39.776  0.00  0.00    +0.000 OA
ENDBRANCH  15  19
ENDBRANCH   2  12
TORSDOF 3
ENDMDL
MODEL 2
REMARK VINA RESULT:      -7.3     28.690     31.463
REMARK  Name = 
REMARK  3 active torsions:
REMARK  status: ('A' for Active; 'I' for Inactive)
REMARK    1  A    between atoms: C_7  and  N_8
REMARK    2  A    between atoms: C_9  and  C_11
REMARK    3  A    between atoms: C_14  and  N_15
REMARK                            x       y       z     vdW  Elec       q    Type
REMARK                         _______ _______ _______ _____ _____    ______ ____
ROOT
ATOM      1  N   UNL     1      32.221  20.538  11.222  0.00  0.00    +0.000 NA
ATOM      2  C   UNL     1      31.820  21.906  11.289  0.00  0.00    +0.000 C 
ATOM      3  O   UNL     1      32.695  22.778  11.105  0.00  0.00    +0.000 OA
ENDROOT
BRANCH   1  10
ATOM      4  C   UNL     1      36.728  19.623  12.872  0.00  0.00    +0.000 C 
ATOM      5  C   UNL     1      35.820  19.717  11.700  0.00  0.00    +0.000 A 
ATOM      6  C   UNL     1      36.198  19.486  10.406  0.00  0.00    +0.000 A 
ATOM      7  C   UNL     1      35.280  19.598   9.374  0.00  0.00    +0.000 A 
ATOM      8  C   UNL     1      33.954  19.949   9.653  0.00  0.00    +0.000 A 
ATOM      9  C   UNL     1      32.956  20.075   8.572  0.00  0.00    +0.000 C 
ATOM     10  C   UNL     1      33.568  20.182  10.954  0.00  0.00    +0.000 A 
ATOM     11  C   UNL     1      34.503  20.063  11.944  0.00  0.00    +0.000 A 
ENDBRANCH   1  10
BRANCH   2  12
ATOM     12  C   UNL     1      30.423  22.226  11.569  0.00  0.00    +0.000 A 
ATOM     13  C   UNL     1      29.388  21.718  10.813  0.00  0.00    +0.000 A 
ATOM     14  C   UNL     1      28.073  22.033  11.090  0.00  0.00    +0.000 A 
ATOM     15  C   UNL     1      27.735  22.868  12.135  0.00  0.00    +0.000 A 
ATOM     16  C   UNL     1      28.764  23.382  12.897  0.00  0.00    +0.000 A 
ATOM     17  C   UNL     1      28.473  24.289  14.039  0.00  0.00    +0.000 C 
ATOM     18  C   UNL     1      30.088  23.061  12.613  0.00  0.00    +0.000 A 
BRANCH  15  19
ATOM     19  N   UNL     1      26.369  23.177  12.399  0.00  0.00    +0.000 N 
ATOM     20  O   UNL     1      25.694  22.589  13.262  0.00  0.00    +0.000 OA
ATOM     21  O   UNL     1      25.733  24.168  11.688  0.00  0.00    +0.000 OA
ENDBRANCH  15  19
ENDBRANCH   2  12
TORSDOF 3
ENDMDL
MODEL 3
REMARK VINA RESULT:      -7.1     28.938     31.112
REMARK  Name = 
REMARK  3 active torsions:
REMARK  status: ('A' for Active; 'I' for Inactive)
REMARK    1  A    between atoms: C_7  and  N_8
REMARK    2  A    between atoms: C_9  and  C_11
REMARK    3  A    between atoms: C_14  and  N_15
REMARK                            x       y       z     vdW  Elec       q    Type
REMARK                         _______ _______ _______ _____ _____    ______ ____
ROOT
ATOM      1  N   UNL     1      31.095  22.314  11.677  0.00  0.00    +0.000 NA
ATOM      2  C   UNL     1      31.631  21.089  12.175  0.00  0.00    +0.000 C 
ATOM      3  O   UNL     1      30.961  20.463  13.022  0.00  0.00    +0.000 OA
ENDROOT
BRANCH   1  10
ATOM      4  C   UNL     1      28.549  25.102  14.779  0.00  0.00    +0.000 C 
ATOM      5  C   UNL     1      28.519  24.160  13.631  0.00  0.00    +0.000 A 
ATOM      6  C   UNL     1      27.380  23.743  12.998  0.00  0.00    +0.000 A 
ATOM      7  C   UNL     1      27.449  22.860  11.933  0.00  0.00    +0.000 A 
ATOM      8  C   UNL     1      28.692  22.386  11.496  0.00  0.00    +0.000 A 
ATOM      9  C   UNL     1      28.793  21.444  10.364  0.00  0.00    +0.000 C 
ATOM     10  C   UNL     1      29.842  22.803  12.130  0.00  0.00    +0.000 A 
ATOM     11  C   UNL     1      29.733  23.674  13.177  0.00  0.00    +0.000 A 
ENDBRANCH   1  10
BRANCH   2  12
ATOM     12  C   UNL     1      32.925  20.625  11.681  0.00  0.00    +0.000 A 
ATOM     13  C   UNL     1      33.174  20.437  10.339  0.00  0.00    +0.000 A 
ATOM     14  C   UNL     1      34.402  19.995   9.890  0.00  0.00    +0.000 A 
ATOM     15  C   UNL     1      35.436  19.724  10.763  0.00  0.00    +0.000 A 
ATOM     16  C   UNL     1      35.196  19.909  12.109  0.00  0.00    +0.000 A 
ATOM     17  C   UNL     1      36.264  19.637  13.108  0.00  0.00    +0.000 C 
ATOM     18  C   UNL     1      33.955  20.354  12.556  0.00  0.00    +0.000 A 
BRANCH  15  19
ATOM     19  N   UNL     1      36.695  19.269  10.274  0.00  0.00    +0.000 N 
ATOM     20  O   UNL     1      36.951  18.069  10.071  0.00  0.00    +0.000 OA
ATOM     21  O   UNL     1      37.698  20.169  10.001  0.00  0.00    +0.000 OA
ENDBRANCH  15  19
ENDBRANCH   2  12
TORSDOF 3
ENDMDL
MODEL 4
REMARK VINA RESULT:      -7.1      2.647      7.751
REMARK  Name = 
REMARK  3 active torsions:
REMARK  status: ('A' for Active; 'I' for Inactive)
REMARK    1  A    between atoms: C_7  and  N_8
REMARK    2  A    between atoms: C_9  and  C_11
REMARK    3  A    between atoms: C_14  and  N_15
REMARK                            x       y       z     vdW  Elec       q    Type
REMARK                         _______ _______ _______ _____ _____    ______ ____
ROOT
ATOM      1  N   UNL     1      18.257  10.250  36.685  0.00  0.00    +0.000 NA
ATOM      2  C   UNL     1      16.901  10.613  36.427  0.00  0.00    +0.000 C 
ATOM      3  O   UNL     1      16.108  10.621  37.392  0.00  0.00    +0.000 OA
ENDROOT
BRANCH   1  10
ATOM      4  C   UNL     1      18.655   6.922  40.241  0.00  0.00    +0.000 C 
ATOM      5  C   UNL     1      18.919   8.314  39.795  0.00  0.00    +0.000 A 
ATOM      6  C   UNL     1      19.539   9.268  40.555  0.00  0.00    +0.000 A 
ATOM      7  C   UNL     1      19.743  10.544  40.055  0.00  0.00    +0.000 A 
ATOM      8  C   UNL     1      19.313  10.866  38.762  0.00  0.00    +0.000 A 
ATOM      9  C   UNL     1      19.517  12.219  38.206  0.00  0.00    +0.000 C 
ATOM     10  C   UNL     1      18.688   9.910  37.993  0.00  0.00    +0.000 A 
ATOM     11  C   UNL     1      18.505   8.663  38.521  0.00  0.00    +0.000 A 
ENDBRANCH   1  10
BRANCH   2  12
ATOM     12  C   UNL     1      16.501  10.955  35.065  0.00  0.00    +0.000 A 
ATOM     13  C   UNL     1      17.058  10.346  33.962  0.00  0.00    +0.000 A 
ATOM     14  C   UNL     1      16.669  10.682  32.681  0.00  0.00    +0.000 A 
ATOM     15  C   UNL     1      15.706  11.641  32.447  0.00  0.00    +0.000 A 
ATOM     16  C   UNL     1      15.142  12.257  33.545  0.00  0.00    +0.000 A 
ATOM     17  C   UNL     1      14.098  13.301  33.369  0.00  0.00    +0.000 C 
ATOM     18  C   UNL     1      15.538  11.914  34.835  0.00  0.00    +0.000 A 
BRANCH  15  19
ATOM     19  N   UNL     1      15.322  11.971  31.114  0.00  0.00    +0.000 N 
ATOM     20  O   UNL     1      14.460  11.338  30.480  0.00  0.00    +0.000 OA
ATOM     21  O   UNL     1      15.910  13.031  30.467  0.00  0.00    +0.000 OA
ENDBRANCH  15  19
ENDBRANCH   2  12
TORSDOF 3
ENDMDL
MODEL 5
REMARK VINA RESULT:      -6.6      2.455      7.528
REMARK  Name = 
REMARK  3 active torsions:
REMARK  status: ('A' for Active; 'I' for Inactive)
REMARK    1  A    between atoms: C_7  and  N_8
REMARK    2  A    between atoms: C_9  and  C_11
REMARK    3  A    between atoms: C_14  and  N_15
REMARK                            x       y       z     vdW  Elec       q    Type
REMARK                         _______ _______ _______ _____ _____    ______ ____
ROOT
ATOM      1  N   UNL     1      17.072  10.026  37.423  0.00  0.00    +0.000 NA
ATOM      2  C   UNL     1      16.924  11.344  36.895  0.00  0.00    +0.000 C 
ATOM      3  O   UNL     1      17.280  12.301  37.614  0.00  0.00    +0.000 OA
ENDROOT
BRANCH   1  10
ATOM      4  C   UNL     1      16.345   9.495  42.225  0.00  0.00    +0.000 C 
ATOM      5  C   UNL     1      17.320   9.541  41.105  0.00  0.00    +0.000 A 
ATOM      6  C   UNL     1      18.672   9.394  41.247  0.00  0.00    +0.000 A 
ATOM      7  C   UNL     1      19.506   9.454  40.142  0.00  0.00    +0.000 A 
ATOM      8  C   UNL     1      18.966   9.665  38.868  0.00  0.00    +0.000 A 
ATOM      9  C   UNL     1      19.834   9.732  37.675  0.00  0.00    +0.000 C 
ATOM     10  C   UNL     1      17.605   9.812  38.720  0.00  0.00    +0.000 A 
ATOM     11  C   UNL     1      16.816   9.749  39.833  0.00  0.00    +0.000 A 
ENDBRANCH   1  10
BRANCH   2  12
ATOM     12  C   UNL     1      16.369  11.518  35.555  0.00  0.00    +0.000 A 
ATOM     13  C   UNL     1      15.336  12.392  35.297  0.00  0.00    +0.000 A 
ATOM     14  C   UNL     1      14.821  12.543  34.025  0.00  0.00    +0.000 A 
ATOM     15  C   UNL     1      15.318  11.826  32.956  0.00  0.00    +0.000 A 
ATOM     16  C   UNL     1      16.353  10.948  33.204  0.00  0.00    +0.000 A 
ATOM     17  C   UNL     1      16.938  10.143  32.099  0.00  0.00    +0.000 C 
ATOM     18  C   UNL     1      16.867  10.800  34.489  0.00  0.00    +0.000 A 
BRANCH  15  19
ATOM     19  N   UNL     1      14.769  12.000  31.652  0.00  0.00    +0.000 N 
ATOM     20  O   UNL     1      15.005  12.994  30.942  0.00  0.00    +0.000 OA
ATOM     21  O   UNL     1      13.936  11.045  31.118  0.00  0.00    +0.000 OA
ENDBRANCH  15  19
ENDBRANCH   2  12
TORSDOF 3
ENDMDL
MODEL 6
REMARK VINA RESULT:      -6.5     19.189     21.465
REMARK  Name = 
REMARK  3 active torsions:
REMARK  status: ('A' for Active; 'I' for Inactive)
REMARK    1  A    between atoms: C_7  and  N_8
REMARK    2  A    between atoms: C_9  and  C_11
REMARK    3  A    between atoms: C_14  and  N_15
REMARK                            x       y       z     vdW  Elec       q    Type
REMARK                         _______ _______ _______ _____ _____    ______ ____
ROOT
ATOM      1  N   UNL     1      34.221  -0.820  34.588  0.00  0.00    +0.000 NA
ATOM      2  C   UNL     1      33.167   0.143  34.585  0.00  0.00    +0.000 C 
ATOM      3  O   UNL     1      31.994  -0.279  34.509  0.00  0.00    +0.000 OA
ENDROOT
BRANCH   1  10
ATOM      4  C   UNL     1      33.347  -4.774  31.854  0.00  0.00    +0.000 C 
ATOM      5  C   UNL     1      33.505  -4.206  33.217  0.00  0.00    +0.000 A 
ATOM      6  C   UNL     1      33.402  -4.927  34.376  0.00  0.00    +0.000 A 
ATOM      7  C   UNL     1      33.565  -4.310  35.605  0.00  0.00    +0.000 A 
ATOM      8  C   UNL     1      33.838  -2.939  35.670  0.00  0.00    +0.000 A 
ATOM      9  C   UNL     1      34.016  -2.259  36.969  0.00  0.00    +0.000 C 
ATOM     10  C   UNL     1      33.944  -2.209  34.508  0.00  0.00    +0.000 A 
ATOM     11  C   UNL     1      33.776  -2.852  33.314  0.00  0.00    +0.000 A 
ENDBRANCH   1  10
BRANCH   2  12
ATOM     12  C   UNL     1      33.498   1.563  34.669  0.00  0.00    +0.000 A 
ATOM     13  C   UNL     1      33.411   2.402  33.579  0.00  0.00    +0.000 A 
ATOM     14  C   UNL     1      33.729   3.742  33.675  0.00  0.00    +0.000 A 
ATOM     15  C   UNL     1      34.148   4.301  34.864  0.00  0.00    +0.000 A 
ATOM     16  C   UNL     1      34.240   3.469  35.961  0.00  0.00    +0.000 A 
ATOM     17  C   UNL     1      34.685   4.003  37.276  0.00  0.00    +0.000 C 
ATOM     18  C   UNL     1      33.917   2.119  35.858  0.00  0.00    +0.000 A 
BRANCH  15  19
ATOM     19  N   UNL     1      34.472   5.687  34.937  0.00  0.00    +0.000 N 
ATOM     20  O   UNL     1      33.635   6.566  35.208  0.00  0.00    +0.000 OA
ATOM     21  O   UNL     1      35.759   6.111  34.703  0.00  0.00    +0.000 OA
ENDBRANCH  15  19
ENDBRANCH   2  12
TORSDOF 3
ENDMDL
MODEL 7
REMARK VINA RESULT:      -6.5     19.161     20.331
REMARK  Name = 
REMARK  3 active torsions:
REMARK  status: ('A' for Active; 'I' for Inactive)
REMARK    1  A    between atoms: C_7  and  N_8
REMARK    2  A    between atoms: C_9  and  C_11
REMARK    3  A    between atoms: C_14  and  N_15
REMARK                            x       y       z     vdW  Elec       q    Type
REMARK                         _______ _______ _______ _____ _____    ______ ____
ROOT
ATOM      1  N   UNL     1      28.620  23.755  25.789  0.00  0.00    +0.000 NA
ATOM      2  C   UNL     1      29.588  22.761  26.122  0.00  0.00    +0.000 C 
ATOM      3  O   UNL     1      30.015  22.034  25.200  0.00  0.00    +0.000 OA
ENDROOT
BRANCH   1  10
ATOM      4  C   UNL     1      29.432  25.284  21.220  0.00  0.00    +0.000 C 
ATOM      5  C   UNL     1      28.493  24.646  22.177  0.00  0.00    +0.000 A 
ATOM      6  C   UNL     1      27.236  24.210  21.857  0.00  0.00    +0.000 A 
ATOM      7  C   UNL     1      26.428  23.626  22.818  0.00  0.00    +0.000 A 
ATOM      8  C   UNL     1      26.895  23.476  24.129  0.00  0.00    +0.000 A 
ATOM      9  C   UNL     1      26.053  22.857  25.172  0.00  0.00    +0.000 C 
ATOM     10  C   UNL     1      28.160  23.912  24.456  0.00  0.00    +0.000 A 
ATOM     11  C   UNL     1      28.927  24.485  23.481  0.00  0.00    +0.000 A 
ENDBRANCH   1  10
BRANCH   2  12
ATOM     12  C   UNL     1      30.033  22.634  27.507  0.00  0.00    +0.000 A 
ATOM     13  C   UNL     1      29.215  22.943  28.572  0.00  0.00    +0.000 A 
ATOM     14  C   UNL     1      29.652  22.819  29.875  0.00  0.00    +0.000 A 
ATOM     15  C   UNL     1      30.925  22.379  30.171  0.00  0.00    +0.000 A 
ATOM     16  C   UNL     1      31.752  22.067  29.111  0.00  0.00    +0.000 A 
ATOM     17  C   UNL     1      33.139  21.588  29.355  0.00  0.00    +0.000 C 
ATOM     18  C   UNL     1      31.306  22.195  27.799  0.00  0.00    +0.000 A 
BRANCH  15  19
ATOM     19  N   UNL     1      31.353  22.260  31.525  0.00  0.00    +0.000 N 
ATOM     20  O   UNL     1      31.855  23.201  32.164  0.00  0.00    +0.000 OA
ATOM     21  O   UNL     1      31.219  21.065  32.192  0.00  0.00    +0.000 OA
ENDBRANCH  15  19
ENDBRANCH   2  12
TORSDOF 3
ENDMDL
MODEL 8
REMARK VINA RESULT:      -6.3      2.499      7.720
REMARK  Name = 
REMARK  3 active torsions:
REMARK  status: ('A' for Active; 'I' for Inactive)
REMARK    1  A    between atoms: C_7  and  N_8
REMARK    2  A    between atoms: C_9  and  C_11
REMARK    3  A    between atoms: C_14  and  N_15
REMARK                            x       y       z     vdW  Elec       q    Type
REMARK                         _______ _______ _______ _____ _____    ______ ____
ROOT
ATOM      1  N   UNL     1      17.382   9.638  38.781  0.00  0.00    +0.000 NA
ATOM      2  C   UNL     1      17.850  10.661  37.903  0.00  0.00    +0.000 C 
ATOM      3  O   UNL     1      18.697  11.464  38.346  0.00  0.00    +0.000 OA
ENDROOT
BRANCH   1  10
ATOM      4  C   UNL     1      21.157   9.310  41.866  0.00  0.00    +0.000 C 
ATOM      5  C   UNL     1      19.683   9.374  41.695  0.00  0.00    +0.000 A 
ATOM      6  C   UNL     1      18.781   9.341  42.723  0.00  0.00    +0.000 A 
ATOM      7  C   UNL     1      17.421   9.405  42.468  0.00  0.00    +0.000 A 
ATOM      8  C   UNL     1      16.960   9.504  41.150  0.00  0.00    +0.000 A 
ATOM      9  C   UNL     1      15.515   9.574  40.852  0.00  0.00    +0.000 C 
ATOM     10  C   UNL     1      17.864   9.538  40.112  0.00  0.00    +0.000 A 
ATOM     11  C   UNL     1      19.197   9.472  40.403  0.00  0.00    +0.000 A 
ENDBRANCH   1  10
BRANCH   2  12
ATOM     12  C   UNL     1      17.327  10.726  36.541  0.00  0.00    +0.000 A 
ATOM     13  C   UNL     1      17.837   9.954  35.521  0.00  0.00    +0.000 A 
ATOM     14  C   UNL     1      17.331  10.030  34.238  0.00  0.00    +0.000 A 
ATOM     15  C   UNL     1      16.292  10.881  33.921  0.00  0.00    +0.000 A 
ATOM     16  C   UNL     1      15.775  11.659  34.936  0.00  0.00    +0.000 A 
ATOM     17  C   UNL     1      14.655  12.599  34.667  0.00  0.00    +0.000 C 
ATOM     18  C   UNL     1      16.289  11.578  36.227  0.00  0.00    +0.000 A 
BRANCH  15  19
ATOM     19  N   UNL     1      15.788  10.941  32.589  0.00  0.00    +0.000 N 
ATOM     20  O   UNL     1      14.929  10.156  32.152  0.00  0.00    +0.000 OA
ATOM     21  O   UNL     1      16.249  11.898  31.717  0.00  0.00    +0.000 OA
ENDBRANCH  15  19
ENDBRANCH   2  12
TORSDOF 3
ENDMDL
MODEL 9
REMARK VINA RESULT:      -6.3     21.732     23.867
REMARK  Name = 
REMARK  3 active torsions:
REMARK  status: ('A' for Active; 'I' for Inactive)
REMARK    1  A    between atoms: C_7  and  N_8
REMARK    2  A    between atoms: C_9  and  C_11
REMARK    3  A    between atoms: C_14  and  N_15
REMARK                            x       y       z     vdW  Elec       q    Type
REMARK                         _______ _______ _______ _____ _____    ______ ____
ROOT
ATOM      1  N   UNL     1      22.970  -8.845  24.084  0.00  0.00    +0.000 NA
ATOM      2  C   UNL     1      22.565  -7.637  24.726  0.00  0.00    +0.000 C 
ATOM      3  O   UNL     1      23.430  -6.753  24.901  0.00  0.00    +0.000 OA
ENDROOT
BRANCH   1  10
ATOM      4  C   UNL     1      27.586 -10.035  25.157  0.00  0.00    +0.000 C 
ATOM      5  C   UNL     1      26.612  -9.612  24.118  0.00  0.00    +0.000 A 
ATOM      6  C   UNL     1      26.924  -9.399  22.803  0.00  0.00    +0.000 A 
ATOM      7  C   UNL     1      25.948  -9.004  21.903  0.00  0.00    +0.000 A 
ATOM      8  C   UNL     1      24.630  -8.821  22.337  0.00  0.00    +0.000 A 
ATOM      9  C   UNL     1      23.571  -8.400  21.397  0.00  0.00    +0.000 C 
ATOM     10  C   UNL     1      24.310  -9.035  23.659  0.00  0.00    +0.000 A 
ATOM     11  C   UNL     1      25.300  -9.423  24.516  0.00  0.00    +0.000 A 
ENDBRANCH   1  10
BRANCH   2  12
ATOM     12  C   UNL     1      21.175  -7.485  25.149  0.00  0.00    +0.000 A 
ATOM     13  C   UNL     1      20.284  -8.535  25.130  0.00  0.00    +0.000 A 
ATOM     14  C   UNL     1      18.973  -8.374  25.532  0.00  0.00    +0.000 A 
ATOM     15  C   UNL     1      18.497  -7.155  25.969  0.00  0.00    +0.000 A 
ATOM     16  C   UNL     1      19.382  -6.097  25.991  0.00  0.00    +0.000 A 
ATOM     17  C   UNL     1      18.938  -4.754  26.451  0.00  0.00    +0.000 C 
ATOM     18  C   UNL     1      20.702  -6.266  25.585  0.00  0.00    +0.000 A 
BRANCH  15  19
ATOM     19  N   UNL     1      17.138  -7.015  26.378  0.00  0.00    +0.000 N 
ATOM     20  O   UNL     1      16.803  -6.475  27.447  0.00  0.00    +0.000 OA
ATOM     21  O   UNL     1      16.122  -7.485  25.579  0.00  0.00    +0.000 OA
ENDBRANCH  15  19
ENDBRANCH   2  12
TORSDOF 3
ENDMDL
MODEL 10
REMARK VINA RESULT:      -6.3      2.470      7.709
REMARK  Name = 
REMARK  3 active torsions:
REMARK  status: ('A' for Active; 'I' for Inactive)
REMARK    1  A    between atoms: C_7  and  N_8
REMARK    2  A    between atoms: C_9  and  C_11
REMARK    3  A    between atoms: C_14  and  N_15
REMARK                            x       y       z     vdW  Elec       q    Type
REMARK                         _______ _______ _______ _____ _____    ______ ____
ROOT
ATOM      1  N   UNL     1      16.743   9.219  39.726  0.00  0.00    +0.000 NA
ATOM      2  C   UNL     1      17.578  10.025  38.896  0.00  0.00    +0.000 C 
ATOM      3  O   UNL     1      18.613  10.504  39.405  0.00  0.00    +0.000 OA
ENDROOT
BRANCH   1  10
ATOM      4  C   UNL     1      16.474  10.536  44.424  0.00  0.00    +0.000 C 
ATOM      5  C   UNL     1      16.986   9.563  43.425  0.00  0.00    +0.000 A 
ATOM      6  C   UNL     1      17.746   8.466  43.727  0.00  0.00    +0.000 A 
ATOM      7  C   UNL     1      18.181   7.613  42.726  0.00  0.00    +0.000 A 
ATOM      8  C   UNL     1      17.843   7.869  41.393  0.00  0.00    +0.000 A 
ATOM      9  C   UNL     1      18.294   6.975  40.307  0.00  0.00    +0.000 C 
ATOM     10  C   UNL     1      17.078   8.971  41.082  0.00  0.00    +0.000 A 
ATOM     11  C   UNL     1      16.669   9.790  42.097  0.00  0.00    +0.000 A 
ENDBRANCH   1  10
BRANCH   2  12
ATOM     12  C   UNL     1      17.194  10.255  37.506  0.00  0.00    +0.000 A 
ATOM     13  C   UNL     1      17.789   9.583  36.460  0.00  0.00    +0.000 A 
ATOM     14  C   UNL     1      17.415   9.814  35.151  0.00  0.00    +0.000 A 
ATOM     15  C   UNL     1      16.430  10.725  34.832  0.00  0.00    +0.000 A 
ATOM     16  C   UNL     1      15.829  11.402  35.872  0.00  0.00    +0.000 A 
ATOM     17  C   UNL     1      14.759  12.399  35.602  0.00  0.00    +0.000 C 
ATOM     18  C   UNL     1      16.210  11.166  37.190  0.00  0.00    +0.000 A 
BRANCH  15  19
ATOM     19  N   UNL     1      16.062  10.945  33.472  0.00  0.00    +0.000 N 
ATOM     20  O   UNL     1      16.623  11.783  32.744  0.00  0.00    +0.000 OA
ATOM     21  O   UNL     1      15.045  10.216  32.903  0.00  0.00    +0.000 OA
ENDBRANCH  15  19
ENDBRANCH   2  12
TORSDOF 3
ENDMDL
