MODEL 1
REMARK VINA RESULT:      -8.0      0.000      0.000
REMARK  Name = 
REMARK  7 active torsions:
REMARK  status: ('A' for Active; 'I' for Inactive)
REMARK    1  A    between atoms: C_2  and  C_3
REMARK    2  A    between atoms: C_3  and  C_4
REMARK    3  A    between atoms: C_4  and  N_5
REMARK    4  A    between atoms: C_6  and  C_8
REMARK    5  A    between atoms: C_8  and  N_24
REMARK    6  A    between atoms: C_9  and  C_10
REMARK    7  A    between atoms: C_25  and  C_27
REMARK                            x       y       z     vdW  Elec       q    Type
REMARK                         _______ _______ _______ _____ _____    ______ ____
ROOT
ATOM      1  C   UNL     1      38.317  -1.990  14.383  0.00  0.00    +0.000 C 
ATOM      2  C   UNL     1      38.501  -0.987  15.180  0.00  0.00    +0.000 C 
ENDROOT
BRANCH   2   3
ATOM      3  C   UNL     1      37.571  -0.528  16.153  0.00  0.00    +0.000 A 
ATOM      4  C   UNL     1      37.408  -1.008  17.429  0.00  0.00    +0.000 A 
ATOM      5  C   UNL     1      38.227  -1.993  17.927  0.00  0.00    +0.000 A 
ATOM      6  C   UNL     1      38.111  -2.487  19.203  0.00  0.00    +0.000 A 
ATOM      7  C   UNL     1      37.138  -2.000  20.058  0.00  0.00    +0.000 A 
ATOM      8  C   UNL     1      36.311  -1.006  19.556  0.00  0.00    +0.000 A 
ATOM      9  C   UNL     1      36.424  -0.506  18.276  0.00  0.00    +0.000 A 
ATOM     10  C   UNL     1      35.594   0.503  17.813  0.00  0.00    +0.000 A 
ATOM     11  C   UNL     1      35.721   1.017  16.541  0.00  0.00    +0.000 A 
ATOM     12  C   UNL     1      34.879   2.030  16.095  0.00  0.00    +0.000 A 
ATOM     13  C   UNL     1      35.004   2.544  14.819  0.00  0.00    +0.000 A 
ATOM     14  C   UNL     1      35.973   2.038  14.007  0.00  0.00    +0.000 A 
ATOM     15  C   UNL     1      36.823   1.022  14.449  0.00  0.00    +0.000 A 
ATOM     16  C   UNL     1      36.703   0.497  15.731  0.00  0.00    +0.000 A 
ENDBRANCH   2   3
BRANCH   1  18
ATOM     17  N   UNL     1      40.629  -2.870  13.777  0.00  0.00    +0.000 NA
ATOM     18  C   UNL     1      39.360  -2.393  13.398  0.00  0.00    +0.000 C 
ATOM     19  O   UNL     1      39.059  -2.292  12.198  0.00  0.00    +0.000 OA
BRANCH  17  20
ATOM     20  C   UNL     1      41.654  -3.267  12.832  0.00  0.00    +0.000 C 
BRANCH  20  21
ATOM     21  C   UNL     1      42.853  -2.392  13.024  0.00  0.00    +0.000 C 
BRANCH  21  23
ATOM     22  C   UNL     1      43.146  -0.230  14.277  0.00  0.00    +0.000 C 
ATOM     23  C   UNL     1      42.926  -1.724  14.358  0.00  0.00    +0.000 C 
ENDBRANCH  21  23
ENDBRANCH  20  21
ENDBRANCH  17  20
ENDBRANCH   1  18
BRANCH   1  24
ATOM     24  N   UNL     1      37.101  -2.708  14.429  0.00  0.00    +0.000 NA
ATOM     25  C   UNL     1      36.960  -3.902  15.151  0.00  0.00    +0.000 C 
ATOM     26  O   UNL     1      37.940  -4.357  15.781  0.00  0.00    +0.000 OA
BRANCH  25  27
ATOM     27  C   UNL     1      35.684  -4.648  15.198  0.00  0.00    +0.000 A 
ATOM     28  C   UNL     1      34.543  -4.095  14.671  0.00  0.00    +0.000 A 
ATOM     29  C   UNL     1      33.332  -4.758  14.689  0.00  0.00    +0.000 A 
ATOM     30  C   UNL     1      33.227  -6.014  15.244  0.00  0.00    +0.000 A 
ATOM     31  C   UNL     1      34.361  -6.582  15.777  0.00  0.00    +0.000 A 
ATOM     32  C   UNL     1      35.579  -5.906  15.753  0.00  0.00    +0.000 A 
ENDBRANCH  25  27
ENDBRANCH   1  24
TORSDOF 7
ENDMDL
MODEL 2
REMARK VINA RESULT:      -8.0      3.787      7.188
REMARK  Name = 
REMARK  7 active torsions:
REMARK  status: ('A' for Active; 'I' for Inactive)
REMARK    1  A    between atoms: C_2  and  C_3
REMARK    2  A    between atoms: C_3  and  C_4
REMARK    3  A    between atoms: C_4  and  N_5
REMARK    4  A    between atoms: C_6  and  C_8
REMARK    5  A    between atoms: C_8  and  N_24
REMARK    6  A    between atoms: C_9  and  C_10
REMARK    7  A    between atoms: C_25  and  C_27
REMARK                            x       y       z     vdW  Elec       q    Type
REMARK                         _______ _______ _______ _____ _____    ______ ____
ROOT
ATOM      1  C   UNL     1      36.703   1.954  16.003  0.00  0.00    +0.000 C 
ATOM      2  C   UNL     1      36.686   3.212  15.699  0.00  0.00    +0.000 C 
ENDROOT
BRANCH   2   3
ATOM      3  C   UNL     1      37.794   3.954  15.206  0.00  0.00    +0.000 A 
ATOM      4  C   UNL     1      38.201   4.059  13.899  0.00  0.00    +0.000 A 
ATOM      5  C   UNL     1      37.488   3.467  12.884  0.00  0.00    +0.000 A 
ATOM      6  C   UNL     1      37.850   3.563  11.563  0.00  0.00    +0.000 A 
ATOM      7  C   UNL     1      38.977   4.277  11.194  0.00  0.00    +0.000 A 
ATOM      8  C   UNL     1      39.697   4.874  12.218  0.00  0.00    +0.000 A 
ATOM      9  C   UNL     1      39.338   4.780  13.546  0.00  0.00    +0.000 A 
ATOM     10  C   UNL     1      40.069   5.408  14.543  0.00  0.00    +0.000 A 
ATOM     11  C   UNL     1      39.698   5.332  15.868  0.00  0.00    +0.000 A 
ATOM     12  C   UNL     1      40.444   5.968  16.854  0.00  0.00    +0.000 A 
ATOM     13  C   UNL     1      40.074   5.892  18.182  0.00  0.00    +0.000 A 
ATOM     14  C   UNL     1      38.959   5.180  18.505  0.00  0.00    +0.000 A 
ATOM     15  C   UNL     1      38.205   4.539  17.521  0.00  0.00    +0.000 A 
ATOM     16  C   UNL     1      38.571   4.609  16.181  0.00  0.00    +0.000 A 
ENDBRANCH   2   3
BRANCH   1  18
ATOM     17  N   UNL     1      35.481  -0.077  16.935  0.00  0.00    +0.000 NA
ATOM     18  C   UNL     1      35.483   1.266  16.511  0.00  0.00    +0.000 C 
ATOM     19  O   UNL     1      34.441   1.938  16.547  0.00  0.00    +0.000 OA
BRANCH  17  20
ATOM     20  C   UNL     1      34.304  -0.761  17.431  0.00  0.00    +0.000 C 
BRANCH  20  21
ATOM     21  C   UNL     1      34.311  -2.167  16.917  0.00  0.00    +0.000 C 
BRANCH  21  23
ATOM     22  C   UNL     1      35.627  -3.105  14.989  0.00  0.00    +0.000 C 
ATOM     23  C   UNL     1      35.640  -2.643  16.429  0.00  0.00    +0.000 C 
ENDBRANCH  21  23
ENDBRANCH  20  21
ENDBRANCH  17  20
ENDBRANCH   1  18
BRANCH   1  24
ATOM     24  N   UNL     1      37.902   1.219  15.874  0.00  0.00    +0.000 NA
ATOM     25  C   UNL     1      38.127   0.326  14.815  0.00  0.00    +0.000 C 
ATOM     26  O   UNL     1      37.238   0.168  13.948  0.00  0.00    +0.000 OA
BRANCH  25  27
ATOM     27  C   UNL     1      39.384  -0.440  14.683  0.00  0.00    +0.000 A 
ATOM     28  C   UNL     1      40.517   0.173  14.204  0.00  0.00    +0.000 A 
ATOM     29  C   UNL     1      41.713  -0.503  14.067  0.00  0.00    +0.000 A 
ATOM     30  C   UNL     1      41.811  -1.833  14.412  0.00  0.00    +0.000 A 
ATOM     31  C   UNL     1      40.686  -2.462  14.892  0.00  0.00    +0.000 A 
ATOM     32  C   UNL     1      39.483  -1.771  15.027  0.00  0.00    +0.000 A 
ENDBRANCH  25  27
ENDBRANCH   1  24
TORSDOF 7
ENDMDL
MODEL 3
REMARK VINA RESULT:      -7.9      0.438      3.310
REMARK  Name = 
REMARK  7 active torsions:
REMARK  status: ('A' for Active; 'I' for Inactive)
REMARK    1  A    between atoms: C_2  and  C_3
REMARK    2  A    between atoms: C_3  and  C_4
REMARK    3  A    between atoms: C_4  and  N_5
REMARK    4  A    between atoms: C_6  and  C_8
REMARK    5  A    between atoms: C_8  and  N_24
REMARK    6  A    between atoms: C_9  and  C_10
REMARK    7  A    between atoms: C_25  and  C_27
REMARK                            x       y       z     vdW  Elec       q    Type
REMARK                         _______ _______ _______ _____ _____    ______ ____
ROOT
ATOM      1  C   UNL     1      38.226  -2.196  14.552  0.00  0.00    +0.000 C 
ATOM      2  C   UNL     1      38.422  -1.180  15.329  0.00  0.00    +0.000 C 
ENDROOT
BRANCH   2   3
ATOM      3  C   UNL     1      37.464  -0.637  16.229  0.00  0.00    +0.000 A 
ATOM      4  C   UNL     1      36.574   0.377  15.973  0.00  0.00    +0.000 A 
ATOM      5  C   UNL     1      36.486   0.946  14.725  0.00  0.00    +0.000 A 
ATOM      6  C   UNL     1      35.598   1.949  14.423  0.00  0.00    +0.000 A 
ATOM      7  C   UNL     1      34.736   2.437  15.389  0.00  0.00    +0.000 A 
ATOM      8  C   UNL     1      34.824   1.863  16.648  0.00  0.00    +0.000 A 
ATOM      9  C   UNL     1      35.714   0.857  16.957  0.00  0.00    +0.000 A 
ATOM     10  C   UNL     1      35.762   0.290  18.222  0.00  0.00    +0.000 A 
ATOM     11  C   UNL     1      36.637  -0.731  18.524  0.00  0.00    +0.000 A 
ATOM     12  C   UNL     1      36.670  -1.286  19.799  0.00  0.00    +0.000 A 
ATOM     13  C   UNL     1      37.547  -2.308  20.103  0.00  0.00    +0.000 A 
ATOM     14  C   UNL     1      38.380  -2.761  19.126  0.00  0.00    +0.000 A 
ATOM     15  C   UNL     1      38.352  -2.209  17.844  0.00  0.00    +0.000 A 
ATOM     16  C   UNL     1      37.473  -1.179  17.528  0.00  0.00    +0.000 A 
ENDBRANCH   2   3
BRANCH   1  18
ATOM     17  N   UNL     1      40.670  -2.594  13.954  0.00  0.00    +0.000 NA
ATOM     18  C   UNL     1      39.300  -2.692  13.645  0.00  0.00    +0.000 C 
ATOM     19  O   UNL     1      38.931  -3.209  12.579  0.00  0.00    +0.000 OA
BRANCH  17  20
ATOM     20  C   UNL     1      41.726  -3.071  13.083  0.00  0.00    +0.000 C 
BRANCH  20  21
ATOM     21  C   UNL     1      42.853  -2.086  13.108  0.00  0.00    +0.000 C 
BRANCH  21  23
ATOM     22  C   UNL     1      43.785  -0.231  14.529  0.00  0.00    +0.000 C 
ATOM     23  C   UNL     1      43.268  -1.652  14.475  0.00  0.00    +0.000 C 
ENDBRANCH  21  23
ENDBRANCH  20  21
ENDBRANCH  17  20
ENDBRANCH   1  18
BRANCH   1  24
ATOM     24  N   UNL     1      36.969  -2.841  14.544  0.00  0.00    +0.000 NA
ATOM     25  C   UNL     1      36.719  -4.012  15.274  0.00  0.00    +0.000 C 
ATOM     26  O   UNL     1      37.637  -4.514  15.961  0.00  0.00    +0.000 OA
BRANCH  25  27
ATOM     27  C   UNL     1      35.401  -4.682  15.264  0.00  0.00    +0.000 A 
ATOM     28  C   UNL     1      35.310  -6.026  15.534  0.00  0.00    +0.000 A 
ATOM     29  C   UNL     1      34.100  -6.691  15.539  0.00  0.00    +0.000 A 
ATOM     30  C   UNL     1      32.928  -6.019  15.269  0.00  0.00    +0.000 A 
ATOM     31  C   UNL     1      33.003  -4.673  14.996  0.00  0.00    +0.000 A 
ATOM     32  C   UNL     1      34.228  -4.010  14.994  0.00  0.00    +0.000 A 
ENDBRANCH  25  27
ENDBRANCH   1  24
TORSDOF 7
ENDMDL
MODEL 4
REMARK VINA RESULT:      -7.8      3.861      6.880
REMARK  Name = 
REMARK  7 active torsions:
REMARK  status: ('A' for Active; 'I' for Inactive)
REMARK    1  A    between atoms: C_2  and  C_3
REMARK    2  A    between atoms: C_3  and  C_4
REMARK    3  A    between atoms: C_4  and  N_5
REMARK    4  A    between atoms: C_6  and  C_8
REMARK    5  A    between atoms: C_8  and  N_24
REMARK    6  A    between atoms: C_9  and  C_10
REMARK    7  A    between atoms: C_25  and  C_27
REMARK                            x       y       z     vdW  Elec       q    Type
REMARK                         _______ _______ _______ _____ _____    ______ ____
ROOT
ATOM      1  C   UNL     1      36.629   2.121  16.135  0.00  0.00    +0.000 C 
ATOM      2  C   UNL     1      36.596   3.403  15.961  0.00  0.00    +0.000 C 
ENDROOT
BRANCH   2   3
ATOM      3  C   UNL     1      37.706   4.211  15.587  0.00  0.00    +0.000 A 
ATOM      4  C   UNL     1      38.583   4.849  16.429  0.00  0.00    +0.000 A 
ATOM      5  C   UNL     1      38.494   4.698  17.793  0.00  0.00    +0.000 A 
ATOM      6  C   UNL     1      39.362   5.303  18.668  0.00  0.00    +0.000 A 
ATOM      7  C   UNL     1      40.385   6.108  18.199  0.00  0.00    +0.000 A 
ATOM      8  C   UNL     1      40.475   6.260  16.823  0.00  0.00    +0.000 A 
ATOM      9  C   UNL     1      39.606   5.656  15.940  0.00  0.00    +0.000 A 
ATOM     10  C   UNL     1      39.737   5.811  14.568  0.00  0.00    +0.000 A 
ATOM     11  C   UNL     1      38.882   5.189  13.685  0.00  0.00    +0.000 A 
ATOM     12  C   UNL     1      39.030   5.358  12.312  0.00  0.00    +0.000 A 
ATOM     13  C   UNL     1      38.172   4.736  11.426  0.00  0.00    +0.000 A 
ATOM     14  C   UNL     1      37.178   3.953  11.926  0.00  0.00    +0.000 A 
ATOM     15  C   UNL     1      37.024   3.778  13.303  0.00  0.00    +0.000 A 
ATOM     16  C   UNL     1      37.882   4.401  14.203  0.00  0.00    +0.000 A 
ENDBRANCH   2   3
BRANCH   1  18
ATOM     17  N   UNL     1      35.437   0.015  16.929  0.00  0.00    +0.000 NA
ATOM     18  C   UNL     1      35.407   1.364  16.525  0.00  0.00    +0.000 C 
ATOM     19  O   UNL     1      34.332   1.982  16.480  0.00  0.00    +0.000 OA
BRANCH  17  20
ATOM     20  C   UNL     1      34.258  -0.736  17.312  0.00  0.00    +0.000 C 
BRANCH  20  21
ATOM     21  C   UNL     1      34.469  -2.176  16.961  0.00  0.00    +0.000 C 
BRANCH  21  23
ATOM     22  C   UNL     1      34.989  -3.619  14.967  0.00  0.00    +0.000 C 
ATOM     23  C   UNL     1      35.362  -2.404  15.787  0.00  0.00    +0.000 C 
ENDBRANCH  21  23
ENDBRANCH  20  21
ENDBRANCH  17  20
ENDBRANCH   1  18
BRANCH   1  24
ATOM     24  N   UNL     1      37.847   1.423  15.974  0.00  0.00    +0.000 NA
ATOM     25  C   UNL     1      38.097   0.592  14.872  0.00  0.00    +0.000 C 
ATOM     26  O   UNL     1      37.216   0.457  13.993  0.00  0.00    +0.000 OA
BRANCH  25  27
ATOM     27  C   UNL     1      39.374  -0.135  14.706  0.00  0.00    +0.000 A 
ATOM     28  C   UNL     1      40.474   0.512  14.198  0.00  0.00    +0.000 A 
ATOM     29  C   UNL     1      41.686  -0.127  14.029  0.00  0.00    +0.000 A 
ATOM     30  C   UNL     1      41.835  -1.452  14.371  0.00  0.00    +0.000 A 
ATOM     31  C   UNL     1      40.742  -2.115  14.881  0.00  0.00    +0.000 A 
ATOM     32  C   UNL     1      39.523  -1.462  15.048  0.00  0.00    +0.000 A 
ENDBRANCH  25  27
ENDBRANCH   1  24
TORSDOF 7
ENDMDL
MODEL 5
REMARK VINA RESULT:      -7.7      4.924      9.132
REMARK  Name = 
REMARK  7 active torsions:
REMARK  status: ('A' for Active; 'I' for Inactive)
REMARK    1  A    between atoms: C_2  and  C_3
REMARK    2  A    between atoms: C_3  and  C_4
REMARK    3  A    between atoms: C_4  and  N_5
REMARK    4  A    between atoms: C_6  and  C_8
REMARK    5  A    between atoms: C_8  and  N_24
REMARK    6  A    between atoms: C_9  and  C_10
REMARK    7  A    between atoms: C_25  and  C_27
REMARK                            x       y       z     vdW  Elec       q    Type
REMARK                         _______ _______ _______ _____ _____    ______ ____
ROOT
ATOM      1  C   UNL     1      36.483   4.267  14.376  0.00  0.00    +0.000 C 
ATOM      2  C   UNL     1      36.510   3.068  13.890  0.00  0.00    +0.000 C 
ENDROOT
BRANCH   2   3
ATOM      3  C   UNL     1      37.258   1.981  14.422  0.00  0.00    +0.000 A 
ATOM      4  C   UNL     1      38.533   1.610  14.074  0.00  0.00    +0.000 A 
ATOM      5  C   UNL     1      39.265   2.343  13.170  0.00  0.00    +0.000 A 
ATOM      6  C   UNL     1      40.549   2.016  12.810  0.00  0.00    +0.000 A 
ATOM      7  C   UNL     1      41.171   0.908  13.357  0.00  0.00    +0.000 A 
ATOM      8  C   UNL     1      40.434   0.168  14.269  0.00  0.00    +0.000 A 
ATOM      9  C   UNL     1      39.144   0.491  14.634  0.00  0.00    +0.000 A 
ATOM     10  C   UNL     1      38.442  -0.258  15.566  0.00  0.00    +0.000 A 
ATOM     11  C   UNL     1      37.161   0.078  15.946  0.00  0.00    +0.000 A 
ATOM     12  C   UNL     1      36.473  -0.687  16.882  0.00  0.00    +0.000 A 
ATOM     13  C   UNL     1      35.188  -0.352  17.264  0.00  0.00    +0.000 A 
ATOM     14  C   UNL     1      34.610   0.745  16.703  0.00  0.00    +0.000 A 
ATOM     15  C   UNL     1      35.295   1.518  15.763  0.00  0.00    +0.000 A 
ATOM     16  C   UNL     1      36.588   1.188  15.372  0.00  0.00    +0.000 A 
ENDBRANCH   2   3
BRANCH   1  18
ATOM     17  N   UNL     1      34.491   5.854  14.333  0.00  0.00    +0.000 NA
ATOM     18  C   UNL     1      35.662   5.337  13.744  0.00  0.00    +0.000 C 
ATOM     19  O   UNL     1      36.058   5.770  12.651  0.00  0.00    +0.000 OA
BRANCH  17  20
ATOM     20  C   UNL     1      33.681   6.894  13.732  0.00  0.00    +0.000 C 
BRANCH  20  21
ATOM     21  C   UNL     1      34.097   8.216  14.299  0.00  0.00    +0.000 C 
BRANCH  21  23
ATOM     22  C   UNL     1      33.915   9.882  16.175  0.00  0.00    +0.000 C 
ATOM     23  C   UNL     1      33.425   8.580  15.582  0.00  0.00    +0.000 C 
ENDBRANCH  21  23
ENDBRANCH  20  21
ENDBRANCH  17  20
ENDBRANCH   1  18
BRANCH   1  24
ATOM     24  N   UNL     1      37.260   4.579  15.514  0.00  0.00    +0.000 NA
ATOM     25  C   UNL     1      38.459   5.302  15.431  0.00  0.00    +0.000 C 
ATOM     26  O   UNL     1      38.866   5.688  14.312  0.00  0.00    +0.000 OA
BRANCH  25  27
ATOM     27  C   UNL     1      39.267   5.628  16.625  0.00  0.00    +0.000 A 
ATOM     28  C   UNL     1      38.724   5.499  17.880  0.00  0.00    +0.000 A 
ATOM     29  C   UNL     1      39.444   5.789  19.022  0.00  0.00    +0.000 A 
ATOM     30  C   UNL     1      40.748   6.223  18.939  0.00  0.00    +0.000 A 
ATOM     31  C   UNL     1      41.306   6.358  17.690  0.00  0.00    +0.000 A 
ATOM     32  C   UNL     1      40.573   6.062  16.543  0.00  0.00    +0.000 A 
ENDBRANCH  25  27
ENDBRANCH   1  24
TORSDOF 7
ENDMDL
MODEL 6
REMARK VINA RESULT:      -7.7      4.194      7.730
REMARK  Name = 
REMARK  7 active torsions:
REMARK  status: ('A' for Active; 'I' for Inactive)
REMARK    1  A    between atoms: C_2  and  C_3
REMARK    2  A    between atoms: C_3  and  C_4
REMARK    3  A    between atoms: C_4  and  N_5
REMARK    4  A    between atoms: C_6  and  C_8
REMARK    5  A    between atoms: C_8  and  N_24
REMARK    6  A    between atoms: C_9  and  C_10
REMARK    7  A    between atoms: C_25  and  C_27
REMARK                            x       y       z     vdW  Elec       q    Type
REMARK                         _______ _______ _______ _____ _____    ______ ____
ROOT
ATOM      1  C   UNL     1      38.397   2.288  13.121  0.00  0.00    +0.000 C 
ATOM      2  C   UNL     1      37.868   1.110  13.194  0.00  0.00    +0.000 C 
ENDROOT
BRANCH   2   3
ATOM      3  C   UNL     1      37.738   0.339  14.382  0.00  0.00    +0.000 A 
ATOM      4  C   UNL     1      36.797   0.500  15.369  0.00  0.00    +0.000 A 
ATOM      5  C   UNL     1      35.799   1.438  15.254  0.00  0.00    +0.000 A 
ATOM      6  C   UNL     1      34.829   1.617  16.209  0.00  0.00    +0.000 A 
ATOM      7  C   UNL     1      34.819   0.839  17.354  0.00  0.00    +0.000 A 
ATOM      8  C   UNL     1      35.825  -0.107  17.471  0.00  0.00    +0.000 A 
ATOM      9  C   UNL     1      36.802  -0.291  16.515  0.00  0.00    +0.000 A 
ATOM     10  C   UNL     1      37.782  -1.262  16.654  0.00  0.00    +0.000 A 
ATOM     11  C   UNL     1      38.745  -1.460  15.688  0.00  0.00    +0.000 A 
ATOM     12  C   UNL     1      39.721  -2.439  15.846  0.00  0.00    +0.000 A 
ATOM     13  C   UNL     1      40.687  -2.637  14.880  0.00  0.00    +0.000 A 
ATOM     14  C   UNL     1      40.664  -1.852  13.768  0.00  0.00    +0.000 A 
ATOM     15  C   UNL     1      39.688  -0.868  13.602  0.00  0.00    +0.000 A 
ATOM     16  C   UNL     1      38.711  -0.660  14.570  0.00  0.00    +0.000 A 
ENDBRANCH   2   3
BRANCH   1  18
ATOM     17  N   UNL     1      37.353   3.337  11.047  0.00  0.00    +0.000 NA
ATOM     18  C   UNL     1      38.484   3.016  11.823  0.00  0.00    +0.000 C 
ATOM     19  O   UNL     1      39.620   3.338  11.442  0.00  0.00    +0.000 OA
BRANCH  17  20
ATOM     20  C   UNL     1      37.420   4.045   9.784  0.00  0.00    +0.000 C 
BRANCH  20  21
ATOM     21  C   UNL     1      36.797   3.194   8.722  0.00  0.00    +0.000 C 
BRANCH  21  23
ATOM     22  C   UNL     1      35.645   3.457   6.501  0.00  0.00    +0.000 C 
ATOM     23  C   UNL     1      35.700   3.859   7.958  0.00  0.00    +0.000 C 
ENDBRANCH  21  23
ENDBRANCH  20  21
ENDBRANCH  17  20
ENDBRANCH   1  18
BRANCH   1  24
ATOM     24  N   UNL     1      38.922   2.895  14.284  0.00  0.00    +0.000 NA
ATOM     25  C   UNL     1      38.334   4.023  14.875  0.00  0.00    +0.000 C 
ATOM     26  O   UNL     1      37.306   4.519  14.361  0.00  0.00    +0.000 OA
BRANCH  25  27
ATOM     27  C   UNL     1      38.885   4.652  16.094  0.00  0.00    +0.000 A 
ATOM     28  C   UNL     1      38.316   4.399  17.318  0.00  0.00    +0.000 A 
ATOM     29  C   UNL     1      38.800   4.962  18.481  0.00  0.00    +0.000 A 
ATOM     30  C   UNL     1      39.886   5.808  18.453  0.00  0.00    +0.000 A 
ATOM     31  C   UNL     1      40.468   6.073  17.235  0.00  0.00    +0.000 A 
ATOM     32  C   UNL     1      39.972   5.500  16.065  0.00  0.00    +0.000 A 
ENDBRANCH  25  27
ENDBRANCH   1  24
TORSDOF 7
ENDMDL
MODEL 7
REMARK VINA RESULT:      -7.5      4.377      7.721
REMARK  Name = 
REMARK  7 active torsions:
REMARK  status: ('A' for Active; 'I' for Inactive)
REMARK    1  A    between atoms: C_2  and  C_3
REMARK    2  A    between atoms: C_3  and  C_4
REMARK    3  A    between atoms: C_4  and  N_5
REMARK    4  A    between atoms: C_6  and  C_8
REMARK    5  A    between atoms: C_8  and  N_24
REMARK    6  A    between atoms: C_9  and  C_10
REMARK    7  A    between atoms: C_25  and  C_27
REMARK                            x       y       z     vdW  Elec       q    Type
REMARK                         _______ _______ _______ _____ _____    ______ ____
ROOT
ATOM      1  C   UNL     1      38.318   2.733  13.119  0.00  0.00    +0.000 C 
ATOM      2  C   UNL     1      37.861   1.523  13.128  0.00  0.00    +0.000 C 
ENDROOT
BRANCH   2   3
ATOM      3  C   UNL     1      37.886   0.643  14.245  0.00  0.00    +0.000 A 
ATOM      4  C   UNL     1      38.797  -0.355  14.488  0.00  0.00    +0.000 A 
ATOM      5  C   UNL     1      39.866  -0.560  13.649  0.00  0.00    +0.000 A 
ATOM      6  C   UNL     1      40.809  -1.535  13.867  0.00  0.00    +0.000 A 
ATOM      7  C   UNL     1      40.714  -2.370  14.966  0.00  0.00    +0.000 A 
ATOM      8  C   UNL     1      39.636  -2.164  15.812  0.00  0.00    +0.000 A 
ATOM      9  C   UNL     1      38.687  -1.187  15.599  0.00  0.00    +0.000 A 
ATOM     10  C   UNL     1      37.631  -0.994  16.477  0.00  0.00    +0.000 A 
ATOM     11  C   UNL     1      36.694  -0.003  16.275  0.00  0.00    +0.000 A 
ATOM     12  C   UNL     1      35.643   0.175  17.168  0.00  0.00    +0.000 A 
ATOM     13  C   UNL     1      34.703   1.166  16.966  0.00  0.00    +0.000 A 
ATOM     14  C   UNL     1      34.829   1.967  15.872  0.00  0.00    +0.000 A 
ATOM     15  C   UNL     1      35.883   1.795  14.972  0.00  0.00    +0.000 A 
ATOM     16  C   UNL     1      36.833   0.799  15.167  0.00  0.00    +0.000 A 
ENDBRANCH   2   3
BRANCH   1  18
ATOM     17  N   UNL     1      37.064   3.722  11.135  0.00  0.00    +0.000 NA
ATOM     18  C   UNL     1      38.241   3.578  11.893  0.00  0.00    +0.000 C 
ATOM     19  O   UNL     1      39.281   4.166  11.558  0.00  0.00    +0.000 OA
BRANCH  17  20
ATOM     20  C   UNL     1      36.972   4.540   9.941  0.00  0.00    +0.000 C 
BRANCH  20  21
ATOM     21  C   UNL     1      36.774   3.644   8.758  0.00  0.00    +0.000 C 
BRANCH  21  23
ATOM     22  C   UNL     1      35.688   3.457   6.497  0.00  0.00    +0.000 C 
ATOM     23  C   UNL     1      35.594   3.988   7.910  0.00  0.00    +0.000 C 
ENDBRANCH  21  23
ENDBRANCH  20  21
ENDBRANCH  17  20
ENDBRANCH   1  18
BRANCH   1  24
ATOM     24  N   UNL     1      38.921   3.264  14.281  0.00  0.00    +0.000 NA
ATOM     25  C   UNL     1      38.366   4.338  14.993  0.00  0.00    +0.000 C 
ATOM     26  O   UNL     1      37.298   4.853  14.592  0.00  0.00    +0.000 OA
BRANCH  25  27
ATOM     27  C   UNL     1      38.999   4.888  16.210  0.00  0.00    +0.000 A 
ATOM     28  C   UNL     1      40.139   5.649  16.109  0.00  0.00    +0.000 A 
ATOM     29  C   UNL     1      40.761   6.186  17.218  0.00  0.00    +0.000 A 
ATOM     30  C   UNL     1      40.253   5.974  18.481  0.00  0.00    +0.000 A 
ATOM     31  C   UNL     1      39.113   5.213  18.599  0.00  0.00    +0.000 A 
ATOM     32  C   UNL     1      38.491   4.676  17.474  0.00  0.00    +0.000 A 
ENDBRANCH  25  27
ENDBRANCH   1  24
TORSDOF 7
ENDMDL
MODEL 8
REMARK VINA RESULT:      -7.5      3.790      6.102
REMARK  Name = 
REMARK  7 active torsions:
REMARK  status: ('A' for Active; 'I' for Inactive)
REMARK    1  A    between atoms: C_2  and  C_3
REMARK    2  A    between atoms: C_3  and  C_4
REMARK    3  A    between atoms: C_4  and  N_5
REMARK    4  A    between atoms: C_6  and  C_8
REMARK    5  A    between atoms: C_8  and  N_24
REMARK    6  A    between atoms: C_9  and  C_10
REMARK    7  A    between atoms: C_25  and  C_27
REMARK                            x       y       z     vdW  Elec       q    Type
REMARK                         _______ _______ _______ _____ _____    ______ ____
ROOT
ATOM      1  C   UNL     1      37.763   1.803  14.604  0.00  0.00    +0.000 C 
ATOM      2  C   UNL     1      38.799   1.941  13.842  0.00  0.00    +0.000 C 
ENDROOT
BRANCH   2   3
ATOM      3  C   UNL     1      39.253   0.988  12.889  0.00  0.00    +0.000 A 
ATOM      4  C   UNL     1      40.054  -0.101  13.130  0.00  0.00    +0.000 A 
ATOM      5  C   UNL     1      40.460  -0.417  14.405  0.00  0.00    +0.000 A 
ATOM      6  C   UNL     1      41.245  -1.507  14.690  0.00  0.00    +0.000 A 
ATOM      7  C   UNL     1      41.669  -2.350  13.678  0.00  0.00    +0.000 A 
ATOM      8  C   UNL     1      41.261  -2.032  12.392  0.00  0.00    +0.000 A 
ATOM      9  C   UNL     1      40.473  -0.939  12.100  0.00  0.00    +0.000 A 
ATOM     10  C   UNL     1      40.064  -0.662  10.804  0.00  0.00    +0.000 A 
ATOM     11  C   UNL     1      39.258   0.419  10.516  0.00  0.00    +0.000 A 
ATOM     12  C   UNL     1      38.859   0.680   9.209  0.00  0.00    +0.000 A 
ATOM     13  C   UNL     1      38.053   1.763   8.919  0.00  0.00    +0.000 A 
ATOM     14  C   UNL     1      37.656   2.570   9.941  0.00  0.00    +0.000 A 
ATOM     15  C   UNL     1      38.053   2.313  11.255  0.00  0.00    +0.000 A 
ATOM     16  C   UNL     1      38.865   1.226  11.557  0.00  0.00    +0.000 A 
ENDBRANCH   2   3
BRANCH   1  18
ATOM     17  N   UNL     1      38.304   3.677  16.243  0.00  0.00    +0.000 NA
ATOM     18  C   UNL     1      37.368   2.866  15.571  0.00  0.00    +0.000 C 
ATOM     19  O   UNL     1      36.153   3.015  15.767  0.00  0.00    +0.000 OA
BRANCH  17  20
ATOM     20  C   UNL     1      37.937   4.715  17.185  0.00  0.00    +0.000 C 
BRANCH  20  21
ATOM     21  C   UNL     1      38.928   4.720  18.307  0.00  0.00    +0.000 C 
BRANCH  21  23
ATOM     22  C   UNL     1      40.117   6.368  19.789  0.00  0.00    +0.000 C 
ATOM     23  C   UNL     1      39.780   5.945  18.377  0.00  0.00    +0.000 C 
ENDBRANCH  21  23
ENDBRANCH  20  21
ENDBRANCH  17  20
ENDBRANCH   1  18
BRANCH   1  24
ATOM     24  N   UNL     1      36.998   0.617  14.539  0.00  0.00    +0.000 NA
ATOM     25  C   UNL     1      37.073  -0.382  15.521  0.00  0.00    +0.000 C 
ATOM     26  O   UNL     1      37.844  -0.227  16.495  0.00  0.00    +0.000 OA
BRANCH  25  27
ATOM     27  C   UNL     1      36.269  -1.621  15.449  0.00  0.00    +0.000 A 
ATOM     28  C   UNL     1      35.186  -1.787  16.277  0.00  0.00    +0.000 A 
ATOM     29  C   UNL     1      34.405  -2.925  16.242  0.00  0.00    +0.000 A 
ATOM     30  C   UNL     1      34.691  -3.946  15.362  0.00  0.00    +0.000 A 
ATOM     31  C   UNL     1      35.773  -3.795  14.526  0.00  0.00    +0.000 A 
ATOM     32  C   UNL     1      36.555  -2.642  14.568  0.00  0.00    +0.000 A 
ENDBRANCH  25  27
ENDBRANCH   1  24
TORSDOF 7
ENDMDL
MODEL 9
REMARK VINA RESULT:      -7.3      4.408      8.925
REMARK  Name = 
REMARK  7 active torsions:
REMARK  status: ('A' for Active; 'I' for Inactive)
REMARK    1  A    between atoms: C_2  and  C_3
REMARK    2  A    between atoms: C_3  and  C_4
REMARK    3  A    between atoms: C_4  and  N_5
REMARK    4  A    between atoms: C_6  and  C_8
REMARK    5  A    between atoms: C_8  and  N_24
REMARK    6  A    between atoms: C_9  and  C_10
REMARK    7  A    between atoms: C_25  and  C_27
REMARK                            x       y       z     vdW  Elec       q    Type
REMARK                         _______ _______ _______ _____ _____    ______ ____
ROOT
ATOM      1  C   UNL     1      37.854   1.975  14.907  0.00  0.00    +0.000 C 
ATOM      2  C   UNL     1      38.382   1.612  13.783  0.00  0.00    +0.000 C 
ENDROOT
BRANCH   2   3
ATOM      3  C   UNL     1      39.694   1.941  13.347  0.00  0.00    +0.000 A 
ATOM      4  C   UNL     1      40.082   3.079  12.683  0.00  0.00    +0.000 A 
ATOM      5  C   UNL     1      39.187   4.089  12.424  0.00  0.00    +0.000 A 
ATOM      6  C   UNL     1      39.537   5.250  11.780  0.00  0.00    +0.000 A 
ATOM      7  C   UNL     1      40.839   5.452  11.356  0.00  0.00    +0.000 A 
ATOM      8  C   UNL     1      41.743   4.433  11.618  0.00  0.00    +0.000 A 
ATOM      9  C   UNL     1      41.396   3.266  12.264  0.00  0.00    +0.000 A 
ATOM     10  C   UNL     1      42.330   2.275  12.528  0.00  0.00    +0.000 A 
ATOM     11  C   UNL     1      41.987   1.118  13.193  0.00  0.00    +0.000 A 
ATOM     12  C   UNL     1      42.938   0.136  13.448  0.00  0.00    +0.000 A 
ATOM     13  C   UNL     1      42.596  -1.025  14.113  0.00  0.00    +0.000 A 
ATOM     14  C   UNL     1      41.305  -1.187  14.514  0.00  0.00    +0.000 A 
ATOM     15  C   UNL     1      40.345  -0.206  14.261  0.00  0.00    +0.000 A 
ATOM     16  C   UNL     1      40.680   0.966  13.591  0.00  0.00    +0.000 A 
ENDBRANCH   2   3
BRANCH   1  18
ATOM     17  N   UNL     1      36.107   1.150  16.568  0.00  0.00    +0.000 NA
ATOM     18  C   UNL     1      36.466   1.574  15.274  0.00  0.00    +0.000 C 
ATOM     19  O   UNL     1      35.615   1.629  14.372  0.00  0.00    +0.000 OA
BRANCH  17  20
ATOM     20  C   UNL     1      34.763   0.756  16.941  0.00  0.00    +0.000 C 
BRANCH  20  21
ATOM     21  C   UNL     1      34.838  -0.481  17.779  0.00  0.00    +0.000 C 
BRANCH  21  23
ATOM     22  C   UNL     1      36.745  -1.360  19.165  0.00  0.00    +0.000 C 
ATOM     23  C   UNL     1      35.641  -0.336  19.030  0.00  0.00    +0.000 C 
ENDBRANCH  21  23
ENDBRANCH  20  21
ENDBRANCH  17  20
ENDBRANCH   1  18
BRANCH   1  24
ATOM     24  N   UNL     1      38.592   2.783  15.800  0.00  0.00    +0.000 NA
ATOM     25  C   UNL     1      38.292   4.137  16.014  0.00  0.00    +0.000 C 
ATOM     26  O   UNL     1      37.337   4.658  15.395  0.00  0.00    +0.000 OA
BRANCH  25  27
ATOM     27  C   UNL     1      39.067   4.978  16.951  0.00  0.00    +0.000 A 
ATOM     28  C   UNL     1      40.079   5.779  16.480  0.00  0.00    +0.000 A 
ATOM     29  C   UNL     1      40.826   6.583  17.319  0.00  0.00    +0.000 A 
ATOM     30  C   UNL     1      40.576   6.609  18.673  0.00  0.00    +0.000 A 
ATOM     31  C   UNL     1      39.566   5.812  19.159  0.00  0.00    +0.000 A 
ATOM     32  C   UNL     1      38.818   5.004  18.306  0.00  0.00    +0.000 A 
ENDBRANCH  25  27
ENDBRANCH   1  24
TORSDOF 7
ENDMDL
MODEL 10
REMARK VINA RESULT:      -7.2      4.839      8.862
REMARK  Name = 
REMARK  7 active torsions:
REMARK  status: ('A' for Active; 'I' for Inactive)
REMARK    1  A    between atoms: C_2  and  C_3
REMARK    2  A    between atoms: C_3  and  C_4
REMARK    3  A    between atoms: C_4  and  N_5
REMARK    4  A    between atoms: C_6  and  C_8
REMARK    5  A    between atoms: C_8  and  N_24
REMARK    6  A    between atoms: C_9  and  C_10
REMARK    7  A    between atoms: C_25  and  C_27
REMARK                            x       y       z     vdW  Elec       q    Type
REMARK                         _______ _______ _______ _____ _____    ______ ____
ROOT
ATOM      1  C   UNL     1      36.005   3.346  15.208  0.00  0.00    +0.000 C 
ATOM      2  C   UNL     1      35.789   3.618  13.962  0.00  0.00    +0.000 C 
ENDROOT
BRANCH   2   3
ATOM      3  C   UNL     1      36.336   4.723  13.253  0.00  0.00    +0.000 A 
ATOM      4  C   UNL     1      37.513   4.747  12.545  0.00  0.00    +0.000 A 
ATOM      5  C   UNL     1      38.277   3.615  12.400  0.00  0.00    +0.000 A 
ATOM      6  C   UNL     1      39.449   3.592  11.685  0.00  0.00    +0.000 A 
ATOM      7  C   UNL     1      39.918   4.739  11.069  0.00  0.00    +0.000 A 
ATOM      8  C   UNL     1      39.146   5.882  11.215  0.00  0.00    +0.000 A 
ATOM      9  C   UNL     1      37.969   5.911  11.932  0.00  0.00    +0.000 A 
ATOM     10  C   UNL     1      37.211   7.066  12.041  0.00  0.00    +0.000 A 
ATOM     11  C   UNL     1      36.023   7.088  12.740  0.00  0.00    +0.000 A 
ATOM     12  C   UNL     1      35.277   8.258  12.838  0.00  0.00    +0.000 A 
ATOM     13  C   UNL     1      34.087   8.282  13.539  0.00  0.00    +0.000 A 
ATOM     14  C   UNL     1      33.660   7.133  14.132  0.00  0.00    +0.000 A 
ATOM     15  C   UNL     1      34.404   5.955  14.037  0.00  0.00    +0.000 A 
ATOM     16  C   UNL     1      35.604   5.922  13.334  0.00  0.00    +0.000 A 
ENDBRANCH   2   3
BRANCH   1  18
ATOM     17  N   UNL     1      35.940   0.866  15.785  0.00  0.00    +0.000 NA
ATOM     18  C   UNL     1      35.384   2.158  15.858  0.00  0.00    +0.000 C 
ATOM     19  O   UNL     1      34.331   2.354  16.484  0.00  0.00    +0.000 OA
BRANCH  17  20
ATOM     20  C   UNL     1      35.349  -0.300  16.411  0.00  0.00    +0.000 C 
BRANCH  20  21
ATOM     21  C   UNL     1      36.444  -1.155  16.967  0.00  0.00    +0.000 C 
BRANCH  21  23
ATOM     22  C   UNL     1      35.608  -0.321  19.189  0.00  0.00    +0.000 C 
ATOM     23  C   UNL     1      36.765  -0.897  18.403  0.00  0.00    +0.000 C 
ENDBRANCH  21  23
ENDBRANCH  20  21
ENDBRANCH  17  20
ENDBRANCH   1  18
BRANCH   1  24
ATOM     24  N   UNL     1      36.829   4.197  15.978  0.00  0.00    +0.000 NA
ATOM     25  C   UNL     1      38.190   3.935  16.193  0.00  0.00    +0.000 C 
ATOM     26  O   UNL     1      38.704   2.910  15.689  0.00  0.00    +0.000 OA
BRANCH  25  27
ATOM     27  C   UNL     1      39.048   4.830  16.998  0.00  0.00    +0.000 A 
ATOM     28  C   UNL     1      40.054   5.545  16.395  0.00  0.00    +0.000 A 
ATOM     29  C   UNL     1      40.877   6.395  17.107  0.00  0.00    +0.000 A 
ATOM     30  C   UNL     1      40.713   6.556  18.465  0.00  0.00    +0.000 A 
ATOM     31  C   UNL     1      39.711   5.846  19.084  0.00  0.00    +0.000 A 
ATOM     32  C   UNL     1      38.885   4.991  18.357  0.00  0.00    +0.000 A 
ENDBRANCH  25  27
ENDBRANCH   1  24
TORSDOF 7
ENDMDL
