MODEL 1
REMARK VINA RESULT:      -6.6      0.000      0.000
REMARK  Name = 
REMARK  3 active torsions:
REMARK  status: ('A' for Active; 'I' for Inactive)
REMARK    1  A    between atoms: C_2  and  C_5
REMARK    2  A    between atoms: C_8  and  C_9
REMARK    3  A    between atoms: N_11  and  C_12
REMARK                            x       y       z     vdW  Elec       q    Type
REMARK                         _______ _______ _______ _____ _____    ______ ____
ROOT
ATOM      1  C   UNL     1      26.474  -8.405  22.516  0.00  0.00    +0.000 A 
ATOM      2  C   UNL     1      26.068  -7.320  23.280  0.00  0.00    +0.000 A 
ATOM      3  C   UNL     1      24.795  -7.161  23.768  0.00  0.00    +0.000 A 
ATOM      4  C   UNL     1      23.817  -8.140  23.487  0.00  0.00    +0.000 A 
ATOM      5  C   UNL     1      24.220  -9.204  22.744  0.00  0.00    +0.000 A 
ATOM      6  C   UNL     1      25.499  -9.347  22.265  0.00  0.00    +0.000 A 
ENDROOT
BRANCH   1   8
ATOM      7  C   UNL     1      27.920  -9.291  20.720  0.00  0.00    +0.000 C 
ATOM      8  C   UNL     1      27.883  -8.527  22.013  0.00  0.00    +0.000 C 
ATOM      9  C   UNL     1      28.458  -7.156  21.732  0.00  0.00    +0.000 C 
ATOM     10  C   UNL     1      28.741  -9.198  23.070  0.00  0.00    +0.000 C 
ENDBRANCH   1   8
BRANCH   4  11
ATOM     11  C   UNL     1      22.456  -7.931  23.955  0.00  0.00    +0.000 C 
ATOM     12  O   UNL     1      21.526  -8.303  23.216  0.00  0.00    +0.000 OA
ATOM     13  N   UNL     1      22.217  -7.317  25.210  0.00  0.00    +0.000 NA
BRANCH  13  14
ATOM     14  C   UNL     1      20.903  -7.124  25.723  0.00  0.00    +0.000 A 
ATOM     15  C   UNL     1      20.125  -8.109  26.268  0.00  0.00    +0.000 A 
ATOM     16  C   UNL     1      18.868  -7.864  26.744  0.00  0.00    +0.000 A 
ATOM     17  C   UNL     1      18.346  -6.600  26.691  0.00  0.00    +0.000 A 
ATOM     18  O   UNL     1      17.070  -6.313  27.176  0.00  0.00    +0.000 OA
ATOM     19  C   UNL     1      19.113  -5.587  26.142  0.00  0.00    +0.000 A 
ATOM     20  C   UNL     1      20.368  -5.831  25.664  0.00  0.00    +0.000 A 
ENDBRANCH  13  14
ENDBRANCH   4  11
TORSDOF 3
ENDMDL
MODEL 2
REMARK VINA RESULT:      -6.5     16.143     17.659
REMARK  Name = 
REMARK  3 active torsions:
REMARK  status: ('A' for Active; 'I' for Inactive)
REMARK    1  A    between atoms: C_2  and  C_5
REMARK    2  A    between atoms: C_8  and  C_9
REMARK    3  A    between atoms: N_11  and  C_12
REMARK                            x       y       z     vdW  Elec       q    Type
REMARK                         _______ _______ _______ _____ _____    ______ ____
ROOT
ATOM      1  C   UNL     1      33.755   3.450  35.015  0.00  0.00    +0.000 A 
ATOM      2  C   UNL     1      34.021   2.670  36.131  0.00  0.00    +0.000 A 
ATOM      3  C   UNL     1      34.075   1.298  36.111  0.00  0.00    +0.000 A 
ATOM      4  C   UNL     1      33.845   0.612  34.898  0.00  0.00    +0.000 A 
ATOM      5  C   UNL     1      33.591   1.380  33.806  0.00  0.00    +0.000 A 
ATOM      6  C   UNL     1      33.542   2.752  33.845  0.00  0.00    +0.000 A 
ENDROOT
BRANCH   1   8
ATOM      7  C   UNL     1      33.403   5.394  36.497  0.00  0.00    +0.000 C 
ATOM      8  C   UNL     1      33.713   4.948  35.097  0.00  0.00    +0.000 C 
ATOM      9  C   UNL     1      35.062   5.530  34.736  0.00  0.00    +0.000 C 
ATOM     10  C   UNL     1      32.685   5.478  34.114  0.00  0.00    +0.000 C 
ENDBRANCH   1   8
BRANCH   4  11
ATOM     11  C   UNL     1      33.842  -0.842  34.901  0.00  0.00    +0.000 C 
ATOM     12  O   UNL     1      34.728  -1.421  35.555  0.00  0.00    +0.000 OA
ATOM     13  N   UNL     1      32.859  -1.557  34.173  0.00  0.00    +0.000 NA
BRANCH  13  14
ATOM     14  C   UNL     1      32.797  -2.979  34.175  0.00  0.00    +0.000 A 
ATOM     15  C   UNL     1      32.107  -3.729  35.089  0.00  0.00    +0.000 A 
ATOM     16  C   UNL     1      32.085  -5.094  35.042  0.00  0.00    +0.000 A 
ATOM     17  C   UNL     1      32.761  -5.761  34.057  0.00  0.00    +0.000 A 
ATOM     18  O   UNL     1      32.753  -7.153  33.974  0.00  0.00    +0.000 OA
ATOM     19  C   UNL     1      33.469  -5.024  33.122  0.00  0.00    +0.000 A 
ATOM     20  C   UNL     1      33.494  -3.661  33.170  0.00  0.00    +0.000 A 
ENDBRANCH  13  14
ENDBRANCH   4  11
TORSDOF 3
ENDMDL
MODEL 3
REMARK VINA RESULT:      -6.4     18.428     19.644
REMARK  Name = 
REMARK  3 active torsions:
REMARK  status: ('A' for Active; 'I' for Inactive)
REMARK    1  A    between atoms: C_2  and  C_5
REMARK    2  A    between atoms: C_8  and  C_9
REMARK    3  A    between atoms: N_11  and  C_12
REMARK                            x       y       z     vdW  Elec       q    Type
REMARK                         _______ _______ _______ _____ _____    ______ ____
ROOT
ATOM      1  C   UNL     1      33.518  -0.593  34.635  0.00  0.00    +0.000 A 
ATOM      2  C   UNL     1      33.746   0.148  35.785  0.00  0.00    +0.000 A 
ATOM      3  C   UNL     1      33.851   1.517  35.806  0.00  0.00    +0.000 A 
ATOM      4  C   UNL     1      33.729   2.241  34.599  0.00  0.00    +0.000 A 
ATOM      5  C   UNL     1      33.500   1.511  33.475  0.00  0.00    +0.000 A 
ATOM      6  C   UNL     1      33.397   0.141  33.474  0.00  0.00    +0.000 A 
ENDROOT
BRANCH   1   8
ATOM      7  C   UNL     1      32.059  -2.510  35.181  0.00  0.00    +0.000 C 
ATOM      8  C   UNL     1      33.409  -2.090  34.674  0.00  0.00    +0.000 C 
ATOM      9  C   UNL     1      33.555  -2.662  33.281  0.00  0.00    +0.000 C 
ATOM     10  C   UNL     1      34.519  -2.654  35.542  0.00  0.00    +0.000 C 
ENDBRANCH   1   8
BRANCH   4  11
ATOM     11  C   UNL     1      33.905   3.684  34.622  0.00  0.00    +0.000 C 
ATOM     12  O   UNL     1      33.276   4.357  33.786  0.00  0.00    +0.000 OA
ATOM     13  N   UNL     1      34.773   4.284  35.568  0.00  0.00    +0.000 NA
BRANCH  13  14
ATOM     14  C   UNL     1      34.949   5.694  35.650  0.00  0.00    +0.000 A 
ATOM     15  C   UNL     1      34.086   6.553  36.276  0.00  0.00    +0.000 A 
ATOM     16  C   UNL     1      34.307   7.901  36.321  0.00  0.00    +0.000 A 
ATOM     17  C   UNL     1      35.421   8.437  35.734  0.00  0.00    +0.000 A 
ATOM     18  O   UNL     1      35.681   9.807  35.769  0.00  0.00    +0.000 OA
ATOM     19  C   UNL     1      36.307   7.588  35.092  0.00  0.00    +0.000 A 
ATOM     20  C   UNL     1      36.086   6.242  35.045  0.00  0.00    +0.000 A 
ENDBRANCH  13  14
ENDBRANCH   4  11
TORSDOF 3
ENDMDL
MODEL 4
REMARK VINA RESULT:      -6.4     19.652     20.783
REMARK  Name = 
REMARK  3 active torsions:
REMARK  status: ('A' for Active; 'I' for Inactive)
REMARK    1  A    between atoms: C_2  and  C_5
REMARK    2  A    between atoms: C_8  and  C_9
REMARK    3  A    between atoms: N_11  and  C_12
REMARK                            x       y       z     vdW  Elec       q    Type
REMARK                         _______ _______ _______ _____ _____    ______ ____
ROOT
ATOM      1  C   UNL     1      33.706   1.126  34.634  0.00  0.00    +0.000 A 
ATOM      2  C   UNL     1      33.930   1.767  35.844  0.00  0.00    +0.000 A 
ATOM      3  C   UNL     1      33.993   3.131  35.987  0.00  0.00    +0.000 A 
ATOM      4  C   UNL     1      33.830   3.956  34.852  0.00  0.00    +0.000 A 
ATOM      5  C   UNL     1      33.605   3.324  33.671  0.00  0.00    +0.000 A 
ATOM      6  C   UNL     1      33.544   1.958  33.547  0.00  0.00    +0.000 A 
ENDROOT
BRANCH   1   8
ATOM      7  C   UNL     1      33.929  -0.827  33.137  0.00  0.00    +0.000 C 
ATOM      8  C   UNL     1      33.643  -0.371  34.540  0.00  0.00    +0.000 C 
ATOM      9  C   UNL     1      34.695  -0.996  35.430  0.00  0.00    +0.000 C 
ATOM     10  C   UNL     1      32.279  -0.849  35.003  0.00  0.00    +0.000 C 
ENDBRANCH   1   8
BRANCH   4  11
ATOM     11  C   UNL     1      33.962   5.396  35.004  0.00  0.00    +0.000 C 
ATOM     12  O   UNL     1      33.180   6.120  34.362  0.00  0.00    +0.000 OA
ATOM     13  N   UNL     1      34.959   5.938  35.854  0.00  0.00    +0.000 NA
BRANCH  13  14
ATOM     14  C   UNL     1      35.102   7.340  36.059  0.00  0.00    +0.000 A 
ATOM     15  C   UNL     1      35.963   8.146  35.366  0.00  0.00    +0.000 A 
ATOM     16  C   UNL     1      36.059   9.487  35.609  0.00  0.00    +0.000 A 
ATOM     17  C   UNL     1      35.277  10.071  36.568  0.00  0.00    +0.000 A 
ATOM     18  O   UNL     1      35.343  11.439  36.836  0.00  0.00    +0.000 OA
ATOM     19  C   UNL     1      34.400   9.275  37.285  0.00  0.00    +0.000 A 
ATOM     20  C   UNL     1      34.305   7.935  37.045  0.00  0.00    +0.000 A 
ENDBRANCH  13  14
ENDBRANCH   4  11
TORSDOF 3
ENDMDL
MODEL 5
REMARK VINA RESULT:      -5.8     13.537     15.811
REMARK  Name = 
REMARK  3 active torsions:
REMARK  status: ('A' for Active; 'I' for Inactive)
REMARK    1  A    between atoms: C_2  and  C_5
REMARK    2  A    between atoms: C_8  and  C_9
REMARK    3  A    between atoms: N_11  and  C_12
REMARK                            x       y       z     vdW  Elec       q    Type
REMARK                         _______ _______ _______ _____ _____    ______ ____
ROOT
ATOM      1  C   UNL     1      34.127  -1.429  35.676  0.00  0.00    +0.000 A 
ATOM      2  C   UNL     1      33.618  -1.302  34.392  0.00  0.00    +0.000 A 
ATOM      3  C   UNL     1      33.526  -2.341  33.499  0.00  0.00    +0.000 A 
ATOM      4  C   UNL     1      33.973  -3.626  33.880  0.00  0.00    +0.000 A 
ATOM      5  C   UNL     1      34.465  -3.746  35.141  0.00  0.00    +0.000 A 
ATOM      6  C   UNL     1      34.548  -2.695  36.021  0.00  0.00    +0.000 A 
ENDROOT
BRANCH   1   8
ATOM      7  C   UNL     1      33.233  -0.423  37.748  0.00  0.00    +0.000 C 
ATOM      8  C   UNL     1      34.199  -0.256  36.610  0.00  0.00    +0.000 C 
ATOM      9  C   UNL     1      35.581  -0.155  37.216  0.00  0.00    +0.000 C 
ATOM     10  C   UNL     1      33.920   1.022  35.839  0.00  0.00    +0.000 C 
ENDBRANCH   1   8
BRANCH   4  11
ATOM     11  C   UNL     1      33.930  -4.704  32.906  0.00  0.00    +0.000 C 
ATOM     12  O   UNL     1      34.479  -5.779  33.209  0.00  0.00    +0.000 OA
ATOM     13  N   UNL     1      33.286  -4.516  31.658  0.00  0.00    +0.000 NA
BRANCH  13  14
ATOM     14  C   UNL     1      33.189  -5.555  30.689  0.00  0.00    +0.000 A 
ATOM     15  C   UNL     1      32.346  -6.629  30.778  0.00  0.00    +0.000 A 
ATOM     16  C   UNL     1      32.298  -7.598  29.815  0.00  0.00    +0.000 A 
ATOM     17  C   UNL     1      33.105  -7.515  28.713  0.00  0.00    +0.000 A 
ATOM     18  O   UNL     1      33.076  -8.481  27.708  0.00  0.00    +0.000 OA
ATOM     19  C   UNL     1      33.969  -6.438  28.602  0.00  0.00    +0.000 A 
ATOM     20  C   UNL     1      34.019  -5.472  29.564  0.00  0.00    +0.000 A 
ENDBRANCH  13  14
ENDBRANCH   4  11
TORSDOF 3
ENDMDL
MODEL 6
REMARK VINA RESULT:      -5.8      2.327      8.281
REMARK  Name = 
REMARK  3 active torsions:
REMARK  status: ('A' for Active; 'I' for Inactive)
REMARK    1  A    between atoms: C_2  and  C_5
REMARK    2  A    between atoms: C_8  and  C_9
REMARK    3  A    between atoms: N_11  and  C_12
REMARK                            x       y       z     vdW  Elec       q    Type
REMARK                         _______ _______ _______ _____ _____    ______ ____
ROOT
ATOM      1  C   UNL     1      19.585  -7.608  26.239  0.00  0.00    +0.000 A 
ATOM      2  C   UNL     1      20.128  -6.456  25.687  0.00  0.00    +0.000 A 
ATOM      3  C   UNL     1      21.374  -6.395  25.116  0.00  0.00    +0.000 A 
ATOM      4  C   UNL     1      22.178  -7.556  25.078  0.00  0.00    +0.000 A 
ATOM      5  C   UNL     1      21.641  -8.683  25.614  0.00  0.00    +0.000 A 
ATOM      6  C   UNL     1      20.390  -8.726  26.181  0.00  0.00    +0.000 A 
ENDROOT
BRANCH   1   8
ATOM      7  C   UNL     1      17.749  -6.214  27.126  0.00  0.00    +0.000 C 
ATOM      8  C   UNL     1      18.213  -7.615  26.848  0.00  0.00    +0.000 C 
ATOM      9  C   UNL     1      17.218  -8.226  25.886  0.00  0.00    +0.000 C 
ATOM     10  C   UNL     1      18.227  -8.449  28.115  0.00  0.00    +0.000 C 
ENDBRANCH   1   8
BRANCH   4  11
ATOM     11  C   UNL     1      23.521  -7.466  24.528  0.00  0.00    +0.000 C 
ATOM     12  O   UNL     1      24.021  -6.333  24.405  0.00  0.00    +0.000 OA
ATOM     13  N   UNL     1      24.218  -8.638  24.145  0.00  0.00    +0.000 NA
BRANCH  13  14
ATOM     14  C   UNL     1      25.547  -8.600  23.635  0.00  0.00    +0.000 A 
ATOM     15  C   UNL     1      26.061  -7.588  22.870  0.00  0.00    +0.000 A 
ATOM     16  C   UNL     1      27.346  -7.607  22.406  0.00  0.00    +0.000 A 
ATOM     17  C   UNL     1      28.170  -8.658  22.704  0.00  0.00    +0.000 A 
ATOM     18  O   UNL     1      29.490  -8.705  22.254  0.00  0.00    +0.000 OA
ATOM     19  C   UNL     1      27.673  -9.695  23.475  0.00  0.00    +0.000 A 
ATOM     20  C   UNL     1      26.389  -9.678  23.936  0.00  0.00    +0.000 A 
ENDBRANCH  13  14
ENDBRANCH   4  11
TORSDOF 3
ENDMDL
MODEL 7
REMARK VINA RESULT:      -5.7     34.236     35.736
REMARK  Name = 
REMARK  3 active torsions:
REMARK  status: ('A' for Active; 'I' for Inactive)
REMARK    1  A    between atoms: C_2  and  C_5
REMARK    2  A    between atoms: C_8  and  C_9
REMARK    3  A    between atoms: N_11  and  C_12
REMARK                            x       y       z     vdW  Elec       q    Type
REMARK                         _______ _______ _______ _____ _____    ______ ____
ROOT
ATOM      1  C   UNL     1      29.461  24.924  23.439  0.00  0.00    +0.000 A 
ATOM      2  C   UNL     1      29.496  26.309  23.378  0.00  0.00    +0.000 A 
ATOM      3  C   UNL     1      29.443  27.026  22.208  0.00  0.00    +0.000 A 
ATOM      4  C   UNL     1      29.353  26.339  20.977  0.00  0.00    +0.000 A 
ATOM      5  C   UNL     1      29.312  24.982  21.042  0.00  0.00    +0.000 A 
ATOM      6  C   UNL     1      29.366  24.282  22.223  0.00  0.00    +0.000 A 
ENDROOT
BRANCH   1   8
ATOM      7  C   UNL     1      30.802  23.422  24.871  0.00  0.00    +0.000 C 
ATOM      8  C   UNL     1      29.520  24.195  24.750  0.00  0.00    +0.000 C 
ATOM      9  C   UNL     1      29.488  25.180  25.898  0.00  0.00    +0.000 C 
ATOM     10  C   UNL     1      28.315  23.279  24.872  0.00  0.00    +0.000 C 
ENDBRANCH   1   8
BRANCH   4  11
ATOM     11  C   UNL     1      29.361  27.104  19.741  0.00  0.00    +0.000 C 
ATOM     12  O   UNL     1      28.633  28.111  19.679  0.00  0.00    +0.000 OA
ATOM     13  N   UNL     1      30.173  26.697  18.653  0.00  0.00    +0.000 NA
BRANCH  13  14
ATOM     14  C   UNL     1      30.239  27.435  17.437  0.00  0.00    +0.000 A 
ATOM     15  C   UNL     1      30.969  28.578  17.256  0.00  0.00    +0.000 A 
ATOM     16  C   UNL     1      30.992  29.246  16.064  0.00  0.00    +0.000 A 
ATOM     17  C   UNL     1      30.276  28.776  14.997  0.00  0.00    +0.000 A 
ATOM     18  O   UNL     1      30.284  29.428  13.764  0.00  0.00    +0.000 OA
ATOM     19  C   UNL     1      29.527  27.622  15.156  0.00  0.00    +0.000 A 
ATOM     20  C   UNL     1      29.501  26.957  16.347  0.00  0.00    +0.000 A 
ENDBRANCH  13  14
ENDBRANCH   4  11
TORSDOF 3
ENDMDL
MODEL 8
REMARK VINA RESULT:      -5.6     33.132     34.458
REMARK  Name = 
REMARK  3 active torsions:
REMARK  status: ('A' for Active; 'I' for Inactive)
REMARK    1  A    between atoms: C_2  and  C_5
REMARK    2  A    between atoms: C_8  and  C_9
REMARK    3  A    between atoms: N_11  and  C_12
REMARK                            x       y       z     vdW  Elec       q    Type
REMARK                         _______ _______ _______ _____ _____    ______ ____
ROOT
ATOM      1  C   UNL     1      29.545  23.602  25.598  0.00  0.00    +0.000 A 
ATOM      2  C   UNL     1      29.792  24.945  25.354  0.00  0.00    +0.000 A 
ATOM      3  C   UNL     1      29.733  25.520  24.109  0.00  0.00    +0.000 A 
ATOM      4  C   UNL     1      29.410  24.721  22.990  0.00  0.00    +0.000 A 
ATOM      5  C   UNL     1      29.163  23.407  23.234  0.00  0.00    +0.000 A 
ATOM      6  C   UNL     1      29.226  22.849  24.488  0.00  0.00    +0.000 A 
ENDROOT
BRANCH   1   8
ATOM      7  C   UNL     1      29.610  24.124  28.011  0.00  0.00    +0.000 C 
ATOM      8  C   UNL     1      29.621  23.029  26.984  0.00  0.00    +0.000 C 
ATOM      9  C   UNL     1      28.415  22.157  27.255  0.00  0.00    +0.000 C 
ATOM     10  C   UNL     1      30.867  22.173  27.109  0.00  0.00    +0.000 C 
ENDBRANCH   1   8
BRANCH   4  11
ATOM     11  C   UNL     1      29.413  25.327  21.668  0.00  0.00    +0.000 C 
ATOM     12  O   UNL     1      29.608  24.582  20.690  0.00  0.00    +0.000 OA
ATOM     13  N   UNL     1      29.205  26.720  21.519  0.00  0.00    +0.000 NA
BRANCH  13  14
ATOM     14  C   UNL     1      29.165  27.350  20.242  0.00  0.00    +0.000 A 
ATOM     15  C   UNL     1      28.128  28.116  19.782  0.00  0.00    +0.000 A 
ATOM     16  C   UNL     1      28.145  28.695  18.545  0.00  0.00    +0.000 A 
ATOM     17  C   UNL     1      29.223  28.525  17.719  0.00  0.00    +0.000 A 
ATOM     18  O   UNL     1      29.276  29.109  16.453  0.00  0.00    +0.000 OA
ATOM     19  C   UNL     1      30.283  27.753  18.162  0.00  0.00    +0.000 A 
ATOM     20  C   UNL     1      30.266  27.172  19.396  0.00  0.00    +0.000 A 
ENDBRANCH  13  14
ENDBRANCH   4  11
TORSDOF 3
ENDMDL
MODEL 9
REMARK VINA RESULT:      -5.5     31.124     34.177
REMARK  Name = 
REMARK  3 active torsions:
REMARK  status: ('A' for Active; 'I' for Inactive)
REMARK    1  A    between atoms: C_2  and  C_5
REMARK    2  A    between atoms: C_8  and  C_9
REMARK    3  A    between atoms: N_11  and  C_12
REMARK                            x       y       z     vdW  Elec       q    Type
REMARK                         _______ _______ _______ _____ _____    ______ ____
ROOT
ATOM      1  C   UNL     1      10.928  21.487  20.750  0.00  0.00    +0.000 A 
ATOM      2  C   UNL     1      12.260  21.274  20.428  0.00  0.00    +0.000 A 
ATOM      3  C   UNL     1      13.280  22.118  20.791  0.00  0.00    +0.000 A 
ATOM      4  C   UNL     1      12.986  23.283  21.533  0.00  0.00    +0.000 A 
ATOM      5  C   UNL     1      11.680  23.485  21.851  0.00  0.00    +0.000 A 
ATOM      6  C   UNL     1      10.673  22.629  21.480  0.00  0.00    +0.000 A 
ENDROOT
BRANCH   1   8
ATOM      7  C   UNL     1       8.989  21.132  19.261  0.00  0.00    +0.000 C 
ATOM      8  C   UNL     1       9.855  20.525  20.328  0.00  0.00    +0.000 C 
ATOM      9  C   UNL     1      10.475  19.278  19.737  0.00  0.00    +0.000 C 
ATOM     10  C   UNL     1       9.032  20.124  21.538  0.00  0.00    +0.000 C 
ENDBRANCH   1   8
BRANCH   4  11
ATOM     11  C   UNL     1      14.064  24.203  21.858  0.00  0.00    +0.000 C 
ATOM     12  O   UNL     1      15.020  23.762  22.521  0.00  0.00    +0.000 OA
ATOM     13  N   UNL     1      14.007  25.553  21.430  0.00  0.00    +0.000 NA
BRANCH  13  14
ATOM     14  C   UNL     1      15.056  26.479  21.695  0.00  0.00    +0.000 A 
ATOM     15  C   UNL     1      16.351  26.332  21.277  0.00  0.00    +0.000 A 
ATOM     16  C   UNL     1      17.316  27.255  21.564  0.00  0.00    +0.000 A 
ATOM     17  C   UNL     1      17.007  28.375  22.287  0.00  0.00    +0.000 A 
ATOM     18  O   UNL     1      17.966  29.341  22.590  0.00  0.00    +0.000 OA
ATOM     19  C   UNL     1      15.703  28.544  22.724  0.00  0.00    +0.000 A 
ATOM     20  C   UNL     1      14.739  27.621  22.440  0.00  0.00    +0.000 A 
ENDBRANCH  13  14
ENDBRANCH   4  11
TORSDOF 3
ENDMDL
MODEL 10
REMARK VINA RESULT:      -5.3     32.286     34.560
REMARK  Name = 
REMARK  3 active torsions:
REMARK  status: ('A' for Active; 'I' for Inactive)
REMARK    1  A    between atoms: C_2  and  C_5
REMARK    2  A    between atoms: C_8  and  C_9
REMARK    3  A    between atoms: N_11  and  C_12
REMARK                            x       y       z     vdW  Elec       q    Type
REMARK                         _______ _______ _______ _____ _____    ______ ____
ROOT
ATOM      1  C   UNL     1      21.255  26.684  27.836  0.00  0.00    +0.000 A 
ATOM      2  C   UNL     1      21.149  26.704  26.453  0.00  0.00    +0.000 A 
ATOM      3  C   UNL     1      22.204  26.490  25.601  0.00  0.00    +0.000 A 
ATOM      4  C   UNL     1      23.487  26.236  26.135  0.00  0.00    +0.000 A 
ATOM      5  C   UNL     1      23.585  26.211  27.490  0.00  0.00    +0.000 A 
ATOM      6  C   UNL     1      22.518  26.427  28.327  0.00  0.00    +0.000 A 
ENDROOT
BRANCH   1   8
ATOM      7  C   UNL     1      19.123  25.752  28.667  0.00  0.00    +0.000 C 
ATOM      8  C   UNL     1      20.064  26.922  28.718  0.00  0.00    +0.000 C 
ATOM      9  C   UNL     1      20.502  27.074  30.158  0.00  0.00    +0.000 C 
ATOM     10  C   UNL     1      19.369  28.202  28.292  0.00  0.00    +0.000 C 
ENDBRANCH   1   8
BRANCH   4  11
ATOM     11  C   UNL     1      24.609  26.073  25.225  0.00  0.00    +0.000 C 
ATOM     12  O   UNL     1      24.962  27.063  24.558  0.00  0.00    +0.000 OA
ATOM     13  N   UNL     1      25.262  24.821  25.111  0.00  0.00    +0.000 NA
BRANCH  13  14
ATOM     14  C   UNL     1      26.386  24.625  24.260  0.00  0.00    +0.000 A 
ATOM     15  C   UNL     1      26.336  24.038  23.024  0.00  0.00    +0.000 A 
ATOM     16  C   UNL     1      27.451  23.874  22.251  0.00  0.00    +0.000 A 
ATOM     17  C   UNL     1      28.670  24.306  22.699  0.00  0.00    +0.000 A 
ATOM     18  O   UNL     1      29.826  24.163  21.932  0.00  0.00    +0.000 OA
ATOM     19  C   UNL     1      28.746  24.900  23.948  0.00  0.00    +0.000 A 
ATOM     20  C   UNL     1      27.634  25.062  24.721  0.00  0.00    +0.000 A 
ENDBRANCH  13  14
ENDBRANCH   4  11
TORSDOF 3
ENDMDL
