MODEL 1
REMARK VINA RESULT:      -6.4      0.000      0.000
REMARK  Name = 
REMARK  3 active torsions:
REMARK  status: ('A' for Active; 'I' for Inactive)
REMARK    1  A    between atoms: O_2  and  C_3
REMARK    2  A    between atoms: C_5  and  N_6
REMARK    3  A    between atoms: C_13  and  C_14
REMARK                            x       y       z     vdW  Elec       q    Type
REMARK                         _______ _______ _______ _____ _____    ______ ____
ROOT
ATOM      1  C   UNL     1      13.740  10.959  38.307  0.00  0.00    +0.000 A 
ATOM      2  C   UNL     1      14.391  11.443  37.172  0.00  0.00    +0.000 A 
ATOM      3  C   UNL     1      15.751  11.331  37.000  0.00  0.00    +0.000 A 
ATOM      4  C   UNL     1      16.484  10.717  37.994  0.00  0.00    +0.000 A 
ATOM      5  N   UNL     1      17.818  10.466  38.104  0.00  0.00    +0.000 NA
ATOM      6  C   UNL     1      18.057   9.832  39.277  0.00  0.00    +0.000 A 
ATOM      7  C   UNL     1      19.355   9.357  39.835  0.00  0.00    +0.000 C 
ATOM      8  C   UNL     1      16.849   9.684  39.913  0.00  0.00    +0.000 A 
ATOM      9  C   UNL     1      15.840  10.237  39.120  0.00  0.00    +0.000 A 
ATOM     10  C   UNL     1      14.474  10.348  39.292  0.00  0.00    +0.000 A 
ENDROOT
BRANCH   8  11
ATOM     11  C   UNL     1      16.560   9.069  41.201  0.00  0.00    +0.000 A 
ATOM     12  C   UNL     1      16.218   7.752  41.342  0.00  0.00    +0.000 A 
ATOM     13  C   UNL     1      15.953   7.242  42.588  0.00  0.00    +0.000 A 
ATOM     14  C   UNL     1      16.019   8.017  43.727  0.00  0.00    +0.000 A 
ATOM     15  C   UNL     1      16.368   9.338  43.549  0.00  0.00    +0.000 A 
ATOM     16  C   UNL     1      16.635   9.864  42.312  0.00  0.00    +0.000 A 
ENDBRANCH   8  11
BRANCH   3  17
ATOM     17  N   UNL     1      16.416  11.827  35.834  0.00  0.00    +0.000 N 
ATOM     18  O   UNL     1      17.036  12.910  35.879  0.00  0.00    +0.000 OA
ATOM     19  O   UNL     1      16.397  11.137  34.649  0.00  0.00    +0.000 OA
ENDBRANCH   3  17
BRANCH   1  21
ATOM     20  C   UNL     1      11.529  11.088  37.360  0.00  0.00    +0.000 C 
ATOM     21  O   UNL     1      12.371  11.079  38.468  0.00  0.00    +0.000 OA
ENDBRANCH   1  21
TORSDOF 3
ENDMDL
MODEL 2
REMARK VINA RESULT:      -6.3     23.045     25.438
REMARK  Name = 
REMARK  3 active torsions:
REMARK  status: ('A' for Active; 'I' for Inactive)
REMARK    1  A    between atoms: O_2  and  C_3
REMARK    2  A    between atoms: C_5  and  N_6
REMARK    3  A    between atoms: C_13  and  C_14
REMARK                            x       y       z     vdW  Elec       q    Type
REMARK                         _______ _______ _______ _____ _____    ______ ____
ROOT
ATOM      1  C   UNL     1      28.441  25.704  21.866  0.00  0.00    +0.000 A 
ATOM      2  C   UNL     1      27.278  24.954  22.041  0.00  0.00    +0.000 A 
ATOM      3  C   UNL     1      27.160  23.999  23.023  0.00  0.00    +0.000 A 
ATOM      4  C   UNL     1      28.238  23.785  23.856  0.00  0.00    +0.000 A 
ATOM      5  N   UNL     1      28.414  22.924  24.897  0.00  0.00    +0.000 NA
ATOM      6  C   UNL     1      29.659  23.090  25.407  0.00  0.00    +0.000 A 
ATOM      7  C   UNL     1      30.305  22.379  26.546  0.00  0.00    +0.000 C 
ATOM      8  C   UNL     1      30.272  24.074  24.671  0.00  0.00    +0.000 A 
ATOM      9  C   UNL     1      29.392  24.527  23.684  0.00  0.00    +0.000 A 
ATOM     10  C   UNL     1      29.510  25.488  22.699  0.00  0.00    +0.000 A 
ENDROOT
BRANCH   8  11
ATOM     11  C   UNL     1      31.612  24.624  24.812  0.00  0.00    +0.000 A 
ATOM     12  C   UNL     1      31.856  25.902  25.236  0.00  0.00    +0.000 A 
ATOM     13  C   UNL     1      33.147  26.356  25.339  0.00  0.00    +0.000 A 
ATOM     14  C   UNL     1      34.231  25.560  25.029  0.00  0.00    +0.000 A 
ATOM     15  C   UNL     1      33.950  24.279  24.607  0.00  0.00    +0.000 A 
ATOM     16  C   UNL     1      32.667  23.810  24.497  0.00  0.00    +0.000 A 
ENDBRANCH   8  11
BRANCH   3  17
ATOM     17  N   UNL     1      25.964  23.232  23.202  0.00  0.00    +0.000 N 
ATOM     18  O   UNL     1      25.378  22.746  22.212  0.00  0.00    +0.000 OA
ATOM     19  O   UNL     1      25.435  23.008  24.447  0.00  0.00    +0.000 OA
ENDBRANCH   3  17
BRANCH   1  21
ATOM     20  C   UNL     1      29.668  26.701  20.049  0.00  0.00    +0.000 C 
ATOM     21  O   UNL     1      28.547  26.662  20.873  0.00  0.00    +0.000 OA
ENDBRANCH   1  21
TORSDOF 3
ENDMDL
MODEL 3
REMARK VINA RESULT:      -6.2     20.139     22.515
REMARK  Name = 
REMARK  3 active torsions:
REMARK  status: ('A' for Active; 'I' for Inactive)
REMARK    1  A    between atoms: O_2  and  C_3
REMARK    2  A    between atoms: C_5  and  N_6
REMARK    3  A    between atoms: C_13  and  C_14
REMARK                            x       y       z     vdW  Elec       q    Type
REMARK                         _______ _______ _______ _____ _____    ______ ____
ROOT
ATOM      1  C   UNL     1      29.190  22.888  24.855  0.00  0.00    +0.000 A 
ATOM      2  C   UNL     1      28.551  23.058  23.627  0.00  0.00    +0.000 A 
ATOM      3  C   UNL     1      27.302  23.624  23.520  0.00  0.00    +0.000 A 
ATOM      4  C   UNL     1      26.671  24.031  24.677  0.00  0.00    +0.000 A 
ATOM      5  N   UNL     1      25.456  24.612  24.883  0.00  0.00    +0.000 NA
ATOM      6  C   UNL     1      25.283  24.826  26.209  0.00  0.00    +0.000 A 
ATOM      7  C   UNL     1      24.119  25.435  26.914  0.00  0.00    +0.000 C 
ATOM      8  C   UNL     1      26.412  24.371  26.845  0.00  0.00    +0.000 A 
ATOM      9  C   UNL     1      27.303  23.863  25.895  0.00  0.00    +0.000 A 
ATOM     10  C   UNL     1      28.558  23.297  26.002  0.00  0.00    +0.000 A 
ENDROOT
BRANCH   8  11
ATOM     11  C   UNL     1      26.726  24.370  28.266  0.00  0.00    +0.000 A 
ATOM     12  C   UNL     1      27.440  25.365  28.876  0.00  0.00    +0.000 A 
ATOM     13  C   UNL     1      27.704  25.295  30.221  0.00  0.00    +0.000 A 
ATOM     14  C   UNL     1      27.271  24.241  30.999  0.00  0.00    +0.000 A 
ATOM     15  C   UNL     1      26.555  23.257  30.354  0.00  0.00    +0.000 A 
ATOM     16  C   UNL     1      26.282  23.311  29.012  0.00  0.00    +0.000 A 
ENDBRANCH   8  11
BRANCH   3  17
ATOM     17  N   UNL     1      26.649  23.799  22.258  0.00  0.00    +0.000 N 
ATOM     18  O   UNL     1      27.025  24.700  21.479  0.00  0.00    +0.000 OA
ATOM     19  O   UNL     1      25.609  22.994  21.870  0.00  0.00    +0.000 OA
ENDBRANCH   3  17
BRANCH   1  21
ATOM     20  C   UNL     1      31.581  23.050  24.613  0.00  0.00    +0.000 C 
ATOM     21  O   UNL     1      30.446  22.317  24.949  0.00  0.00    +0.000 OA
ENDBRANCH   1  21
TORSDOF 3
ENDMDL
MODEL 4
REMARK VINA RESULT:      -6.1     19.962     22.540
REMARK  Name = 
REMARK  3 active torsions:
REMARK  status: ('A' for Active; 'I' for Inactive)
REMARK    1  A    between atoms: O_2  and  C_3
REMARK    2  A    between atoms: C_5  and  N_6
REMARK    3  A    between atoms: C_13  and  C_14
REMARK                            x       y       z     vdW  Elec       q    Type
REMARK                         _______ _______ _______ _____ _____    ______ ____
ROOT
ATOM      1  C   UNL     1      30.153  22.580  30.423  0.00  0.00    +0.000 A 
ATOM      2  C   UNL     1      28.845  22.496  30.901  0.00  0.00    +0.000 A 
ATOM      3  C   UNL     1      27.753  22.748  30.104  0.00  0.00    +0.000 A 
ATOM      4  C   UNL     1      27.974  23.095  28.788  0.00  0.00    +0.000 A 
ATOM      5  N   UNL     1      27.109  23.397  27.779  0.00  0.00    +0.000 NA
ATOM      6  C   UNL     1      27.814  23.675  26.656  0.00  0.00    +0.000 A 
ATOM      7  C   UNL     1      27.310  24.055  25.306  0.00  0.00    +0.000 C 
ATOM      8  C   UNL     1      29.145  23.544  26.969  0.00  0.00    +0.000 A 
ATOM      9  C   UNL     1      29.270  23.179  28.312  0.00  0.00    +0.000 A 
ATOM     10  C   UNL     1      30.367  22.925  29.112  0.00  0.00    +0.000 A 
ENDROOT
BRANCH   8  11
ATOM     11  C   UNL     1      30.310  23.733  26.116  0.00  0.00    +0.000 A 
ATOM     12  C   UNL     1      30.799  22.759  25.289  0.00  0.00    +0.000 A 
ATOM     13  C   UNL     1      31.907  23.007  24.518  0.00  0.00    +0.000 A 
ATOM     14  C   UNL     1      32.560  24.222  24.540  0.00  0.00    +0.000 A 
ATOM     15  C   UNL     1      32.040  25.181  25.383  0.00  0.00    +0.000 A 
ATOM     16  C   UNL     1      30.935  24.951  26.160  0.00  0.00    +0.000 A 
ENDBRANCH   8  11
BRANCH   3  17
ATOM     17  N   UNL     1      26.412  22.659  30.597  0.00  0.00    +0.000 N 
ATOM     18  O   UNL     1      25.747  23.698  30.792  0.00  0.00    +0.000 OA
ATOM     19  O   UNL     1      25.824  21.450  30.864  0.00  0.00    +0.000 OA
ENDBRANCH   3  17
BRANCH   1  21
ATOM     20  C   UNL     1      32.062  21.227  30.992  0.00  0.00    +0.000 C 
ATOM     21  O   UNL     1      31.243  22.326  31.235  0.00  0.00    +0.000 OA
ENDBRANCH   1  21
TORSDOF 3
ENDMDL
MODEL 5
REMARK VINA RESULT:      -6.1     22.379     23.250
REMARK  Name = 
REMARK  3 active torsions:
REMARK  status: ('A' for Active; 'I' for Inactive)
REMARK    1  A    between atoms: O_2  and  C_3
REMARK    2  A    between atoms: C_5  and  N_6
REMARK    3  A    between atoms: C_13  and  C_14
REMARK                            x       y       z     vdW  Elec       q    Type
REMARK                         _______ _______ _______ _____ _____    ______ ____
ROOT
ATOM      1  C   UNL     1      14.391  -8.858  25.268  0.00  0.00    +0.000 A 
ATOM      2  C   UNL     1      13.937  -9.990  25.946  0.00  0.00    +0.000 A 
ATOM      3  C   UNL     1      14.659 -10.581  26.955  0.00  0.00    +0.000 A 
ATOM      4  C   UNL     1      15.874 -10.026  27.299  0.00  0.00    +0.000 A 
ATOM      5  N   UNL     1      16.794 -10.383  28.238  0.00  0.00    +0.000 NA
ATOM      6  C   UNL     1      17.835  -9.518  28.193  0.00  0.00    +0.000 A 
ATOM      7  C   UNL     1      19.073  -9.501  29.024  0.00  0.00    +0.000 C 
ATOM      8  C   UNL     1      17.561  -8.601  27.208  0.00  0.00    +0.000 A 
ATOM      9  C   UNL     1      16.326  -8.904  26.628  0.00  0.00    +0.000 A 
ATOM     10  C   UNL     1      15.600  -8.309  25.615  0.00  0.00    +0.000 A 
ENDROOT
BRANCH   8  11
ATOM     11  C   UNL     1      18.358  -7.468  26.763  0.00  0.00    +0.000 A 
ATOM     12  C   UNL     1      19.460  -7.596  25.962  0.00  0.00    +0.000 A 
ATOM     13  C   UNL     1      20.169  -6.482  25.587  0.00  0.00    +0.000 A 
ATOM     14  C   UNL     1      19.808  -5.213  25.991  0.00  0.00    +0.000 A 
ATOM     15  C   UNL     1      18.693  -5.120  26.795  0.00  0.00    +0.000 A 
ATOM     16  C   UNL     1      17.974  -6.222  27.180  0.00  0.00    +0.000 A 
ENDBRANCH   8  11
BRANCH   3  17
ATOM     17  N   UNL     1      14.190 -11.741  27.651  0.00  0.00    +0.000 N 
ATOM     18  O   UNL     1      13.626 -11.622  28.759  0.00  0.00    +0.000 OA
ATOM     19  O   UNL     1      14.339 -13.000  27.129  0.00  0.00    +0.000 OA
ENDBRANCH   3  17
BRANCH   1  21
ATOM     20  C   UNL     1      12.271  -8.408  24.218  0.00  0.00    +0.000 C 
ATOM     21  O   UNL     1      13.656  -8.273  24.253  0.00  0.00    +0.000 OA
ENDBRANCH   1  21
TORSDOF 3
ENDMDL
MODEL 6
REMARK VINA RESULT:      -6.1     19.931     22.752
REMARK  Name = 
REMARK  3 active torsions:
REMARK  status: ('A' for Active; 'I' for Inactive)
REMARK    1  A    between atoms: O_2  and  C_3
REMARK    2  A    between atoms: C_5  and  N_6
REMARK    3  A    between atoms: C_13  and  C_14
REMARK                            x       y       z     vdW  Elec       q    Type
REMARK                         _______ _______ _______ _____ _____    ______ ____
ROOT
ATOM      1  C   UNL     1      29.595  22.744  28.553  0.00  0.00    +0.000 A 
ATOM      2  C   UNL     1      28.609  22.696  29.538  0.00  0.00    +0.000 A 
ATOM      3  C   UNL     1      27.313  23.093  29.302  0.00  0.00    +0.000 A 
ATOM      4  C   UNL     1      26.993  23.552  28.041  0.00  0.00    +0.000 A 
ATOM      5  N   UNL     1      25.819  24.004  27.519  0.00  0.00    +0.000 NA
ATOM      6  C   UNL     1      26.010  24.346  26.222  0.00  0.00    +0.000 A 
ATOM      7  C   UNL     1      25.024  24.886  25.244  0.00  0.00    +0.000 C 
ATOM      8  C   UNL     1      27.329  24.102  25.927  0.00  0.00    +0.000 A 
ATOM      9  C   UNL     1      27.970  23.600  27.064  0.00  0.00    +0.000 A 
ATOM     10  C   UNL     1      29.271  23.201  27.301  0.00  0.00    +0.000 A 
ENDROOT
BRANCH   8  11
ATOM     11  C   UNL     1      28.039  24.300  24.672  0.00  0.00    +0.000 A 
ATOM     12  C   UNL     1      28.096  23.353  23.686  0.00  0.00    +0.000 A 
ATOM     13  C   UNL     1      28.791  23.608  22.531  0.00  0.00    +0.000 A 
ATOM     14  C   UNL     1      29.447  24.803  22.317  0.00  0.00    +0.000 A 
ATOM     15  C   UNL     1      29.368  25.734  23.329  0.00  0.00    +0.000 A 
ATOM     16  C   UNL     1      28.679  25.497  24.490  0.00  0.00    +0.000 A 
ENDBRANCH   8  11
BRANCH   3  17
ATOM     17  N   UNL     1      26.303  23.040  30.314  0.00  0.00    +0.000 N 
ATOM     18  O   UNL     1      25.878  21.937  30.718  0.00  0.00    +0.000 OA
ATOM     19  O   UNL     1      25.780  24.181  30.865  0.00  0.00    +0.000 OA
ENDBRANCH   3  17
BRANCH   1  21
ATOM     20  C   UNL     1      31.379  22.298  30.109  0.00  0.00    +0.000 C 
ATOM     21  O   UNL     1      30.895  22.344  28.804  0.00  0.00    +0.000 OA
ENDBRANCH   1  21
TORSDOF 3
ENDMDL
MODEL 7
REMARK VINA RESULT:      -6.0     19.931     22.495
REMARK  Name = 
REMARK  3 active torsions:
REMARK  status: ('A' for Active; 'I' for Inactive)
REMARK    1  A    between atoms: O_2  and  C_3
REMARK    2  A    between atoms: C_5  and  N_6
REMARK    3  A    between atoms: C_13  and  C_14
REMARK                            x       y       z     vdW  Elec       q    Type
REMARK                         _______ _______ _______ _____ _____    ______ ____
ROOT
ATOM      1  C   UNL     1      25.079  25.287  27.166  0.00  0.00    +0.000 A 
ATOM      2  C   UNL     1      25.062  24.783  28.466  0.00  0.00    +0.000 A 
ATOM      3  C   UNL     1      26.045  23.948  28.945  0.00  0.00    +0.000 A 
ATOM      4  C   UNL     1      27.077  23.606  28.097  0.00  0.00    +0.000 A 
ATOM      5  N   UNL     1      28.170  22.814  28.283  0.00  0.00    +0.000 NA
ATOM      6  C   UNL     1      28.900  22.786  27.142  0.00  0.00    +0.000 A 
ATOM      7  C   UNL     1      30.173  22.061  26.864  0.00  0.00    +0.000 C 
ATOM      8  C   UNL     1      28.252  23.577  26.225  0.00  0.00    +0.000 A 
ATOM      9  C   UNL     1      27.096  24.104  26.807  0.00  0.00    +0.000 A 
ATOM     10  C   UNL     1      26.110  24.944  26.327  0.00  0.00    +0.000 A 
ENDROOT
BRANCH   8  11
ATOM     11  C   UNL     1      28.623  23.878  24.850  0.00  0.00    +0.000 A 
ATOM     12  C   UNL     1      28.183  23.149  23.779  0.00  0.00    +0.000 A 
ATOM     13  C   UNL     1      28.580  23.488  22.510  0.00  0.00    +0.000 A 
ATOM     14  C   UNL     1      29.420  24.555  22.264  0.00  0.00    +0.000 A 
ATOM     15  C   UNL     1      29.843  25.268  23.365  0.00  0.00    +0.000 A 
ATOM     16  C   UNL     1      29.457  24.943  24.639  0.00  0.00    +0.000 A 
ENDBRANCH   8  11
BRANCH   3  17
ATOM     17  N   UNL     1      26.025  23.433  30.280  0.00  0.00    +0.000 N 
ATOM     18  O   UNL     1      26.094  24.214  31.253  0.00  0.00    +0.000 OA
ATOM     19  O   UNL     1      25.929  22.089  30.530  0.00  0.00    +0.000 OA
ENDBRANCH   3  17
BRANCH   1  21
ATOM     20  C   UNL     1      23.990  26.416  25.339  0.00  0.00    +0.000 C 
ATOM     21  O   UNL     1      24.084  26.125  26.696  0.00  0.00    +0.000 OA
ENDBRANCH   1  21
TORSDOF 3
ENDMDL
MODEL 8
REMARK VINA RESULT:      -5.8     20.531     22.653
REMARK  Name = 
REMARK  3 active torsions:
REMARK  status: ('A' for Active; 'I' for Inactive)
REMARK    1  A    between atoms: O_2  and  C_3
REMARK    2  A    between atoms: C_5  and  N_6
REMARK    3  A    between atoms: C_13  and  C_14
REMARK                            x       y       z     vdW  Elec       q    Type
REMARK                         _______ _______ _______ _____ _____    ______ ____
ROOT
ATOM      1  C   UNL     1      26.787  23.380  27.503  0.00  0.00    +0.000 A 
ATOM      2  C   UNL     1      26.280  23.571  26.217  0.00  0.00    +0.000 A 
ATOM      3  C   UNL     1      27.090  23.613  25.107  0.00  0.00    +0.000 A 
ATOM      4  C   UNL     1      28.449  23.460  25.286  0.00  0.00    +0.000 A 
ATOM      5  N   UNL     1      29.479  23.457  24.395  0.00  0.00    +0.000 NA
ATOM      6  C   UNL     1      30.644  23.270  25.061  0.00  0.00    +0.000 A 
ATOM      7  C   UNL     1      32.030  23.193  24.517  0.00  0.00    +0.000 C 
ATOM      8  C   UNL     1      30.335  23.152  26.394  0.00  0.00    +0.000 A 
ATOM      9  C   UNL     1      28.953  23.271  26.559  0.00  0.00    +0.000 A 
ATOM     10  C   UNL     1      28.139  23.227  27.675  0.00  0.00    +0.000 A 
ENDROOT
BRANCH   8  11
ATOM     11  C   UNL     1      31.226  22.941  27.526  0.00  0.00    +0.000 A 
ATOM     12  C   UNL     1      31.440  21.713  28.091  0.00  0.00    +0.000 A 
ATOM     13  C   UNL     1      32.290  21.590  29.161  0.00  0.00    +0.000 A 
ATOM     14  C   UNL     1      32.951  22.674  29.702  0.00  0.00    +0.000 A 
ATOM     15  C   UNL     1      32.714  23.894  29.108  0.00  0.00    +0.000 A 
ATOM     16  C   UNL     1      31.868  24.036  28.039  0.00  0.00    +0.000 A 
ENDBRANCH   8  11
BRANCH   3  17
ATOM     17  N   UNL     1      26.567  23.807  23.788  0.00  0.00    +0.000 N 
ATOM     18  O   UNL     1      25.948  22.884  23.218  0.00  0.00    +0.000 OA
ATOM     19  O   UNL     1      26.723  24.995  23.122  0.00  0.00    +0.000 OA
ENDBRANCH   3  17
BRANCH   1  21
ATOM     20  C   UNL     1      26.448  22.895  29.838  0.00  0.00    +0.000 C 
ATOM     21  O   UNL     1      25.961  23.340  28.612  0.00  0.00    +0.000 OA
ENDBRANCH   1  21
TORSDOF 3
ENDMDL
MODEL 9
REMARK VINA RESULT:      -5.7     22.010     23.216
REMARK  Name = 
REMARK  3 active torsions:
REMARK  status: ('A' for Active; 'I' for Inactive)
REMARK    1  A    between atoms: O_2  and  C_3
REMARK    2  A    between atoms: C_5  and  N_6
REMARK    3  A    between atoms: C_13  and  C_14
REMARK                            x       y       z     vdW  Elec       q    Type
REMARK                         _______ _______ _______ _____ _____    ______ ____
ROOT
ATOM      1  C   UNL     1      18.277 -10.083  30.231  0.00  0.00    +0.000 A 
ATOM      2  C   UNL     1      17.265 -11.042  30.215  0.00  0.00    +0.000 A 
ATOM      3  C   UNL     1      16.361 -11.141  29.183  0.00  0.00    +0.000 A 
ATOM      4  C   UNL     1      16.472 -10.252  28.134  0.00  0.00    +0.000 A 
ATOM      5  N   UNL     1      15.738 -10.107  26.996  0.00  0.00    +0.000 NA
ATOM      6  C   UNL     1      16.242  -9.081  26.268  0.00  0.00    +0.000 A 
ATOM      7  C   UNL     1      15.777  -8.550  24.955  0.00  0.00    +0.000 C 
ATOM      8  C   UNL     1      17.312  -8.575  26.965  0.00  0.00    +0.000 A 
ATOM      9  C   UNL     1      17.475  -9.300  28.149  0.00  0.00    +0.000 A 
ATOM     10  C   UNL     1      18.383  -9.202  29.184  0.00  0.00    +0.000 A 
ENDROOT
BRANCH   8  11
ATOM     11  C   UNL     1      18.192  -7.470  26.616  0.00  0.00    +0.000 A 
ATOM     12  C   UNL     1      19.356  -7.633  25.915  0.00  0.00    +0.000 A 
ATOM     13  C   UNL     1      20.141  -6.544  25.628  0.00  0.00    +0.000 A 
ATOM     14  C   UNL     1      19.798  -5.267  26.023  0.00  0.00    +0.000 A 
ATOM     15  C   UNL     1      18.620  -5.140  26.726  0.00  0.00    +0.000 A 
ATOM     16  C   UNL     1      17.824  -6.215  27.022  0.00  0.00    +0.000 A 
ENDBRANCH   8  11
BRANCH   3  17
ATOM     17  N   UNL     1      15.324 -12.127  29.168  0.00  0.00    +0.000 N 
ATOM     18  O   UNL     1      14.189 -11.849  29.607  0.00  0.00    +0.000 OA
ATOM     19  O   UNL     1      15.541 -13.388  28.676  0.00  0.00    +0.000 OA
ENDBRANCH   3  17
BRANCH   1  21
ATOM     20  C   UNL     1      19.019 -10.778  32.415  0.00  0.00    +0.000 C 
ATOM     21  O   UNL     1      19.179  -9.994  31.276  0.00  0.00    +0.000 OA
ENDBRANCH   1  21
TORSDOF 3
ENDMDL
MODEL 10
REMARK VINA RESULT:      -5.7      3.360      4.419
REMARK  Name = 
REMARK  3 active torsions:
REMARK  status: ('A' for Active; 'I' for Inactive)
REMARK    1  A    between atoms: O_2  and  C_3
REMARK    2  A    between atoms: C_5  and  N_6
REMARK    3  A    between atoms: C_13  and  C_14
REMARK                            x       y       z     vdW  Elec       q    Type
REMARK                         _______ _______ _______ _____ _____    ______ ____
ROOT
ATOM      1  C   UNL     1      18.598   9.536  36.356  0.00  0.00    +0.000 A 
ATOM      2  C   UNL     1      19.921   9.895  36.096  0.00  0.00    +0.000 A 
ATOM      3  C   UNL     1      20.880   9.932  37.081  0.00  0.00    +0.000 A 
ATOM      4  C   UNL     1      20.505   9.601  38.367  0.00  0.00    +0.000 A 
ATOM      5  N   UNL     1      21.218   9.548  39.526  0.00  0.00    +0.000 NA
ATOM      6  C   UNL     1      20.400   9.165  40.536  0.00  0.00    +0.000 A 
ATOM      7  C   UNL     1      20.723   8.967  41.977  0.00  0.00    +0.000 C 
ATOM      8  C   UNL     1      19.151   8.974  39.996  0.00  0.00    +0.000 A 
ATOM      9  C   UNL     1      19.195   9.245  38.626  0.00  0.00    +0.000 A 
ATOM     10  C   UNL     1      18.232   9.206  37.637  0.00  0.00    +0.000 A 
ENDROOT
BRANCH   8  11
ATOM     11  C   UNL     1      17.921   8.561  40.656  0.00  0.00    +0.000 A 
ATOM     12  C   UNL     1      17.556   7.251  40.806  0.00  0.00    +0.000 A 
ATOM     13  C   UNL     1      16.377   6.935  41.434  0.00  0.00    +0.000 A 
ATOM     14  C   UNL     1      15.529   7.904  41.932  0.00  0.00    +0.000 A 
ATOM     15  C   UNL     1      15.928   9.212  41.765  0.00  0.00    +0.000 A 
ATOM     16  C   UNL     1      17.101   9.545  41.140  0.00  0.00    +0.000 A 
ENDBRANCH   8  11
BRANCH   3  17
ATOM     17  N   UNL     1      22.237  10.299  36.811  0.00  0.00    +0.000 N 
ATOM     18  O   UNL     1      22.958   9.558  36.110  0.00  0.00    +0.000 OA
ATOM     19  O   UNL     1      22.778  11.458  37.303  0.00  0.00    +0.000 OA
ENDBRANCH   3  17
BRANCH   1  21
ATOM     20  C   UNL     1      17.775  10.308  34.229  0.00  0.00    +0.000 C 
ATOM     21  O   UNL     1      17.643   9.503  35.356  0.00  0.00    +0.000 OA
ENDBRANCH   1  21
TORSDOF 3
ENDMDL
