MODEL 1
REMARK VINA RESULT:      -9.2      0.000      0.000
REMARK  Name = 
REMARK  7 active torsions:
REMARK  status: ('A' for Active; 'I' for Inactive)
REMARK    1  A    between atoms: C_2  and  C_3
REMARK    2  A    between atoms: C_3  and  C_5
REMARK    3  A    between atoms: C_10  and  N_11
REMARK    4  A    between atoms: C_12  and  C_14
REMARK    5  A    between atoms: C_14  and  O_15
REMARK    6  A    between atoms: O_15  and  C_16
REMARK    7  A    between atoms: C_16  and  C_18
REMARK                            x       y       z     vdW  Elec       q    Type
REMARK                         _______ _______ _______ _____ _____    ______ ____
ROOT
ATOM      1  C   UNL     1      35.909   0.796  16.789  0.00  0.00    +0.000 C 
ATOM      2  O   UNL     1      34.676   0.647  16.761  0.00  0.00    +0.000 OA
ENDROOT
BRANCH   1   3
ATOM      3  C   UNL     1      36.814  -0.239  16.307  0.00  0.00    +0.000 A 
ATOM      4  C   UNL     1      37.339  -1.149  17.194  0.00  0.00    +0.000 A 
ATOM      5  C   UNL     1      37.038  -1.120  18.533  0.00  0.00    +0.000 A 
ATOM      6  C   UNL     1      37.570  -2.042  19.433  0.00  0.00    +0.000 A 
ATOM      7  C   UNL     1      38.416  -2.997  18.938  0.00  0.00    +0.000 A 
ATOM      8  C   UNL     1      38.735  -3.049  17.597  0.00  0.00    +0.000 A 
ATOM      9  C   UNL     1      38.196  -2.120  16.711  0.00  0.00    +0.000 A 
ATOM     10  C   UNL     1      38.491  -2.140  15.358  0.00  0.00    +0.000 A 
ATOM     11  C   UNL     1      37.965  -1.229  14.470  0.00  0.00    +0.000 A 
ATOM     12  C   UNL     1      38.271  -1.258  13.117  0.00  0.00    +0.000 A 
ATOM     13  C   UNL     1      37.731  -0.332  12.245  0.00  0.00    +0.000 A 
ATOM     14  C   UNL     1      36.878   0.638  12.711  0.00  0.00    +0.000 A 
ATOM     15  C   UNL     1      36.580   0.659  14.062  0.00  0.00    +0.000 A 
ATOM     16  C   UNL     1      37.109  -0.257  14.946  0.00  0.00    +0.000 A 
ENDBRANCH   1   3
BRANCH   1  17
ATOM     17  O   UNL     1      36.467   1.964  17.284  0.00  0.00    +0.000 OA
BRANCH  17  18
ATOM     18  C   UNL     1      36.426   3.119  16.479  0.00  0.00    +0.000 C 
BRANCH  18  20
ATOM     19  N   UNL     1      38.055   5.011  16.801  0.00  0.00    +0.000 NA
ATOM     20  C   UNL     1      37.786   3.694  16.347  0.00  0.00    +0.000 C 
ATOM     21  O   UNL     1      38.683   2.988  15.830  0.00  0.00    +0.000 OA
BRANCH  19  27
ATOM     22  C   UNL     1      40.114   5.953  17.730  0.00  0.00    +0.000 A 
ATOM     23  C   UNL     1      41.350   6.431  17.574  0.00  0.00    +0.000 A 
ATOM     24  C   UNL     1      41.978   6.522  16.315  0.00  0.00    +0.000 A 
ATOM     25  C   UNL     1      41.219   6.081  15.253  0.00  0.00    +0.000 A 
ATOM     26  C   UNL     1      39.965   5.594  15.397  0.00  0.00    +0.000 A 
ATOM     27  C   UNL     1      39.395   5.526  16.648  0.00  0.00    +0.000 A 
BRANCH  22  28
ATOM     28  C   UNL     1      39.480   5.893  19.152  0.00  0.00    +0.000 C 
ATOM     29  C   UNL     1      40.848   6.334  19.970  0.00  0.00    +0.000 C 
BRANCH  28  31
ATOM     30  C   UNL     1      38.990   7.882  20.610  0.00  0.00    +0.000 C 
ATOM     31  C   UNL     1      38.845   7.391  19.197  0.00  0.00    +0.000 C 
ENDBRANCH  28  31
ENDBRANCH  22  28
ENDBRANCH  19  27
ENDBRANCH  18  20
ENDBRANCH  17  18
ENDBRANCH   1  17
TORSDOF 7
ENDMDL
MODEL 2
REMARK VINA RESULT:      -9.1      0.113      3.253
REMARK  Name = 
REMARK  7 active torsions:
REMARK  status: ('A' for Active; 'I' for Inactive)
REMARK    1  A    between atoms: C_2  and  C_3
REMARK    2  A    between atoms: C_3  and  C_5
REMARK    3  A    between atoms: C_10  and  N_11
REMARK    4  A    between atoms: C_12  and  C_14
REMARK    5  A    between atoms: C_14  and  O_15
REMARK    6  A    between atoms: O_15  and  C_16
REMARK    7  A    between atoms: C_16  and  C_18
REMARK                            x       y       z     vdW  Elec       q    Type
REMARK                         _______ _______ _______ _____ _____    ______ ____
ROOT
ATOM      1  C   UNL     1      35.893   0.852  16.880  0.00  0.00    +0.000 C 
ATOM      2  O   UNL     1      34.657   0.726  16.878  0.00  0.00    +0.000 OA
ENDROOT
BRANCH   1   3
ATOM      3  C   UNL     1      36.768  -0.186  16.348  0.00  0.00    +0.000 A 
ATOM      4  C   UNL     1      37.045  -0.217  15.002  0.00  0.00    +0.000 A 
ATOM      5  C   UNL     1      36.524   0.704  14.128  0.00  0.00    +0.000 A 
ATOM      6  C   UNL     1      36.805   0.672  12.763  0.00  0.00    +0.000 A 
ATOM      7  C   UNL     1      37.631  -0.319  12.308  0.00  0.00    +0.000 A 
ATOM      8  C   UNL     1      38.167  -1.257  13.164  0.00  0.00    +0.000 A 
ATOM      9  C   UNL     1      37.877  -1.213  14.526  0.00  0.00    +0.000 A 
ATOM     10  C   UNL     1      38.397  -2.136  15.417  0.00  0.00    +0.000 A 
ATOM     11  C   UNL     1      38.120  -2.104  16.765  0.00  0.00    +0.000 A 
ATOM     12  C   UNL     1      38.645  -3.036  17.648  0.00  0.00    +0.000 A 
ATOM     13  C   UNL     1      38.351  -2.984  18.997  0.00  0.00    +0.000 A 
ATOM     14  C   UNL     1      37.526  -2.000  19.486  0.00  0.00    +0.000 A 
ATOM     15  C   UNL     1      37.007  -1.076  18.596  0.00  0.00    +0.000 A 
ATOM     16  C   UNL     1      37.289  -1.112  17.248  0.00  0.00    +0.000 A 
ENDBRANCH   1   3
BRANCH   1  17
ATOM     17  O   UNL     1      36.485   1.995  17.394  0.00  0.00    +0.000 OA
BRANCH  17  18
ATOM     18  C   UNL     1      36.435   3.176  16.628  0.00  0.00    +0.000 C 
BRANCH  18  20
ATOM     19  N   UNL     1      38.104   5.042  16.898  0.00  0.00    +0.000 NA
ATOM     20  C   UNL     1      37.800   3.728  16.457  0.00  0.00    +0.000 C 
ATOM     21  O   UNL     1      38.670   3.005  15.917  0.00  0.00    +0.000 OA
BRANCH  19  27
ATOM     22  C   UNL     1      40.186   5.996  17.759  0.00  0.00    +0.000 A 
ATOM     23  C   UNL     1      41.426   6.451  17.567  0.00  0.00    +0.000 A 
ATOM     24  C   UNL     1      42.037   6.483  16.297  0.00  0.00    +0.000 A 
ATOM     25  C   UNL     1      41.259   6.007  15.265  0.00  0.00    +0.000 A 
ATOM     26  C   UNL     1      40.001   5.542  15.445  0.00  0.00    +0.000 A 
ATOM     27  C   UNL     1      39.448   5.533  16.706  0.00  0.00    +0.000 A 
BRANCH  22  28
ATOM     28  C   UNL     1      39.572   6.002  19.191  0.00  0.00    +0.000 C 
ATOM     29  C   UNL     1      40.980   6.349  19.983  0.00  0.00    +0.000 C 
BRANCH  28  31
ATOM     30  C   UNL     1      38.920   7.928  20.671  0.00  0.00    +0.000 C 
ATOM     31  C   UNL     1      39.052   7.545  19.223  0.00  0.00    +0.000 C 
ENDBRANCH  28  31
ENDBRANCH  22  28
ENDBRANCH  19  27
ENDBRANCH  18  20
ENDBRANCH  17  18
ENDBRANCH   1  17
TORSDOF 7
ENDMDL
MODEL 3
REMARK VINA RESULT:      -8.8      4.152      5.995
REMARK  Name = 
REMARK  7 active torsions:
REMARK  status: ('A' for Active; 'I' for Inactive)
REMARK    1  A    between atoms: C_2  and  C_3
REMARK    2  A    between atoms: C_3  and  C_5
REMARK    3  A    between atoms: C_10  and  N_11
REMARK    4  A    between atoms: C_12  and  C_14
REMARK    5  A    between atoms: C_14  and  O_15
REMARK    6  A    between atoms: O_15  and  C_16
REMARK    7  A    between atoms: C_16  and  C_18
REMARK                            x       y       z     vdW  Elec       q    Type
REMARK                         _______ _______ _______ _____ _____    ______ ____
ROOT
ATOM      1  C   UNL     1      37.932  -3.934  16.913  0.00  0.00    +0.000 C 
ATOM      2  O   UNL     1      38.292  -4.685  17.835  0.00  0.00    +0.000 OA
ENDROOT
BRANCH   1   3
ATOM      3  C   UNL     1      36.617  -3.308  16.908  0.00  0.00    +0.000 A 
ATOM      4  C   UNL     1      36.403  -2.169  17.648  0.00  0.00    +0.000 A 
ATOM      5  C   UNL     1      37.395  -1.592  18.401  0.00  0.00    +0.000 A 
ATOM      6  C   UNL     1      37.179  -0.437  19.151  0.00  0.00    +0.000 A 
ATOM      7  C   UNL     1      35.928   0.117  19.118  0.00  0.00    +0.000 A 
ATOM      8  C   UNL     1      34.914  -0.443  18.370  0.00  0.00    +0.000 A 
ATOM      9  C   UNL     1      35.145  -1.597  17.625  0.00  0.00    +0.000 A 
ATOM     10  C   UNL     1      34.153  -2.188  16.862  0.00  0.00    +0.000 A 
ATOM     11  C   UNL     1      34.367  -3.327  16.120  0.00  0.00    +0.000 A 
ATOM     12  C   UNL     1      33.364  -3.912  15.360  0.00  0.00    +0.000 A 
ATOM     13  C   UNL     1      33.603  -5.057  14.625  0.00  0.00    +0.000 A 
ATOM     14  C   UNL     1      34.847  -5.637  14.638  0.00  0.00    +0.000 A 
ATOM     15  C   UNL     1      35.841  -5.047  15.399  0.00  0.00    +0.000 A 
ATOM     16  C   UNL     1      35.621  -3.905  16.138  0.00  0.00    +0.000 A 
ENDBRANCH   1   3
BRANCH   1  17
ATOM     17  O   UNL     1      38.780  -3.667  15.849  0.00  0.00    +0.000 OA
BRANCH  17  18
ATOM     18  C   UNL     1      39.706  -2.614  15.980  0.00  0.00    +0.000 C 
BRANCH  18  20
ATOM     19  N   UNL     1      38.172  -1.569  14.279  0.00  0.00    +0.000 NA
ATOM     20  C   UNL     1      39.380  -1.530  15.022  0.00  0.00    +0.000 C 
ATOM     21  O   UNL     1      40.194  -0.587  14.891  0.00  0.00    +0.000 OA
BRANCH  19  27
ATOM     22  C   UNL     1      37.103   0.558  13.715  0.00  0.00    +0.000 A 
ATOM     23  C   UNL     1      36.858   1.547  12.852  0.00  0.00    +0.000 A 
ATOM     24  C   UNL     1      37.395   1.570  11.549  0.00  0.00    +0.000 A 
ATOM     25  C   UNL     1      38.195   0.494  11.230  0.00  0.00    +0.000 A 
ATOM     26  C   UNL     1      38.451  -0.514  12.095  0.00  0.00    +0.000 A 
ATOM     27  C   UNL     1      37.901  -0.491  13.357  0.00  0.00    +0.000 A 
BRANCH  22  28
ATOM     28  C   UNL     1      36.464   0.596  15.136  0.00  0.00    +0.000 C 
ATOM     29  C   UNL     1      37.460   1.767  15.744  0.00  0.00    +0.000 C 
BRANCH  28  31
ATOM     30  C   UNL     1      35.015   2.413  16.096  0.00  0.00    +0.000 C 
ATOM     31  C   UNL     1      35.253   1.639  14.828  0.00  0.00    +0.000 C 
ENDBRANCH  28  31
ENDBRANCH  22  28
ENDBRANCH  19  27
ENDBRANCH  18  20
ENDBRANCH  17  18
ENDBRANCH   1  17
TORSDOF 7
ENDMDL
MODEL 4
REMARK VINA RESULT:      -8.7      2.058      3.705
REMARK  Name = 
REMARK  7 active torsions:
REMARK  status: ('A' for Active; 'I' for Inactive)
REMARK    1  A    between atoms: C_2  and  C_3
REMARK    2  A    between atoms: C_3  and  C_5
REMARK    3  A    between atoms: C_10  and  N_11
REMARK    4  A    between atoms: C_12  and  C_14
REMARK    5  A    between atoms: C_14  and  O_15
REMARK    6  A    between atoms: O_15  and  C_16
REMARK    7  A    between atoms: C_16  and  C_18
REMARK                            x       y       z     vdW  Elec       q    Type
REMARK                         _______ _______ _______ _____ _____    ______ ____
ROOT
ATOM      1  C   UNL     1      38.368   2.064  14.744  0.00  0.00    +0.000 C 
ATOM      2  O   UNL     1      38.013   2.434  13.613  0.00  0.00    +0.000 OA
ENDROOT
BRANCH   1   3
ATOM      3  C   UNL     1      38.240   0.676  15.170  0.00  0.00    +0.000 A 
ATOM      4  C   UNL     1      39.271  -0.204  14.937  0.00  0.00    +0.000 A 
ATOM      5  C   UNL     1      40.430   0.180  14.311  0.00  0.00    +0.000 A 
ATOM      6  C   UNL     1      41.475  -0.712  14.075  0.00  0.00    +0.000 A 
ATOM      7  C   UNL     1      41.312  -2.005  14.491  0.00  0.00    +0.000 A 
ATOM      8  C   UNL     1      40.157  -2.417  15.121  0.00  0.00    +0.000 A 
ATOM      9  C   UNL     1      39.122  -1.514  15.350  0.00  0.00    +0.000 A 
ATOM     10  C   UNL     1      37.948  -1.889  15.981  0.00  0.00    +0.000 A 
ATOM     11  C   UNL     1      36.917  -1.008  16.215  0.00  0.00    +0.000 A 
ATOM     12  C   UNL     1      35.744  -1.397  16.846  0.00  0.00    +0.000 A 
ATOM     13  C   UNL     1      34.722  -0.493  17.068  0.00  0.00    +0.000 A 
ATOM     14  C   UNL     1      34.855   0.812  16.664  0.00  0.00    +0.000 A 
ATOM     15  C   UNL     1      36.029   1.189  16.034  0.00  0.00    +0.000 A 
ATOM     16  C   UNL     1      37.058   0.302  15.804  0.00  0.00    +0.000 A 
ENDBRANCH   1   3
BRANCH   1  17
ATOM     17  O   UNL     1      38.902   2.970  15.647  0.00  0.00    +0.000 OA
BRANCH  17  18
ATOM     18  C   UNL     1      38.745   4.345  15.387  0.00  0.00    +0.000 C 
BRANCH  18  20
ATOM     19  N   UNL     1      39.013   6.418  16.790  0.00  0.00    +0.000 NA
ATOM     20  C   UNL     1      38.553   5.083  16.659  0.00  0.00    +0.000 C 
ATOM     21  O   UNL     1      37.976   4.497  17.604  0.00  0.00    +0.000 OA
BRANCH  19  27
ATOM     22  C   UNL     1      39.738   7.037  19.044  0.00  0.00    +0.000 A 
ATOM     23  C   UNL     1      39.529   7.662  20.205  0.00  0.00    +0.000 A 
ATOM     24  C   UNL     1      38.359   8.402  20.471  0.00  0.00    +0.000 A 
ATOM     25  C   UNL     1      37.443   8.433  19.442  0.00  0.00    +0.000 A 
ATOM     26  C   UNL     1      37.643   7.804  18.260  0.00  0.00    +0.000 A 
ATOM     27  C   UNL     1      38.803   7.093  18.050  0.00  0.00    +0.000 A 
BRANCH  22  28
ATOM     28  C   UNL     1      41.052   6.228  18.826  0.00  0.00    +0.000 C 
ATOM     29  C   UNL     1      41.972   7.516  18.349  0.00  0.00    +0.000 C 
BRANCH  28  31
ATOM     30  C   UNL     1      43.082   6.565  20.271  0.00  0.00    +0.000 C 
ATOM     31  C   UNL     1      41.612   6.262  20.354  0.00  0.00    +0.000 C 
ENDBRANCH  28  31
ENDBRANCH  22  28
ENDBRANCH  19  27
ENDBRANCH  18  20
ENDBRANCH  17  18
ENDBRANCH   1  17
TORSDOF 7
ENDMDL
MODEL 5
REMARK VINA RESULT:      -8.7      2.070      3.496
REMARK  Name = 
REMARK  7 active torsions:
REMARK  status: ('A' for Active; 'I' for Inactive)
REMARK    1  A    between atoms: C_2  and  C_3
REMARK    2  A    between atoms: C_3  and  C_5
REMARK    3  A    between atoms: C_10  and  N_11
REMARK    4  A    between atoms: C_12  and  C_14
REMARK    5  A    between atoms: C_14  and  O_15
REMARK    6  A    between atoms: O_15  and  C_16
REMARK    7  A    between atoms: C_16  and  C_18
REMARK                            x       y       z     vdW  Elec       q    Type
REMARK                         _______ _______ _______ _____ _____    ______ ____
ROOT
ATOM      1  C   UNL     1      38.436   2.127  14.690  0.00  0.00    +0.000 C 
ATOM      2  O   UNL     1      38.138   2.466  13.532  0.00  0.00    +0.000 OA
ENDROOT
BRANCH   1   3
ATOM      3  C   UNL     1      38.247   0.761  15.159  0.00  0.00    +0.000 A 
ATOM      4  C   UNL     1      37.075   0.415  15.790  0.00  0.00    +0.000 A 
ATOM      5  C   UNL     1      36.064   1.319  15.998  0.00  0.00    +0.000 A 
ATOM      6  C   UNL     1      34.876   0.968  16.638  0.00  0.00    +0.000 A 
ATOM      7  C   UNL     1      34.741  -0.325  17.062  0.00  0.00    +0.000 A 
ATOM      8  C   UNL     1      35.742  -1.254  16.867  0.00  0.00    +0.000 A 
ATOM      9  C   UNL     1      36.923  -0.888  16.226  0.00  0.00    +0.000 A 
ATOM     10  C   UNL     1      37.951  -1.791  16.011  0.00  0.00    +0.000 A 
ATOM     11  C   UNL     1      39.123  -1.445  15.378  0.00  0.00    +0.000 A 
ATOM     12  C   UNL     1      40.146  -2.358  15.170  0.00  0.00    +0.000 A 
ATOM     13  C   UNL     1      41.315  -1.986  14.533  0.00  0.00    +0.000 A 
ATOM     14  C   UNL     1      41.480  -0.696  14.095  0.00  0.00    +0.000 A 
ATOM     15  C   UNL     1      40.454   0.208  14.308  0.00  0.00    +0.000 A 
ATOM     16  C   UNL     1      39.282  -0.145  14.941  0.00  0.00    +0.000 A 
ENDBRANCH   1   3
BRANCH   1  17
ATOM     17  O   UNL     1      38.962   3.050  15.581  0.00  0.00    +0.000 OA
BRANCH  17  18
ATOM     18  C   UNL     1      38.732   4.418  15.341  0.00  0.00    +0.000 C 
BRANCH  18  20
ATOM     19  N   UNL     1      39.029   6.457  16.787  0.00  0.00    +0.000 NA
ATOM     20  C   UNL     1      38.546   5.134  16.626  0.00  0.00    +0.000 C 
ATOM     21  O   UNL     1      37.952   4.540  17.556  0.00  0.00    +0.000 OA
BRANCH  19  27
ATOM     22  C   UNL     1      39.751   7.016  19.058  0.00  0.00    +0.000 A 
ATOM     23  C   UNL     1      39.546   7.622  20.230  0.00  0.00    +0.000 A 
ATOM     24  C   UNL     1      38.389   8.378  20.504  0.00  0.00    +0.000 A 
ATOM     25  C   UNL     1      37.481   8.448  19.470  0.00  0.00    +0.000 A 
ATOM     26  C   UNL     1      37.676   7.840  18.277  0.00  0.00    +0.000 A 
ATOM     27  C   UNL     1      38.824   7.110  18.059  0.00  0.00    +0.000 A 
BRANCH  22  28
ATOM     28  C   UNL     1      41.051   6.186  18.832  0.00  0.00    +0.000 C 
ATOM     29  C   UNL     1      41.990   7.460  18.355  0.00  0.00    +0.000 C 
BRANCH  28  31
ATOM     30  C   UNL     1      43.066   6.601  20.278  0.00  0.00    +0.000 C 
ATOM     31  C   UNL     1      41.617   6.205  20.358  0.00  0.00    +0.000 C 
ENDBRANCH  28  31
ENDBRANCH  22  28
ENDBRANCH  19  27
ENDBRANCH  18  20
ENDBRANCH  17  18
ENDBRANCH   1  17
TORSDOF 7
ENDMDL
MODEL 6
REMARK VINA RESULT:      -8.7      3.846      5.893
REMARK  Name = 
REMARK  7 active torsions:
REMARK  status: ('A' for Active; 'I' for Inactive)
REMARK    1  A    between atoms: C_2  and  C_3
REMARK    2  A    between atoms: C_3  and  C_5
REMARK    3  A    between atoms: C_10  and  N_11
REMARK    4  A    between atoms: C_12  and  C_14
REMARK    5  A    between atoms: C_14  and  O_15
REMARK    6  A    between atoms: O_15  and  C_16
REMARK    7  A    between atoms: C_16  and  C_18
REMARK                            x       y       z     vdW  Elec       q    Type
REMARK                         _______ _______ _______ _____ _____    ______ ____
ROOT
ATOM      1  C   UNL     1      38.018  -3.942  17.008  0.00  0.00    +0.000 C 
ATOM      2  O   UNL     1      38.357  -4.674  17.953  0.00  0.00    +0.000 OA
ENDROOT
BRANCH   1   3
ATOM      3  C   UNL     1      36.692  -3.340  16.946  0.00  0.00    +0.000 A 
ATOM      4  C   UNL     1      35.717  -3.923  16.170  0.00  0.00    +0.000 A 
ATOM      5  C   UNL     1      35.948  -5.064  15.443  0.00  0.00    +0.000 A 
ATOM      6  C   UNL     1      34.961  -5.654  14.656  0.00  0.00    +0.000 A 
ATOM      7  C   UNL     1      33.731  -5.056  14.627  0.00  0.00    +0.000 A 
ATOM      8  C   UNL     1      33.472  -3.909  15.347  0.00  0.00    +0.000 A 
ATOM      9  C   UNL     1      34.469  -3.330  16.128  0.00  0.00    +0.000 A 
ATOM     10  C   UNL     1      34.248  -2.180  16.866  0.00  0.00    +0.000 A 
ATOM     11  C   UNL     1      35.223  -1.597  17.643  0.00  0.00    +0.000 A 
ATOM     12  C   UNL     1      34.990  -0.443  18.377  0.00  0.00    +0.000 A 
ATOM     13  C   UNL     1      35.986   0.124  19.149  0.00  0.00    +0.000 A 
ATOM     14  C   UNL     1      37.231  -0.453  19.200  0.00  0.00    +0.000 A 
ATOM     15  C   UNL     1      37.454  -1.604  18.465  0.00  0.00    +0.000 A 
ATOM     16  C   UNL     1      36.472  -2.183  17.689  0.00  0.00    +0.000 A 
ENDBRANCH   1   3
BRANCH   1  17
ATOM     17  O   UNL     1      38.900  -3.671  15.973  0.00  0.00    +0.000 OA
BRANCH  17  18
ATOM     18  C   UNL     1      39.648  -2.479  16.027  0.00  0.00    +0.000 C 
BRANCH  18  20
ATOM     19  N   UNL     1      39.389  -0.126  15.171  0.00  0.00    +0.000 NA
ATOM     20  C   UNL     1      39.136  -1.514  15.025  0.00  0.00    +0.000 C 
ATOM     21  O   UNL     1      38.481  -1.957  14.053  0.00  0.00    +0.000 OA
BRANCH  19  27
ATOM     22  C   UNL     1      37.676   1.418  14.351  0.00  0.00    +0.000 A 
ATOM     23  C   UNL     1      37.204   2.244  13.415  0.00  0.00    +0.000 A 
ATOM     24  C   UNL     1      37.887   2.497  12.208  0.00  0.00    +0.000 A 
ATOM     25  C   UNL     1      39.083   1.828  12.065  0.00  0.00    +0.000 A 
ATOM     26  C   UNL     1      39.573   0.989  13.007  0.00  0.00    +0.000 A 
ATOM     27  C   UNL     1      38.867   0.774  14.169  0.00  0.00    +0.000 A 
BRANCH  22  28
ATOM     28  C   UNL     1      36.858   1.179  15.656  0.00  0.00    +0.000 C 
ATOM     29  C   UNL     1      37.082   2.692  16.282  0.00  0.00    +0.000 C 
BRANCH  28  31
ATOM     30  C   UNL     1      34.698   2.386  16.108  0.00  0.00    +0.000 C 
ATOM     31  C   UNL     1      35.376   1.524  15.078  0.00  0.00    +0.000 C 
ENDBRANCH  28  31
ENDBRANCH  22  28
ENDBRANCH  19  27
ENDBRANCH  18  20
ENDBRANCH  17  18
ENDBRANCH   1  17
TORSDOF 7
ENDMDL
MODEL 7
REMARK VINA RESULT:      -8.6      1.946      3.528
REMARK  Name = 
REMARK  7 active torsions:
REMARK  status: ('A' for Active; 'I' for Inactive)
REMARK    1  A    between atoms: C_2  and  C_3
REMARK    2  A    between atoms: C_3  and  C_5
REMARK    3  A    between atoms: C_10  and  N_11
REMARK    4  A    between atoms: C_12  and  C_14
REMARK    5  A    between atoms: C_14  and  O_15
REMARK    6  A    between atoms: O_15  and  C_16
REMARK    7  A    between atoms: C_16  and  C_18
REMARK                            x       y       z     vdW  Elec       q    Type
REMARK                         _______ _______ _______ _____ _____    ______ ____
ROOT
ATOM      1  C   UNL     1      37.806   1.890  14.993  0.00  0.00    +0.000 C 
ATOM      2  O   UNL     1      37.165   2.244  13.989  0.00  0.00    +0.000 OA
ENDROOT
BRANCH   1   3
ATOM      3  C   UNL     1      37.919   0.488  15.372  0.00  0.00    +0.000 A 
ATOM      4  C   UNL     1      39.060  -0.211  15.058  0.00  0.00    +0.000 A 
ATOM      5  C   UNL     1      40.112   0.369  14.393  0.00  0.00    +0.000 A 
ATOM      6  C   UNL     1      41.269  -0.340  14.075  0.00  0.00    +0.000 A 
ATOM      7  C   UNL     1      41.332  -1.654  14.449  0.00  0.00    +0.000 A 
ATOM      8  C   UNL     1      40.290  -2.261  15.118  0.00  0.00    +0.000 A 
ATOM      9  C   UNL     1      39.140  -1.540  15.429  0.00  0.00    +0.000 A 
ATOM     10  C   UNL     1      38.074  -2.114  16.100  0.00  0.00    +0.000 A 
ATOM     11  C   UNL     1      36.932  -1.414  16.415  0.00  0.00    +0.000 A 
ATOM     12  C   UNL     1      35.868  -2.001  17.086  0.00  0.00    +0.000 A 
ATOM     13  C   UNL     1      34.731  -1.277  17.390  0.00  0.00    +0.000 A 
ATOM     14  C   UNL     1      34.637   0.044  17.028  0.00  0.00    +0.000 A 
ATOM     15  C   UNL     1      35.703   0.620  16.359  0.00  0.00    +0.000 A 
ATOM     16  C   UNL     1      36.845  -0.086  16.047  0.00  0.00    +0.000 A 
ENDBRANCH   1   3
BRANCH   1  17
ATOM     17  O   UNL     1      38.439   2.829  15.793  0.00  0.00    +0.000 OA
BRANCH  17  18
ATOM     18  C   UNL     1      37.699   3.945  16.228  0.00  0.00    +0.000 C 
BRANCH  18  20
ATOM     19  N   UNL     1      38.987   5.893  17.169  0.00  0.00    +0.000 NA
ATOM     20  C   UNL     1      38.402   4.613  17.350  0.00  0.00    +0.000 C 
ATOM     21  O   UNL     1      38.461   4.019  18.451  0.00  0.00    +0.000 OA
BRANCH  19  27
ATOM     22  C   UNL     1      39.046   7.453  19.054  0.00  0.00    +0.000 A 
ATOM     23  C   UNL     1      39.683   8.009  20.087  0.00  0.00    +0.000 A 
ATOM     24  C   UNL     1      40.999   7.656  20.448  0.00  0.00    +0.000 A 
ATOM     25  C   UNL     1      41.582   6.692  19.656  0.00  0.00    +0.000 A 
ATOM     26  C   UNL     1      40.948   6.120  18.606  0.00  0.00    +0.000 A 
ATOM     27  C   UNL     1      39.662   6.500  18.293  0.00  0.00    +0.000 A 
BRANCH  22  28
ATOM     28  C   UNL     1      37.595   7.901  18.707  0.00  0.00    +0.000 C 
ATOM     29  C   UNL     1      37.339   8.756  20.099  0.00  0.00    +0.000 C 
BRANCH  28  31
ATOM     30  C   UNL     1      37.220  10.377  18.471  0.00  0.00    +0.000 C 
ATOM     31  C   UNL     1      37.955   9.229  17.836  0.00  0.00    +0.000 C 
ENDBRANCH  28  31
ENDBRANCH  22  28
ENDBRANCH  19  27
ENDBRANCH  18  20
ENDBRANCH  17  18
ENDBRANCH   1  17
TORSDOF 7
ENDMDL
MODEL 8
REMARK VINA RESULT:      -8.6      1.973      3.146
REMARK  Name = 
REMARK  7 active torsions:
REMARK  status: ('A' for Active; 'I' for Inactive)
REMARK    1  A    between atoms: C_2  and  C_3
REMARK    2  A    between atoms: C_3  and  C_5
REMARK    3  A    between atoms: C_10  and  N_11
REMARK    4  A    between atoms: C_12  and  C_14
REMARK    5  A    between atoms: C_14  and  O_15
REMARK    6  A    between atoms: O_15  and  C_16
REMARK    7  A    between atoms: C_16  and  C_18
REMARK                            x       y       z     vdW  Elec       q    Type
REMARK                         _______ _______ _______ _____ _____    ______ ____
ROOT
ATOM      1  C   UNL     1      37.901   2.040  14.863  0.00  0.00    +0.000 C 
ATOM      2  O   UNL     1      37.347   2.384  13.806  0.00  0.00    +0.000 OA
ENDROOT
BRANCH   1   3
ATOM      3  C   UNL     1      37.932   0.648  15.291  0.00  0.00    +0.000 A 
ATOM      4  C   UNL     1      36.855   0.118  15.961  0.00  0.00    +0.000 A 
ATOM      5  C   UNL     1      35.736   0.860  16.245  0.00  0.00    +0.000 A 
ATOM      6  C   UNL     1      34.643   0.324  16.925  0.00  0.00    +0.000 A 
ATOM      7  C   UNL     1      34.716  -0.987  17.308  0.00  0.00    +0.000 A 
ATOM      8  C   UNL     1      35.828  -1.756  17.036  0.00  0.00    +0.000 A 
ATOM      9  C   UNL     1      36.912  -1.205  16.357  0.00  0.00    +0.000 A 
ATOM     10  C   UNL     1      38.046  -1.944  16.064  0.00  0.00    +0.000 A 
ATOM     11  C   UNL     1      39.124  -1.414  15.392  0.00  0.00    +0.000 A 
ATOM     12  C   UNL     1      40.256  -2.164  15.106  0.00  0.00    +0.000 A 
ATOM     13  C   UNL     1      41.327  -1.609  14.432  0.00  0.00    +0.000 A 
ATOM     14  C   UNL     1      41.284  -0.296  14.033  0.00  0.00    +0.000 A 
ATOM     15  C   UNL     1      40.151   0.444  14.323  0.00  0.00    +0.000 A 
ATOM     16  C   UNL     1      39.074  -0.093  14.995  0.00  0.00    +0.000 A 
ENDBRANCH   1   3
BRANCH   1  17
ATOM     17  O   UNL     1      38.514   2.980  15.678  0.00  0.00    +0.000 OA
BRANCH  17  18
ATOM     18  C   UNL     1      37.719   3.999  16.238  0.00  0.00    +0.000 C 
BRANCH  18  20
ATOM     19  N   UNL     1      39.044   5.937  17.145  0.00  0.00    +0.000 NA
ATOM     20  C   UNL     1      38.451   4.664  17.342  0.00  0.00    +0.000 C 
ATOM     21  O   UNL     1      38.529   4.073  18.444  0.00  0.00    +0.000 OA
BRANCH  19  27
ATOM     22  C   UNL     1      39.141   7.468  19.052  0.00  0.00    +0.000 A 
ATOM     23  C   UNL     1      39.806   8.022  20.069  0.00  0.00    +0.000 A 
ATOM     24  C   UNL     1      41.142   7.695  20.373  0.00  0.00    +0.000 A 
ATOM     25  C   UNL     1      41.715   6.757  19.543  0.00  0.00    +0.000 A 
ATOM     26  C   UNL     1      41.053   6.187  18.509  0.00  0.00    +0.000 A 
ATOM     27  C   UNL     1      39.748   6.542  18.251  0.00  0.00    +0.000 A 
BRANCH  22  28
ATOM     28  C   UNL     1      37.668   7.889  18.768  0.00  0.00    +0.000 C 
ATOM     29  C   UNL     1      37.460   8.747  20.166  0.00  0.00    +0.000 C 
BRANCH  28  31
ATOM     30  C   UNL     1      36.879  10.208  18.196  0.00  0.00    +0.000 C 
ATOM     31  C   UNL     1      37.965   9.218  17.875  0.00  0.00    +0.000 C 
ENDBRANCH  28  31
ENDBRANCH  22  28
ENDBRANCH  19  27
ENDBRANCH  18  20
ENDBRANCH  17  18
ENDBRANCH   1  17
TORSDOF 7
ENDMDL
MODEL 9
REMARK VINA RESULT:      -8.4      1.751      2.238
REMARK  Name = 
REMARK  7 active torsions:
REMARK  status: ('A' for Active; 'I' for Inactive)
REMARK    1  A    between atoms: C_2  and  C_3
REMARK    2  A    between atoms: C_3  and  C_5
REMARK    3  A    between atoms: C_10  and  N_11
REMARK    4  A    between atoms: C_12  and  C_14
REMARK    5  A    between atoms: C_14  and  O_15
REMARK    6  A    between atoms: O_15  and  C_16
REMARK    7  A    between atoms: C_16  and  C_18
REMARK                            x       y       z     vdW  Elec       q    Type
REMARK                         _______ _______ _______ _____ _____    ______ ____
ROOT
ATOM      1  C   UNL     1      37.372   1.174  15.079  0.00  0.00    +0.000 C 
ATOM      2  O   UNL     1      36.802   1.498  14.024  0.00  0.00    +0.000 OA
ENDROOT
BRANCH   1   3
ATOM      3  C   UNL     1      37.877  -0.177  15.290  0.00  0.00    +0.000 A 
ATOM      4  C   UNL     1      37.049  -1.136  15.824  0.00  0.00    +0.000 A 
ATOM      5  C   UNL     1      35.748  -0.867  16.170  0.00  0.00    +0.000 A 
ATOM      6  C   UNL     1      34.909  -1.839  16.712  0.00  0.00    +0.000 A 
ATOM      7  C   UNL     1      35.424  -3.093  16.893  0.00  0.00    +0.000 A 
ATOM      8  C   UNL     1      36.728  -3.391  16.555  0.00  0.00    +0.000 A 
ATOM      9  C   UNL     1      37.554  -2.408  16.015  0.00  0.00    +0.000 A 
ATOM     10  C   UNL     1      38.868  -2.668  15.662  0.00  0.00    +0.000 A 
ATOM     11  C   UNL     1      39.696  -1.708  15.127  0.00  0.00    +0.000 A 
ATOM     12  C   UNL     1      41.011  -1.980  14.778  0.00  0.00    +0.000 A 
ATOM     13  C   UNL     1      41.824  -0.999  14.244  0.00  0.00    +0.000 A 
ATOM     14  C   UNL     1      41.336   0.270  14.049  0.00  0.00    +0.000 A 
ATOM     15  C   UNL     1      40.023   0.531  14.399  0.00  0.00    +0.000 A 
ATOM     16  C   UNL     1      39.198  -0.435  14.934  0.00  0.00    +0.000 A 
ENDBRANCH   1   3
BRANCH   1  17
ATOM     17  O   UNL     1      37.547   2.096  16.100  0.00  0.00    +0.000 OA
BRANCH  17  18
ATOM     18  C   UNL     1      36.833   3.308  16.035  0.00  0.00    +0.000 C 
BRANCH  18  20
ATOM     19  N   UNL     1      39.106   4.296  16.477  0.00  0.00    +0.000 NA
ATOM     20  C   UNL     1      37.777   4.451  16.005  0.00  0.00    +0.000 C 
ATOM     21  O   UNL     1      37.370   5.547  15.554  0.00  0.00    +0.000 OA
BRANCH  19  27
ATOM     22  C   UNL     1      40.232   6.187  17.546  0.00  0.00    +0.000 A 
ATOM     23  C   UNL     1      41.045   7.245  17.485  0.00  0.00    +0.000 A 
ATOM     24  C   UNL     1      41.685   7.646  16.295  0.00  0.00    +0.000 A 
ATOM     25  C   UNL     1      41.411   6.864  15.195  0.00  0.00    +0.000 A 
ATOM     26  C   UNL     1      40.589   5.790  15.242  0.00  0.00    +0.000 A 
ATOM     27  C   UNL     1      39.986   5.440  16.429  0.00  0.00    +0.000 A 
BRANCH  22  28
ATOM     28  C   UNL     1      39.551   5.811  18.895  0.00  0.00    +0.000 C 
ATOM     29  C   UNL     1      40.809   6.275  19.861  0.00  0.00    +0.000 C 
BRANCH  28  31
ATOM     30  C   UNL     1      39.063   7.666  20.522  0.00  0.00    +0.000 C 
ATOM     31  C   UNL     1      38.719   7.189  19.138  0.00  0.00    +0.000 C 
ENDBRANCH  28  31
ENDBRANCH  22  28
ENDBRANCH  19  27
ENDBRANCH  18  20
ENDBRANCH  17  18
ENDBRANCH   1  17
TORSDOF 7
ENDMDL
MODEL 10
REMARK VINA RESULT:      -8.1      2.078      3.681
REMARK  Name = 
REMARK  7 active torsions:
REMARK  status: ('A' for Active; 'I' for Inactive)
REMARK    1  A    between atoms: C_2  and  C_3
REMARK    2  A    between atoms: C_3  and  C_5
REMARK    3  A    between atoms: C_10  and  N_11
REMARK    4  A    between atoms: C_12  and  C_14
REMARK    5  A    between atoms: C_14  and  O_15
REMARK    6  A    between atoms: O_15  and  C_16
REMARK    7  A    between atoms: C_16  and  C_18
REMARK                            x       y       z     vdW  Elec       q    Type
REMARK                         _______ _______ _______ _____ _____    ______ ____
ROOT
ATOM      1  C   UNL     1      37.279   1.378  14.492  0.00  0.00    +0.000 C 
ATOM      2  O   UNL     1      36.601   2.069  13.715  0.00  0.00    +0.000 OA
ENDROOT
BRANCH   1   3
ATOM      3  C   UNL     1      37.105  -0.066  14.580  0.00  0.00    +0.000 A 
ATOM      4  C   UNL     1      37.853  -0.892  13.774  0.00  0.00    +0.000 A 
ATOM      5  C   UNL     1      38.771  -0.402  12.879  0.00  0.00    +0.000 A 
ATOM      6  C   UNL     1      39.529  -1.239  12.062  0.00  0.00    +0.000 A 
ATOM      7  C   UNL     1      39.332  -2.588  12.177  0.00  0.00    +0.000 A 
ATOM      8  C   UNL     1      38.417  -3.107  13.068  0.00  0.00    +0.000 A 
ATOM      9  C   UNL     1      37.666  -2.258  13.878  0.00  0.00    +0.000 A 
ATOM     10  C   UNL     1      36.738  -2.740  14.785  0.00  0.00    +0.000 A 
ATOM     11  C   UNL     1      35.990  -1.914  15.592  0.00  0.00    +0.000 A 
ATOM     12  C   UNL     1      35.061  -2.409  16.496  0.00  0.00    +0.000 A 
ATOM     13  C   UNL     1      34.320  -1.559  17.295  0.00  0.00    +0.000 A 
ATOM     14  C   UNL     1      34.495  -0.200  17.203  0.00  0.00    +0.000 A 
ATOM     15  C   UNL     1      35.423   0.284  16.298  0.00  0.00    +0.000 A 
ATOM     16  C   UNL     1      36.171  -0.549  15.493  0.00  0.00    +0.000 A 
ENDBRANCH   1   3
BRANCH   1  17
ATOM     17  O   UNL     1      38.234   1.964  15.308  0.00  0.00    +0.000 OA
BRANCH  17  18
ATOM     18  C   UNL     1      39.282   2.683  14.701  0.00  0.00    +0.000 C 
BRANCH  18  20
ATOM     19  N   UNL     1      38.154   4.578  15.916  0.00  0.00    +0.000 NA
ATOM     20  C   UNL     1      39.161   4.125  15.026  0.00  0.00    +0.000 C 
ATOM     21  O   UNL     1      39.969   4.923  14.497  0.00  0.00    +0.000 OA
BRANCH  19  27
ATOM     22  C   UNL     1      38.717   6.530  17.279  0.00  0.00    +0.000 A 
ATOM     23  C   UNL     1      38.634   7.839  17.531  0.00  0.00    +0.000 A 
ATOM     24  C   UNL     1      37.899   8.725  16.719  0.00  0.00    +0.000 A 
ATOM     25  C   UNL     1      37.271   8.141  15.641  0.00  0.00    +0.000 A 
ATOM     26  C   UNL     1      37.347   6.817  15.374  0.00  0.00    +0.000 A 
ATOM     27  C   UNL     1      38.077   5.992  16.199  0.00  0.00    +0.000 A 
BRANCH  22  28
ATOM     28  C   UNL     1      39.540   5.610  18.230  0.00  0.00    +0.000 C 
ATOM     29  C   UNL     1      41.025   6.190  17.793  0.00  0.00    +0.000 C 
BRANCH  28  31
ATOM     30  C   UNL     1      40.834   6.499  20.195  0.00  0.00    +0.000 C 
ATOM     31  C   UNL     1      39.463   6.523  19.576  0.00  0.00    +0.000 C 
ENDBRANCH  28  31
ENDBRANCH  22  28
ENDBRANCH  19  27
ENDBRANCH  18  20
ENDBRANCH  17  18
ENDBRANCH   1  17
TORSDOF 7
ENDMDL
