MODEL 1
REMARK VINA RESULT:      -8.8      0.000      0.000
REMARK  Name = 
REMARK  6 active torsions:
REMARK  status: ('A' for Active; 'I' for Inactive)
REMARK    1  A    between atoms: O_2  and  C_3
REMARK    2  A    between atoms: C_6  and  C_7
REMARK    3  A    between atoms: C_17  and  O_18
REMARK    4  A    between atoms: O_18  and  C_19
REMARK    5  A    between atoms: C_19  and  C_20
REMARK    6  A    between atoms: C_29  and  C_30
REMARK                            x       y       z     vdW  Elec       q    Type
REMARK                         _______ _______ _______ _____ _____    ______ ____
ROOT
ATOM      1  C   UNL     1      37.998  -1.233  13.852  0.00  0.00    +0.000 C 
ATOM      2  N   UNL     1      39.506  -1.318  13.494  0.00  0.00    +0.000 NA
ATOM      3  C   UNL     1      40.360  -0.872  14.476  0.00  0.00    +0.000 C 
ATOM      4  C   UNL     1      40.459   0.642  14.463  0.00  0.00    +0.000 C 
ATOM      5  C   UNL     1      39.024   1.060  14.420  0.00  0.00    +0.000 A 
ATOM      6  C   UNL     1      37.968   0.326  14.173  0.00  0.00    +0.000 A 
ATOM      7  N   UNL     1      36.824   1.057  14.222  0.00  0.00    +0.000 NA
ATOM      8  C   UNL     1      37.167   2.320  14.514  0.00  0.00    +0.000 A 
ATOM      9  C   UNL     1      36.457   3.505  14.697  0.00  0.00    +0.000 A 
ATOM     10  C   UNL     1      37.138   4.664  14.997  0.00  0.00    +0.000 A 
ATOM     11  C   UNL     1      38.506   4.727  15.134  0.00  0.00    +0.000 A 
ATOM     12  C   UNL     1      39.186   3.546  14.950  0.00  0.00    +0.000 A 
ATOM     13  C   UNL     1      38.541   2.349  14.643  0.00  0.00    +0.000 A 
ENDROOT
BRANCH   1  17
ATOM     14  C   UNL     1      38.016  -2.482  18.031  0.00  0.00    +0.000 A 
ATOM     15  C   UNL     1      38.969  -2.953  17.157  0.00  0.00    +0.000 A 
ATOM     16  C   UNL     1      38.970  -2.563  15.837  0.00  0.00    +0.000 A 
ATOM     17  C   UNL     1      38.079  -1.742  15.365  0.00  0.00    +0.000 A 
ATOM     18  C   UNL     1      37.084  -1.224  16.189  0.00  0.00    +0.000 A 
ATOM     19  C   UNL     1      37.084  -1.613  17.505  0.00  0.00    +0.000 A 
BRANCH  19  20
ATOM     20  C   UNL     1      36.051  -1.112  18.484  0.00  0.00    +0.000 C 
ATOM     21  C   UNL     1      34.721  -1.193  17.768  0.00  0.00    +0.000 C 
ATOM     22  C   UNL     1      36.350   0.315  18.897  0.00  0.00    +0.000 C 
ENDBRANCH  19  20
BRANCH  14  24
ATOM     23  C   UNL     1      38.881  -3.838  19.876  0.00  0.00    +0.000 C 
ATOM     24  O   UNL     1      37.986  -2.858  19.382  0.00  0.00    +0.000 OA
ENDBRANCH  14  24
ENDBRANCH   1  17
BRANCH  11  25
ATOM     25  O   UNL     1      39.164   5.928  15.442  0.00  0.00    +0.000 OA
BRANCH  25  26
ATOM     26  C   UNL     1      40.483   6.006  15.869  0.00  0.00    +0.000 C 
BRANCH  26  27
ATOM     27  C   UNL     1      40.641   6.161  17.333  0.00  0.00    +0.000 A 
ATOM     28  C   UNL     1      39.625   6.031  18.235  0.00  0.00    +0.000 A 
ATOM     29  C   UNL     1      39.894   6.197  19.564  0.00  0.00    +0.000 A 
ATOM     30  C   UNL     1      41.143   6.489  20.052  0.00  0.00    +0.000 A 
ATOM     31  C   UNL     1      42.184   6.624  19.145  0.00  0.00    +0.000 A 
ATOM     32  C   UNL     1      41.896   6.454  17.806  0.00  0.00    +0.000 A 
ENDBRANCH  26  27
ENDBRANCH  25  26
ENDBRANCH  11  25
TORSDOF 6
ENDMDL
MODEL 2
REMARK VINA RESULT:      -8.6      3.835      6.333
REMARK  Name = 
REMARK  6 active torsions:
REMARK  status: ('A' for Active; 'I' for Inactive)
REMARK    1  A    between atoms: O_2  and  C_3
REMARK    2  A    between atoms: C_6  and  C_7
REMARK    3  A    between atoms: C_17  and  O_18
REMARK    4  A    between atoms: O_18  and  C_19
REMARK    5  A    between atoms: C_19  and  C_20
REMARK    6  A    between atoms: C_29  and  C_30
REMARK                            x       y       z     vdW  Elec       q    Type
REMARK                         _______ _______ _______ _____ _____    ______ ____
ROOT
ATOM      1  C   UNL     1      37.198  -3.212  14.099  0.00  0.00    +0.000 C 
ATOM      2  N   UNL     1      37.526  -3.843  15.478  0.00  0.00    +0.000 NA
ATOM      3  C   UNL     1      38.172  -3.006  16.359  0.00  0.00    +0.000 C 
ATOM      4  C   UNL     1      39.657  -2.940  16.053  0.00  0.00    +0.000 C 
ATOM      5  C   UNL     1      39.674  -2.694  14.579  0.00  0.00    +0.000 A 
ATOM      6  C   UNL     1      38.687  -2.791  13.724  0.00  0.00    +0.000 A 
ATOM      7  N   UNL     1      39.083  -2.488  12.460  0.00  0.00    +0.000 NA
ATOM      8  C   UNL     1      40.388  -2.182  12.511  0.00  0.00    +0.000 A 
ATOM      9  C   UNL     1      41.335  -1.798  11.565  0.00  0.00    +0.000 A 
ATOM     10  C   UNL     1      42.631  -1.553  11.964  0.00  0.00    +0.000 A 
ATOM     11  C   UNL     1      43.058  -1.664  13.268  0.00  0.00    +0.000 A 
ATOM     12  C   UNL     1      42.105  -2.044  14.184  0.00  0.00    +0.000 A 
ATOM     13  C   UNL     1      40.783  -2.304  13.828  0.00  0.00    +0.000 A 
ENDROOT
BRANCH   1  17
ATOM     14  C   UNL     1      35.738   0.593  15.652  0.00  0.00    +0.000 A 
ATOM     15  C   UNL     1      36.551   0.558  14.542  0.00  0.00    +0.000 A 
ATOM     16  C   UNL     1      37.016  -0.639  14.046  0.00  0.00    +0.000 A 
ATOM     17  C   UNL     1      36.709  -1.775  14.600  0.00  0.00    +0.000 A 
ATOM     18  C   UNL     1      35.890  -1.817  15.725  0.00  0.00    +0.000 A 
ATOM     19  C   UNL     1      35.428  -0.624  16.219  0.00  0.00    +0.000 A 
BRANCH  19  20
ATOM     20  C   UNL     1      34.535  -0.556  17.434  0.00  0.00    +0.000 C 
ATOM     21  C   UNL     1      35.455  -0.613  18.633  0.00  0.00    +0.000 C 
ATOM     22  C   UNL     1      33.562  -1.718  17.450  0.00  0.00    +0.000 C 
ENDBRANCH  19  20
BRANCH  14  24
ATOM     23  C   UNL     1      36.137   2.810  16.611  0.00  0.00    +0.000 C 
ATOM     24  O   UNL     1      35.246   1.795  16.183  0.00  0.00    +0.000 OA
ENDBRANCH  14  24
ENDBRANCH   1  17
BRANCH  11  25
ATOM     25  O   UNL     1      44.387  -1.404  13.635  0.00  0.00    +0.000 OA
BRANCH  25  26
ATOM     26  C   UNL     1      45.155  -2.247  14.426  0.00  0.00    +0.000 C 
BRANCH  26  27
ATOM     27  C   UNL     1      45.465  -1.708  15.769  0.00  0.00    +0.000 A 
ATOM     28  C   UNL     1      45.323  -0.398  16.125  0.00  0.00    +0.000 A 
ATOM     29  C   UNL     1      45.642  -0.018  17.397  0.00  0.00    +0.000 A 
ATOM     30  C   UNL     1      46.102  -0.888  18.354  0.00  0.00    +0.000 A 
ATOM     31  C   UNL     1      46.250  -2.223  18.006  0.00  0.00    +0.000 A 
ATOM     32  C   UNL     1      45.925  -2.591  16.715  0.00  0.00    +0.000 A 
ENDBRANCH  26  27
ENDBRANCH  25  26
ENDBRANCH  11  25
TORSDOF 6
ENDMDL
MODEL 3
REMARK VINA RESULT:      -8.5      3.799      6.636
REMARK  Name = 
REMARK  6 active torsions:
REMARK  status: ('A' for Active; 'I' for Inactive)
REMARK    1  A    between atoms: O_2  and  C_3
REMARK    2  A    between atoms: C_6  and  C_7
REMARK    3  A    between atoms: C_17  and  O_18
REMARK    4  A    between atoms: O_18  and  C_19
REMARK    5  A    between atoms: C_19  and  C_20
REMARK    6  A    between atoms: C_29  and  C_30
REMARK                            x       y       z     vdW  Elec       q    Type
REMARK                         _______ _______ _______ _____ _____    ______ ____
ROOT
ATOM      1  C   UNL     1      36.153  -3.008  15.572  0.00  0.00    +0.000 C 
ATOM      2  N   UNL     1      36.669  -3.338  16.999  0.00  0.00    +0.000 NA
ATOM      3  C   UNL     1      37.531  -2.409  17.532  0.00  0.00    +0.000 C 
ATOM      4  C   UNL     1      38.938  -2.604  16.996  0.00  0.00    +0.000 C 
ATOM      5  C   UNL     1      38.711  -2.712  15.523  0.00  0.00    +0.000 A 
ATOM      6  C   UNL     1      37.581  -2.879  14.881  0.00  0.00    +0.000 A 
ATOM      7  N   UNL     1      37.769  -2.931  13.536  0.00  0.00    +0.000 NA
ATOM      8  C   UNL     1      39.083  -2.790  13.308  0.00  0.00    +0.000 A 
ATOM      9  C   UNL     1      39.875  -2.760  12.163  0.00  0.00    +0.000 A 
ATOM     10  C   UNL     1      41.237  -2.595  12.285  0.00  0.00    +0.000 A 
ATOM     11  C   UNL     1      41.880  -2.453  13.494  0.00  0.00    +0.000 A 
ATOM     12  C   UNL     1      41.078  -2.486  14.610  0.00  0.00    +0.000 A 
ATOM     13  C   UNL     1      39.696  -2.651  14.537  0.00  0.00    +0.000 A 
ENDROOT
BRANCH   1  17
ATOM     14  C   UNL     1      35.576   1.302  15.900  0.00  0.00    +0.000 A 
ATOM     15  C   UNL     1      34.972   0.447  16.794  0.00  0.00    +0.000 A 
ATOM     16  C   UNL     1      35.150  -0.915  16.697  0.00  0.00    +0.000 A 
ATOM     17  C   UNL     1      35.888  -1.444  15.766  0.00  0.00    +0.000 A 
ATOM     18  C   UNL     1      36.530  -0.641  14.827  0.00  0.00    +0.000 A 
ATOM     19  C   UNL     1      36.352   0.715  14.924  0.00  0.00    +0.000 A 
BRANCH  19  20
ATOM     20  C   UNL     1      37.002   1.676  13.958  0.00  0.00    +0.000 C 
ATOM     21  C   UNL     1      36.962   1.001  12.606  0.00  0.00    +0.000 C 
ATOM     22  C   UNL     1      38.432   1.966  14.370  0.00  0.00    +0.000 C 
ENDBRANCH  19  20
BRANCH  14  24
ATOM     23  C   UNL     1      34.224   3.306  15.512  0.00  0.00    +0.000 C 
ATOM     24  O   UNL     1      35.416   2.694  15.970  0.00  0.00    +0.000 OA
ENDBRANCH  14  24
ENDBRANCH   1  17
BRANCH  11  25
ATOM     25  O   UNL     1      43.271  -2.286  13.576  0.00  0.00    +0.000 OA
BRANCH  25  26
ATOM     26  C   UNL     1      43.890  -1.118  14.002  0.00  0.00    +0.000 C 
BRANCH  26  27
ATOM     27  C   UNL     1      44.698  -1.272  15.233  0.00  0.00    +0.000 A 
ATOM     28  C   UNL     1      45.237  -2.452  15.658  0.00  0.00    +0.000 A 
ATOM     29  C   UNL     1      45.966  -2.469  16.813  0.00  0.00    +0.000 A 
ATOM     30  C   UNL     1      46.191  -1.355  17.582  0.00  0.00    +0.000 A 
ATOM     31  C   UNL     1      45.649  -0.150  17.161  0.00  0.00    +0.000 A 
ATOM     32  C   UNL     1      44.914  -0.148  15.992  0.00  0.00    +0.000 A 
ENDBRANCH  26  27
ENDBRANCH  25  26
ENDBRANCH  11  25
TORSDOF 6
ENDMDL
MODEL 4
REMARK VINA RESULT:      -8.0      1.761      2.797
REMARK  Name = 
REMARK  6 active torsions:
REMARK  status: ('A' for Active; 'I' for Inactive)
REMARK    1  A    between atoms: O_2  and  C_3
REMARK    2  A    between atoms: C_6  and  C_7
REMARK    3  A    between atoms: C_17  and  O_18
REMARK    4  A    between atoms: O_18  and  C_19
REMARK    5  A    between atoms: C_19  and  C_20
REMARK    6  A    between atoms: C_29  and  C_30
REMARK                            x       y       z     vdW  Elec       q    Type
REMARK                         _______ _______ _______ _____ _____    ______ ____
ROOT
ATOM      1  C   UNL     1      37.546   0.099  12.687  0.00  0.00    +0.000 C 
ATOM      2  N   UNL     1      38.937  -0.502  13.025  0.00  0.00    +0.000 NA
ATOM      3  C   UNL     1      39.366  -0.280  14.313  0.00  0.00    +0.000 C 
ATOM      4  C   UNL     1      39.951   1.114  14.456  0.00  0.00    +0.000 C 
ATOM      5  C   UNL     1      38.907   1.971  13.816  0.00  0.00    +0.000 A 
ATOM      6  C   UNL     1      37.891   1.604  13.075  0.00  0.00    +0.000 A 
ATOM      7  N   UNL     1      37.153   2.669  12.668  0.00  0.00    +0.000 NA
ATOM      8  C   UNL     1      37.726   3.771  13.175  0.00  0.00    +0.000 A 
ATOM      9  C   UNL     1      37.441   5.133  13.112  0.00  0.00    +0.000 A 
ATOM     10  C   UNL     1      38.259   6.028  13.767  0.00  0.00    +0.000 A 
ATOM     11  C   UNL     1      39.364   5.652  14.497  0.00  0.00    +0.000 A 
ATOM     12  C   UNL     1      39.626   4.303  14.545  0.00  0.00    +0.000 A 
ATOM     13  C   UNL     1      38.827   3.361  13.898  0.00  0.00    +0.000 A 
ENDROOT
BRANCH   1  17
ATOM     14  C   UNL     1      35.513  -1.183  16.326  0.00  0.00    +0.000 A 
ATOM     15  C   UNL     1      35.577   0.152  15.995  0.00  0.00    +0.000 A 
ATOM     16  C   UNL     1      36.217   0.564  14.848  0.00  0.00    +0.000 A 
ATOM     17  C   UNL     1      36.782  -0.282  14.038  0.00  0.00    +0.000 A 
ATOM     18  C   UNL     1      36.757  -1.647  14.307  0.00  0.00    +0.000 A 
ATOM     19  C   UNL     1      36.119  -2.058  15.450  0.00  0.00    +0.000 A 
BRANCH  19  20
ATOM     20  C   UNL     1      36.034  -3.513  15.837  0.00  0.00    +0.000 C 
ATOM     21  C   UNL     1      37.400  -3.887  16.369  0.00  0.00    +0.000 C 
ATOM     22  C   UNL     1      35.674  -4.367  14.638  0.00  0.00    +0.000 C 
ENDBRANCH  19  20
BRANCH  14  24
ATOM     23  C   UNL     1      33.456  -1.720  17.540  0.00  0.00    +0.000 C 
ATOM     24  O   UNL     1      34.868  -1.637  17.487  0.00  0.00    +0.000 OA
ENDBRANCH  14  24
ENDBRANCH   1  17
BRANCH  11  25
ATOM     25  O   UNL     1      40.172   6.594  15.152  0.00  0.00    +0.000 OA
BRANCH  25  26
ATOM     26  C   UNL     1      41.321   6.274  15.863  0.00  0.00    +0.000 C 
BRANCH  26  27
ATOM     27  C   UNL     1      41.153   6.302  17.334  0.00  0.00    +0.000 A 
ATOM     28  C   UNL     1      42.150   6.603  18.217  0.00  0.00    +0.000 A 
ATOM     29  C   UNL     1      41.874   6.596  19.555  0.00  0.00    +0.000 A 
ATOM     30  C   UNL     1      40.636   6.302  20.070  0.00  0.00    +0.000 A 
ATOM     31  C   UNL     1      39.615   5.995  19.183  0.00  0.00    +0.000 A 
ATOM     32  C   UNL     1      39.909   6.005  17.835  0.00  0.00    +0.000 A 
ENDBRANCH  26  27
ENDBRANCH  25  26
ENDBRANCH  11  25
TORSDOF 6
ENDMDL
MODEL 5
REMARK VINA RESULT:      -8.0      3.848      7.972
REMARK  Name = 
REMARK  6 active torsions:
REMARK  status: ('A' for Active; 'I' for Inactive)
REMARK    1  A    between atoms: O_2  and  C_3
REMARK    2  A    between atoms: C_6  and  C_7
REMARK    3  A    between atoms: C_17  and  O_18
REMARK    4  A    between atoms: O_18  and  C_19
REMARK    5  A    between atoms: C_19  and  C_20
REMARK    6  A    between atoms: C_29  and  C_30
REMARK                            x       y       z     vdW  Elec       q    Type
REMARK                         _______ _______ _______ _____ _____    ______ ____
ROOT
ATOM      1  C   UNL     1      35.865  -2.977  15.904  0.00  0.00    +0.000 C 
ATOM      2  N   UNL     1      36.410  -3.283  17.325  0.00  0.00    +0.000 NA
ATOM      3  C   UNL     1      37.291  -2.350  17.821  0.00  0.00    +0.000 C 
ATOM      4  C   UNL     1      38.684  -2.567  17.258  0.00  0.00    +0.000 C 
ATOM      5  C   UNL     1      38.423  -2.702  15.792  0.00  0.00    +0.000 A 
ATOM      6  C   UNL     1      37.279  -2.872  15.179  0.00  0.00    +0.000 A 
ATOM      7  N   UNL     1      37.435  -2.952  13.832  0.00  0.00    +0.000 NA
ATOM      8  C   UNL     1      38.745  -2.826  13.572  0.00  0.00    +0.000 A 
ATOM      9  C   UNL     1      39.512  -2.825  12.409  0.00  0.00    +0.000 A 
ATOM     10  C   UNL     1      40.877  -2.668  12.497  0.00  0.00    +0.000 A 
ATOM     11  C   UNL     1      41.548  -2.508  13.689  0.00  0.00    +0.000 A 
ATOM     12  C   UNL     1      40.771  -2.512  14.824  0.00  0.00    +0.000 A 
ATOM     13  C   UNL     1      39.386  -2.668  14.784  0.00  0.00    +0.000 A 
ENDROOT
BRANCH   1  17
ATOM     14  C   UNL     1      35.337   1.344  16.166  0.00  0.00    +0.000 A 
ATOM     15  C   UNL     1      34.699   0.507  17.054  0.00  0.00    +0.000 A 
ATOM     16  C   UNL     1      34.861  -0.857  16.978  0.00  0.00    +0.000 A 
ATOM     17  C   UNL     1      35.615  -1.408  16.073  0.00  0.00    +0.000 A 
ATOM     18  C   UNL     1      36.292  -0.625  15.141  0.00  0.00    +0.000 A 
ATOM     19  C   UNL     1      36.130   0.736  15.218  0.00  0.00    +0.000 A 
BRANCH  19  20
ATOM     20  C   UNL     1      36.817   1.676  14.257  0.00  0.00    +0.000 C 
ATOM     21  C   UNL     1      36.793   0.990  12.910  0.00  0.00    +0.000 C 
ATOM     22  C   UNL     1      38.242   1.944  14.696  0.00  0.00    +0.000 C 
ENDBRANCH  19  20
BRANCH  14  24
ATOM     23  C   UNL     1      34.153   3.382  15.503  0.00  0.00    +0.000 C 
ATOM     24  O   UNL     1      35.194   2.739  16.216  0.00  0.00    +0.000 OA
ENDBRANCH  14  24
ENDBRANCH   1  17
BRANCH  11  25
ATOM     25  O   UNL     1      42.942  -2.350  13.737  0.00  0.00    +0.000 OA
BRANCH  25  26
ATOM     26  C   UNL     1      43.738  -2.122  12.623  0.00  0.00    +0.000 C 
BRANCH  26  27
ATOM     27  C   UNL     1      44.573  -3.277  12.226  0.00  0.00    +0.000 A 
ATOM     28  C   UNL     1      45.655  -3.724  12.928  0.00  0.00    +0.000 A 
ATOM     29  C   UNL     1      46.349  -4.804  12.460  0.00  0.00    +0.000 A 
ATOM     30  C   UNL     1      46.019  -5.475  11.310  0.00  0.00    +0.000 A 
ATOM     31  C   UNL     1      44.922  -5.031  10.586  0.00  0.00    +0.000 A 
ATOM     32  C   UNL     1      44.230  -3.939  11.072  0.00  0.00    +0.000 A 
ENDBRANCH  26  27
ENDBRANCH  25  26
ENDBRANCH  11  25
TORSDOF 6
ENDMDL
MODEL 6
REMARK VINA RESULT:      -7.7      2.644      4.081
REMARK  Name = 
REMARK  6 active torsions:
REMARK  status: ('A' for Active; 'I' for Inactive)
REMARK    1  A    between atoms: O_2  and  C_3
REMARK    2  A    between atoms: C_6  and  C_7
REMARK    3  A    between atoms: C_17  and  O_18
REMARK    4  A    between atoms: O_18  and  C_19
REMARK    5  A    between atoms: C_19  and  C_20
REMARK    6  A    between atoms: C_29  and  C_30
REMARK                            x       y       z     vdW  Elec       q    Type
REMARK                         _______ _______ _______ _____ _____    ______ ____
ROOT
ATOM      1  C   UNL     1      37.690   1.720  11.100  0.00  0.00    +0.000 C 
ATOM      2  N   UNL     1      38.855   2.667  10.705  0.00  0.00    +0.000 NA
ATOM      3  C   UNL     1      39.996   2.527  11.461  0.00  0.00    +0.000 C 
ATOM      4  C   UNL     1      39.864   3.265  12.781  0.00  0.00    +0.000 C 
ATOM      5  C   UNL     1      38.531   2.807  13.277  0.00  0.00    +0.000 A 
ATOM      6  C   UNL     1      37.595   2.164  12.626  0.00  0.00    +0.000 A 
ATOM      7  N   UNL     1      36.514   1.915  13.411  0.00  0.00    +0.000 NA
ATOM      8  C   UNL     1      36.774   2.424  14.624  0.00  0.00    +0.000 A 
ATOM      9  C   UNL     1      36.072   2.483  15.826  0.00  0.00    +0.000 A 
ATOM     10  C   UNL     1      36.646   3.099  16.916  0.00  0.00    +0.000 A 
ATOM     11  C   UNL     1      37.898   3.671  16.894  0.00  0.00    +0.000 A 
ATOM     12  C   UNL     1      38.572   3.600  15.697  0.00  0.00    +0.000 A 
ATOM     13  C   UNL     1      38.032   2.989  14.567  0.00  0.00    +0.000 A 
ENDROOT
BRANCH   1  17
ATOM     14  C   UNL     1      39.863  -1.961  11.965  0.00  0.00    +0.000 A 
ATOM     15  C   UNL     1      40.126  -1.248  10.817  0.00  0.00    +0.000 A 
ATOM     16  C   UNL     1      39.444  -0.085  10.537  0.00  0.00    +0.000 A 
ATOM     17  C   UNL     1      38.532   0.383  11.337  0.00  0.00    +0.000 A 
ATOM     18  C   UNL     1      38.214  -0.284  12.518  0.00  0.00    +0.000 A 
ATOM     19  C   UNL     1      38.894  -1.442  12.796  0.00  0.00    +0.000 A 
BRANCH  19  20
ATOM     20  C   UNL     1      38.626  -2.243  14.046  0.00  0.00    +0.000 C 
ATOM     21  C   UNL     1      37.520  -3.213  13.694  0.00  0.00    +0.000 C 
ATOM     22  C   UNL     1      38.201  -1.336  15.184  0.00  0.00    +0.000 C 
ENDBRANCH  19  20
BRANCH  14  24
ATOM     23  C   UNL     1      41.617  -3.599  11.479  0.00  0.00    +0.000 C 
ATOM     24  O   UNL     1      40.540  -3.149  12.281  0.00  0.00    +0.000 OA
ENDBRANCH  14  24
ENDBRANCH   1  17
BRANCH  11  25
ATOM     25  O   UNL     1      38.449   4.289  18.027  0.00  0.00    +0.000 OA
BRANCH  25  26
ATOM     26  C   UNL     1      38.639   5.658  18.153  0.00  0.00    +0.000 C 
BRANCH  26  27
ATOM     27  C   UNL     1      40.030   6.053  18.470  0.00  0.00    +0.000 A 
ATOM     28  C   UNL     1      41.020   6.200  17.542  0.00  0.00    +0.000 A 
ATOM     29  C   UNL     1      42.268   6.569  17.957  0.00  0.00    +0.000 A 
ATOM     30  C   UNL     1      42.589   6.807  19.270  0.00  0.00    +0.000 A 
ATOM     31  C   UNL     1      41.591   6.662  20.223  0.00  0.00    +0.000 A 
ATOM     32  C   UNL     1      40.336   6.287  19.788  0.00  0.00    +0.000 A 
ENDBRANCH  26  27
ENDBRANCH  25  26
ENDBRANCH  11  25
TORSDOF 6
ENDMDL
MODEL 7
REMARK VINA RESULT:      -7.5      3.155      8.605
REMARK  Name = 
REMARK  6 active torsions:
REMARK  status: ('A' for Active; 'I' for Inactive)
REMARK    1  A    between atoms: O_2  and  C_3
REMARK    2  A    between atoms: C_6  and  C_7
REMARK    3  A    between atoms: C_17  and  O_18
REMARK    4  A    between atoms: O_18  and  C_19
REMARK    5  A    between atoms: C_19  and  C_20
REMARK    6  A    between atoms: C_29  and  C_30
REMARK                            x       y       z     vdW  Elec       q    Type
REMARK                         _______ _______ _______ _____ _____    ______ ____
ROOT
ATOM      1  C   UNL     1      39.050   7.640  17.642  0.00  0.00    +0.000 C 
ATOM      2  N   UNL     1      38.765   6.876  18.963  0.00  0.00    +0.000 NA
ATOM      3  C   UNL     1      39.368   5.643  19.060  0.00  0.00    +0.000 C 
ATOM      4  C   UNL     1      38.577   4.593  18.301  0.00  0.00    +0.000 C 
ATOM      5  C   UNL     1      38.346   5.253  16.981  0.00  0.00    +0.000 A 
ATOM      6  C   UNL     1      38.525   6.508  16.653  0.00  0.00    +0.000 A 
ATOM      7  N   UNL     1      38.207   6.740  15.353  0.00  0.00    +0.000 NA
ATOM      8  C   UNL     1      37.805   5.575  14.824  0.00  0.00    +0.000 A 
ATOM      9  C   UNL     1      37.363   5.178  13.564  0.00  0.00    +0.000 A 
ATOM     10  C   UNL     1      37.017   3.862  13.350  0.00  0.00    +0.000 A 
ATOM     11  C   UNL     1      37.083   2.892  14.324  0.00  0.00    +0.000 A 
ATOM     12  C   UNL     1      37.522   3.306  15.560  0.00  0.00    +0.000 A 
ATOM     13  C   UNL     1      37.883   4.627  15.824  0.00  0.00    +0.000 A 
ENDROOT
BRANCH   1  17
ATOM     14  C   UNL     1      43.326   6.793  17.513  0.00  0.00    +0.000 A 
ATOM     15  C   UNL     1      42.564   6.718  16.369  0.00  0.00    +0.000 A 
ATOM     16  C   UNL     1      41.214   6.985  16.402  0.00  0.00    +0.000 A 
ATOM     17  C   UNL     1      40.608   7.314  17.504  0.00  0.00    +0.000 A 
ATOM     18  C   UNL     1      41.314   7.409  18.700  0.00  0.00    +0.000 A 
ATOM     19  C   UNL     1      42.659   7.144  18.667  0.00  0.00    +0.000 A 
BRANCH  19  20
ATOM     20  C   UNL     1      43.518   7.218  19.906  0.00  0.00    +0.000 C 
ATOM     21  C   UNL     1      42.861   6.314  20.925  0.00  0.00    +0.000 C 
ATOM     22  C   UNL     1      43.593   8.641  20.422  0.00  0.00    +0.000 C 
ENDBRANCH  19  20
BRANCH  14  24
ATOM     23  C   UNL     1      45.478   6.735  16.347  0.00  0.00    +0.000 C 
ATOM     24  O   UNL     1      44.704   6.529  17.515  0.00  0.00    +0.000 OA
ENDBRANCH  14  24
ENDBRANCH   1  17
BRANCH  11  25
ATOM     25  O   UNL     1      36.722   1.560  14.067  0.00  0.00    +0.000 OA
BRANCH  25  26
ATOM     26  C   UNL     1      37.247   0.467  14.743  0.00  0.00    +0.000 C 
BRANCH  26  27
ATOM     27  C   UNL     1      36.261  -0.272  15.563  0.00  0.00    +0.000 A 
ATOM     28  C   UNL     1      35.484   0.296  16.531  0.00  0.00    +0.000 A 
ATOM     29  C   UNL     1      34.608  -0.490  17.224  0.00  0.00    +0.000 A 
ATOM     30  C   UNL     1      34.460  -1.836  17.001  0.00  0.00    +0.000 A 
ATOM     31  C   UNL     1      35.244  -2.426  16.020  0.00  0.00    +0.000 A 
ATOM     32  C   UNL     1      36.125  -1.618  15.329  0.00  0.00    +0.000 A 
ENDBRANCH  26  27
ENDBRANCH  25  26
ENDBRANCH  11  25
TORSDOF 6
ENDMDL
MODEL 8
REMARK VINA RESULT:      -7.4      3.821      9.572
REMARK  Name = 
REMARK  6 active torsions:
REMARK  status: ('A' for Active; 'I' for Inactive)
REMARK    1  A    between atoms: O_2  and  C_3
REMARK    2  A    between atoms: C_6  and  C_7
REMARK    3  A    between atoms: C_17  and  O_18
REMARK    4  A    between atoms: O_18  and  C_19
REMARK    5  A    between atoms: C_19  and  C_20
REMARK    6  A    between atoms: C_29  and  C_30
REMARK                            x       y       z     vdW  Elec       q    Type
REMARK                         _______ _______ _______ _____ _____    ______ ____
ROOT
ATOM      1  C   UNL     1      41.650   8.758  18.914  0.00  0.00    +0.000 C 
ATOM      2  N   UNL     1      40.507   9.335  19.792  0.00  0.00    +0.000 NA
ATOM      3  C   UNL     1      39.914   8.427  20.639  0.00  0.00    +0.000 C 
ATOM      4  C   UNL     1      38.896   7.580  19.898  0.00  0.00    +0.000 C 
ATOM      5  C   UNL     1      39.656   7.145  18.687  0.00  0.00    +0.000 A 
ATOM      6  C   UNL     1      40.798   7.597  18.235  0.00  0.00    +0.000 A 
ATOM      7  N   UNL     1      41.182   6.954  17.101  0.00  0.00    +0.000 NA
ATOM      8  C   UNL     1      40.236   6.046  16.815  0.00  0.00    +0.000 A 
ATOM      9  C   UNL     1      40.065   5.104  15.804  0.00  0.00    +0.000 A 
ATOM     10  C   UNL     1      38.944   4.303  15.806  0.00  0.00    +0.000 A 
ATOM     11  C   UNL     1      37.961   4.376  16.767  0.00  0.00    +0.000 A 
ATOM     12  C   UNL     1      38.151   5.313  17.756  0.00  0.00    +0.000 A 
ATOM     13  C   UNL     1      39.269   6.146  17.795  0.00  0.00    +0.000 A 
ENDROOT
BRANCH   1  17
ATOM     14  C   UNL     1      43.709   6.499  22.025  0.00  0.00    +0.000 A 
ATOM     15  C   UNL     1      42.964   5.849  21.067  0.00  0.00    +0.000 A 
ATOM     16  C   UNL     1      42.312   6.556  20.081  0.00  0.00    +0.000 A 
ATOM     17  C   UNL     1      42.370   7.853  20.016  0.00  0.00    +0.000 A 
ATOM     18  C   UNL     1      43.105   8.578  20.951  0.00  0.00    +0.000 A 
ATOM     19  C   UNL     1      43.755   7.874  21.932  0.00  0.00    +0.000 A 
BRANCH  19  20
ATOM     20  C   UNL     1      44.578   8.560  22.994  0.00  0.00    +0.000 C 
ATOM     21  C   UNL     1      43.891   9.879  23.269  0.00  0.00    +0.000 C 
ATOM     22  C   UNL     1      45.997   8.786  22.511  0.00  0.00    +0.000 C 
ENDBRANCH  19  20
BRANCH  14  24
ATOM     23  C   UNL     1      45.404   4.877  22.725  0.00  0.00    +0.000 C 
ATOM     24  O   UNL     1      44.387   5.810  23.042  0.00  0.00    +0.000 OA
ENDBRANCH  14  24
ENDBRANCH   1  17
BRANCH  11  25
ATOM     25  O   UNL     1      36.833   3.541  16.735  0.00  0.00    +0.000 OA
BRANCH  25  26
ATOM     26  C   UNL     1      36.394   2.869  15.603  0.00  0.00    +0.000 C 
BRANCH  26  27
ATOM     27  C   UNL     1      36.088   1.438  15.825  0.00  0.00    +0.000 A 
ATOM     28  C   UNL     1      36.695   0.409  15.165  0.00  0.00    +0.000 A 
ATOM     29  C   UNL     1      36.328  -0.874  15.456  0.00  0.00    +0.000 A 
ATOM     30  C   UNL     1      35.371  -1.194  16.387  0.00  0.00    +0.000 A 
ATOM     31  C   UNL     1      34.747  -0.158  17.065  0.00  0.00    +0.000 A 
ATOM     32  C   UNL     1      35.129   1.134  16.759  0.00  0.00    +0.000 A 
ENDBRANCH  26  27
ENDBRANCH  25  26
ENDBRANCH  11  25
TORSDOF 6
ENDMDL
MODEL 9
REMARK VINA RESULT:      -7.4     25.003     28.265
REMARK  Name = 
REMARK  6 active torsions:
REMARK  status: ('A' for Active; 'I' for Inactive)
REMARK    1  A    between atoms: O_2  and  C_3
REMARK    2  A    between atoms: C_6  and  C_7
REMARK    3  A    between atoms: C_17  and  O_18
REMARK    4  A    between atoms: O_18  and  C_19
REMARK    5  A    between atoms: C_19  and  C_20
REMARK    6  A    between atoms: C_29  and  C_30
REMARK                            x       y       z     vdW  Elec       q    Type
REMARK                         _______ _______ _______ _____ _____    ______ ____
ROOT
ATOM      1  C   UNL     1      25.093  16.872  38.186  0.00  0.00    +0.000 C 
ATOM      2  N   UNL     1      26.184  17.970  38.304  0.00  0.00    +0.000 NA
ATOM      3  C   UNL     1      27.406  17.631  37.770  0.00  0.00    +0.000 C 
ATOM      4  C   UNL     1      28.197  16.765  38.733  0.00  0.00    +0.000 C 
ATOM      5  C   UNL     1      27.198  15.726  39.129  0.00  0.00    +0.000 A 
ATOM      6  C   UNL     1      25.904  15.720  38.928  0.00  0.00    +0.000 A 
ATOM      7  N   UNL     1      25.320  14.602  39.433  0.00  0.00    +0.000 NA
ATOM      8  C   UNL     1      26.290  13.857  39.984  0.00  0.00    +0.000 A 
ATOM      9  C   UNL     1      26.321  12.630  40.643  0.00  0.00    +0.000 A 
ATOM     10  C   UNL     1      27.523  12.135  41.098  0.00  0.00    +0.000 A 
ATOM     11  C   UNL     1      28.724  12.790  40.939  0.00  0.00    +0.000 A 
ATOM     12  C   UNL     1      28.669  13.998  40.285  0.00  0.00    +0.000 A 
ATOM     13  C   UNL     1      27.477  14.540  39.807  0.00  0.00    +0.000 A 
ENDROOT
BRANCH   1  17
ATOM     14  C   UNL     1      25.860  15.792  34.030  0.00  0.00    +0.000 A 
ATOM     15  C   UNL     1      25.993  14.856  35.031  0.00  0.00    +0.000 A 
ATOM     16  C   UNL     1      25.752  15.190  36.345  0.00  0.00    +0.000 A 
ATOM     17  C   UNL     1      25.394  16.390  36.692  0.00  0.00    +0.000 A 
ATOM     18  C   UNL     1      25.239  17.389  35.734  0.00  0.00    +0.000 A 
ATOM     19  C   UNL     1      25.479  17.057  34.425  0.00  0.00    +0.000 A 
BRANCH  19  20
ATOM     20  C   UNL     1      25.341  18.062  33.309  0.00  0.00    +0.000 C 
ATOM     21  C   UNL     1      25.816  19.383  33.873  0.00  0.00    +0.000 C 
ATOM     22  C   UNL     1      23.899  18.163  32.852  0.00  0.00    +0.000 C 
ENDBRANCH  19  20
BRANCH  14  24
ATOM     23  C   UNL     1      25.226  14.621  31.976  0.00  0.00    +0.000 C 
ATOM     24  O   UNL     1      26.097  15.487  32.681  0.00  0.00    +0.000 OA
ENDBRANCH  14  24
ENDBRANCH   1  17
BRANCH  11  25
ATOM     25  O   UNL     1      29.928  12.251  41.416  0.00  0.00    +0.000 OA
BRANCH  25  26
ATOM     26  C   UNL     1      30.553  11.137  40.871  0.00  0.00    +0.000 C 
BRANCH  26  27
ATOM     27  C   UNL     1      31.732  11.449  40.034  0.00  0.00    +0.000 A 
ATOM     28  C   UNL     1      33.023  11.403  40.474  0.00  0.00    +0.000 A 
ATOM     29  C   UNL     1      34.031  11.713  39.605  0.00  0.00    +0.000 A 
ATOM     30  C   UNL     1      33.819  12.072  38.297  0.00  0.00    +0.000 A 
ATOM     31  C   UNL     1      32.511  12.122  37.838  0.00  0.00    +0.000 A 
ATOM     32  C   UNL     1      31.504  11.807  38.728  0.00  0.00    +0.000 A 
ENDBRANCH  26  27
ENDBRANCH  25  26
ENDBRANCH  11  25
TORSDOF 6
ENDMDL
MODEL 10
REMARK VINA RESULT:      -7.3      4.870      9.314
REMARK  Name = 
REMARK  6 active torsions:
REMARK  status: ('A' for Active; 'I' for Inactive)
REMARK    1  A    between atoms: O_2  and  C_3
REMARK    2  A    between atoms: C_6  and  C_7
REMARK    3  A    between atoms: C_17  and  O_18
REMARK    4  A    between atoms: O_18  and  C_19
REMARK    5  A    between atoms: C_19  and  C_20
REMARK    6  A    between atoms: C_29  and  C_30
REMARK                            x       y       z     vdW  Elec       q    Type
REMARK                         _______ _______ _______ _____ _____    ______ ____
ROOT
ATOM      1  C   UNL     1      40.936   6.250  19.818  0.00  0.00    +0.000 C 
ATOM      2  N   UNL     1      42.119   6.838  19.003  0.00  0.00    +0.000 NA
ATOM      3  C   UNL     1      41.772   7.827  18.112  0.00  0.00    +0.000 C 
ATOM      4  C   UNL     1      41.208   7.233  16.834  0.00  0.00    +0.000 C 
ATOM      5  C   UNL     1      40.205   6.252  17.349  0.00  0.00    +0.000 A 
ATOM      6  C   UNL     1      40.047   5.811  18.572  0.00  0.00    +0.000 A 
ATOM      7  N   UNL     1      39.024   4.921  18.659  0.00  0.00    +0.000 NA
ATOM      8  C   UNL     1      38.502   4.788  17.431  0.00  0.00    +0.000 A 
ATOM      9  C   UNL     1      37.459   4.039  16.892  0.00  0.00    +0.000 A 
ATOM     10  C   UNL     1      37.177   4.137  15.547  0.00  0.00    +0.000 A 
ATOM     11  C   UNL     1      37.877   4.949  14.682  0.00  0.00    +0.000 A 
ATOM     12  C   UNL     1      38.902   5.678  15.236  0.00  0.00    +0.000 A 
ATOM     13  C   UNL     1      39.225   5.611  16.591  0.00  0.00    +0.000 A 
ENDROOT
BRANCH   1  17
ATOM     14  C   UNL     1      39.050  10.076  20.726  0.00  0.00    +0.000 A 
ATOM     15  C   UNL     1      38.282   8.968  20.446  0.00  0.00    +0.000 A 
ATOM     16  C   UNL     1      38.870   7.757  20.158  0.00  0.00    +0.000 A 
ATOM     17  C   UNL     1      40.162   7.611  20.139  0.00  0.00    +0.000 A 
ATOM     18  C   UNL     1      41.002   8.687  20.414  0.00  0.00    +0.000 A 
ATOM     19  C   UNL     1      40.415   9.893  20.700  0.00  0.00    +0.000 A 
BRANCH  19  20
ATOM     20  C   UNL     1      41.232  11.123  21.011  0.00  0.00    +0.000 C 
ATOM     21  C   UNL     1      41.671  11.684  19.676  0.00  0.00    +0.000 C 
ATOM     22  C   UNL     1      42.434  10.768  21.863  0.00  0.00    +0.000 C 
ENDBRANCH  19  20
BRANCH  14  24
ATOM     23  C   UNL     1      37.849  12.086  20.012  0.00  0.00    +0.000 C 
ATOM     24  O   UNL     1      38.483  11.324  21.024  0.00  0.00    +0.000 OA
ENDBRANCH  14  24
ENDBRANCH   1  17
BRANCH  11  25
ATOM     25  O   UNL     1      37.558   5.023  13.318  0.00  0.00    +0.000 OA
BRANCH  25  26
ATOM     26  C   UNL     1      37.094   6.170  12.688  0.00  0.00    +0.000 C 
BRANCH  26  27
ATOM     27  C   UNL     1      35.914   6.785  13.336  0.00  0.00    +0.000 A 
ATOM     28  C   UNL     1      34.659   6.249  13.317  0.00  0.00    +0.000 A 
ATOM     29  C   UNL     1      33.646   6.911  13.952  0.00  0.00    +0.000 A 
ATOM     30  C   UNL     1      33.820   8.098  14.619  0.00  0.00    +0.000 A 
ATOM     31  C   UNL     1      35.091   8.653  14.645  0.00  0.00    +0.000 A 
ATOM     32  C   UNL     1      36.103   7.973  13.998  0.00  0.00    +0.000 A 
ENDBRANCH  26  27
ENDBRANCH  25  26
ENDBRANCH  11  25
TORSDOF 6
ENDMDL
