MODEL 1
REMARK VINA RESULT:      -7.3      0.000      0.000
REMARK  Name = 
REMARK  2 active torsions:
REMARK  status: ('A' for Active; 'I' for Inactive)
REMARK    1  A    between atoms: C_7  and  N_8
REMARK    2  A    between atoms: C_9  and  C_11
REMARK                            x       y       z     vdW  Elec       q    Type
REMARK                         _______ _______ _______ _____ _____    ______ ____
ROOT
ATOM      1  N   UNL     1      17.999  10.395  36.470  0.00  0.00    +0.000 NA
ATOM      2  C   UNL     1      17.520   9.723  35.345  0.00  0.00    +0.000 C 
ATOM      3  O   UNL     1      17.715   8.489  35.227  0.00  0.00    +0.000 OA
ENDROOT
BRANCH   2   4
ATOM      4  C   UNL     1      16.795  10.455  34.310  0.00  0.00    +0.000 A 
ATOM      5  N   UNL     1      16.894  10.318  32.993  0.00  0.00    +0.000 NA
ATOM      6  C   UNL     1      16.051  11.192  32.374  0.00  0.00    +0.000 A 
ATOM      7  C   UNL     1      15.752  11.476  31.058  0.00  0.00    +0.000 A 
ATOM      8  C   UNL     1      14.832  12.438  30.708  0.00  0.00    +0.000 A 
ATOM      9  C   UNL     1      14.195  13.134  31.701  0.00  0.00    +0.000 A 
ATOM     10  C   UNL     1      14.479  12.865  33.014  0.00  0.00    +0.000 A 
ATOM     11  C   UNL     1      15.406  11.898  33.359  0.00  0.00    +0.000 A 
ATOM     12  N   UNL     1      15.882  11.425  34.523  0.00  0.00    +0.000 NA
ENDBRANCH   2   4
BRANCH   1  19
ATOM     13  C   UNL     1      17.059  10.027  39.119  0.00  0.00    +0.000 C 
ATOM     14  C   UNL     1      18.571  10.578  38.769  0.00  0.00    +0.000 C 
ATOM     15  C   UNL     1      19.270   9.578  39.852  0.00  0.00    +0.000 C 
ATOM     16  C   UNL     1      20.504   9.026  39.239  0.00  0.00    +0.000 C 
ATOM     17  C   UNL     1      21.121   9.899  38.202  0.00  0.00    +0.000 C 
ATOM     18  C   UNL     1      20.224  10.123  37.035  0.00  0.00    +0.000 C 
ATOM     19  C   UNL     1      18.754   9.463  37.476  0.00  0.00    +0.000 C 
ENDBRANCH   1  19
TORSDOF 2
ENDMDL
MODEL 2
REMARK VINA RESULT:      -7.3      1.656      2.090
REMARK  Name = 
REMARK  2 active torsions:
REMARK  status: ('A' for Active; 'I' for Inactive)
REMARK    1  A    between atoms: C_7  and  N_8
REMARK    2  A    between atoms: C_9  and  C_11
REMARK                            x       y       z     vdW  Elec       q    Type
REMARK                         _______ _______ _______ _____ _____    ______ ____
ROOT
ATOM      1  N   UNL     1      17.394  11.405  36.450  0.00  0.00    +0.000 NA
ATOM      2  C   UNL     1      16.035  11.616  36.209  0.00  0.00    +0.000 C 
ATOM      3  O   UNL     1      15.212  11.508  37.149  0.00  0.00    +0.000 OA
ENDROOT
BRANCH   2   4
ATOM      4  C   UNL     1      15.577  11.958  34.865  0.00  0.00    +0.000 A 
ATOM      5  N   UNL     1      15.912  11.381  33.717  0.00  0.00    +0.000 NA
ATOM      6  C   UNL     1      15.270  12.000  32.686  0.00  0.00    +0.000 A 
ATOM      7  C   UNL     1      15.246  11.822  31.318  0.00  0.00    +0.000 A 
ATOM      8  C   UNL     1      14.484  12.614  30.490  0.00  0.00    +0.000 A 
ATOM      9  C   UNL     1      13.726  13.611  31.046  0.00  0.00    +0.000 A 
ATOM     10  C   UNL     1      13.736  13.802  32.402  0.00  0.00    +0.000 A 
ATOM     11  C   UNL     1      14.505  13.003  33.229  0.00  0.00    +0.000 A 
ATOM     12  N   UNL     1      14.715  12.949  34.554  0.00  0.00    +0.000 NA
ENDBRANCH   2   4
BRANCH   1  19
ATOM     13  C   UNL     1      19.150  12.998  38.005  0.00  0.00    +0.000 C 
ATOM     14  C   UNL     1      19.383  11.388  37.749  0.00  0.00    +0.000 C 
ATOM     15  C   UNL     1      19.714  11.107  39.323  0.00  0.00    +0.000 C 
ATOM     16  C   UNL     1      19.041   9.845  39.716  0.00  0.00    +0.000 C 
ATOM     17  C   UNL     1      18.823   8.887  38.597  0.00  0.00    +0.000 C 
ATOM     18  C   UNL     1      17.933   9.438  37.537  0.00  0.00    +0.000 C 
ATOM     19  C   UNL     1      17.711  11.044  37.940  0.00  0.00    +0.000 C 
ENDBRANCH   1  19
TORSDOF 2
ENDMDL
MODEL 3
REMARK VINA RESULT:      -6.9      1.702      7.329
REMARK  Name = 
REMARK  2 active torsions:
REMARK  status: ('A' for Active; 'I' for Inactive)
REMARK    1  A    between atoms: C_7  and  N_8
REMARK    2  A    between atoms: C_9  and  C_11
REMARK                            x       y       z     vdW  Elec       q    Type
REMARK                         _______ _______ _______ _____ _____    ______ ____
ROOT
ATOM      1  N   UNL     1      16.010  11.326  33.603  0.00  0.00    +0.000 NA
ATOM      2  C   UNL     1      15.687  11.627  34.927  0.00  0.00    +0.000 C 
ATOM      3  O   UNL     1      14.731  12.401  35.174  0.00  0.00    +0.000 OA
ENDROOT
BRANCH   2   4
ATOM      4  C   UNL     1      16.461  11.044  36.018  0.00  0.00    +0.000 A 
ATOM      5  N   UNL     1      16.069  10.816  37.267  0.00  0.00    +0.000 NA
ATOM      6  C   UNL     1      17.092  10.264  37.978  0.00  0.00    +0.000 A 
ATOM      7  C   UNL     1      17.242   9.837  39.281  0.00  0.00    +0.000 A 
ATOM      8  C   UNL     1      18.421   9.301  39.745  0.00  0.00    +0.000 A 
ATOM      9  C   UNL     1      19.479   9.191  38.882  0.00  0.00    +0.000 A 
ATOM     10  C   UNL     1      19.350   9.609  37.584  0.00  0.00    +0.000 A 
ATOM     11  C   UNL     1      18.162  10.147  37.124  0.00  0.00    +0.000 A 
ATOM     12  N   UNL     1      17.744  10.630  35.943  0.00  0.00    +0.000 NA
ENDBRANCH   2   4
BRANCH   1  19
ATOM     13  C   UNL     1      14.102   9.867  32.097  0.00  0.00    +0.000 C 
ATOM     14  C   UNL     1      15.284  10.782  31.407  0.00  0.00    +0.000 C 
ATOM     15  C   UNL     1      14.246  11.463  30.348  0.00  0.00    +0.000 C 
ATOM     16  C   UNL     1      14.572  12.908  30.249  0.00  0.00    +0.000 C 
ATOM     17  C   UNL     1      15.992  13.242  30.549  0.00  0.00    +0.000 C 
ATOM     18  C   UNL     1      16.378  12.894  31.945  0.00  0.00    +0.000 C 
ATOM     19  C   UNL     1      15.083  12.038  32.560  0.00  0.00    +0.000 C 
ENDBRANCH   1  19
TORSDOF 2
ENDMDL
MODEL 4
REMARK VINA RESULT:      -6.6      1.598      2.281
REMARK  Name = 
REMARK  2 active torsions:
REMARK  status: ('A' for Active; 'I' for Inactive)
REMARK    1  A    between atoms: C_7  and  N_8
REMARK    2  A    between atoms: C_9  and  C_11
REMARK                            x       y       z     vdW  Elec       q    Type
REMARK                         _______ _______ _______ _____ _____    ______ ____
ROOT
ATOM      1  N   UNL     1      18.380  11.243  36.973  0.00  0.00    +0.000 NA
ATOM      2  C   UNL     1      17.007  11.171  36.735  0.00  0.00    +0.000 C 
ATOM      3  O   UNL     1      16.218  10.983  37.692  0.00  0.00    +0.000 OA
ENDROOT
BRANCH   2   4
ATOM      4  C   UNL     1      16.494  11.312  35.376  0.00  0.00    +0.000 A 
ATOM      5  N   UNL     1      15.556  12.146  34.939  0.00  0.00    +0.000 NA
ATOM      6  C   UNL     1      15.361  11.961  33.604  0.00  0.00    +0.000 A 
ATOM      7  C   UNL     1      14.534  12.536  32.661  0.00  0.00    +0.000 A 
ATOM      8  C   UNL     1      14.545  12.145  31.342  0.00  0.00    +0.000 A 
ATOM      9  C   UNL     1      15.406  11.152  30.956  0.00  0.00    +0.000 A 
ATOM     10  C   UNL     1      16.235  10.570  31.877  0.00  0.00    +0.000 A 
ATOM     11  C   UNL     1      16.219  10.967  33.202  0.00  0.00    +0.000 A 
ATOM     12  N   UNL     1      16.891  10.595  34.304  0.00  0.00    +0.000 NA
ENDBRANCH   2   4
BRANCH   1  19
ATOM     13  C   UNL     1      19.801  13.257  38.374  0.00  0.00    +0.000 C 
ATOM     14  C   UNL     1      20.335  11.705  38.243  0.00  0.00    +0.000 C 
ATOM     15  C   UNL     1      20.711  11.618  39.828  0.00  0.00    +0.000 C 
ATOM     16  C   UNL     1      20.289  10.287  40.329  0.00  0.00    +0.000 C 
ATOM     17  C   UNL     1      20.258   9.219  39.292  0.00  0.00    +0.000 C 
ATOM     18  C   UNL     1      19.282   9.506  38.205  0.00  0.00    +0.000 C 
ATOM     19  C   UNL     1      18.759  11.067  38.483  0.00  0.00    +0.000 C 
ENDBRANCH   1  19
TORSDOF 2
ENDMDL
MODEL 5
REMARK VINA RESULT:      -6.2      2.853      4.281
REMARK  Name = 
REMARK  2 active torsions:
REMARK  status: ('A' for Active; 'I' for Inactive)
REMARK    1  A    between atoms: C_7  and  N_8
REMARK    2  A    between atoms: C_9  and  C_11
REMARK                            x       y       z     vdW  Elec       q    Type
REMARK                         _______ _______ _______ _____ _____    ______ ____
ROOT
ATOM      1  N   UNL     1      17.081   8.982  39.881  0.00  0.00    +0.000 NA
ATOM      2  C   UNL     1      17.881   9.811  39.095  0.00  0.00    +0.000 C 
ATOM      3  O   UNL     1      18.940  10.287  39.570  0.00  0.00    +0.000 OA
ENDROOT
BRANCH   2   4
ATOM      4  C   UNL     1      17.484  10.124  37.725  0.00  0.00    +0.000 A 
ATOM      5  N   UNL     1      18.022   9.675  36.596  0.00  0.00    +0.000 NA
ATOM      6  C   UNL     1      17.366  10.210  35.529  0.00  0.00    +0.000 A 
ATOM      7  C   UNL     1      17.496  10.095  34.160  0.00  0.00    +0.000 A 
ATOM      8  C   UNL     1      16.672  10.768  33.287  0.00  0.00    +0.000 A 
ATOM      9  C   UNL     1      15.692  11.578  33.798  0.00  0.00    +0.000 A 
ATOM     10  C   UNL     1      15.547  11.704  35.155  0.00  0.00    +0.000 A 
ATOM     11  C   UNL     1      16.379  11.025  36.026  0.00  0.00    +0.000 A 
ATOM     12  N   UNL     1      16.480  10.950  37.363  0.00  0.00    +0.000 NA
ENDBRANCH   2   4
BRANCH   1  19
ATOM     13  C   UNL     1      17.886   6.406  40.751  0.00  0.00    +0.000 C 
ATOM     14  C   UNL     1      16.750   7.306  41.533  0.00  0.00    +0.000 C 
ATOM     15  C   UNL     1      17.406   7.003  42.996  0.00  0.00    +0.000 C 
ATOM     16  C   UNL     1      17.381   8.262  43.781  0.00  0.00    +0.000 C 
ATOM     17  C   UNL     1      16.300   9.210  43.393  0.00  0.00    +0.000 C 
ATOM     18  C   UNL     1      16.430   9.681  41.986  0.00  0.00    +0.000 C 
ATOM     19  C   UNL     1      17.650   8.753  41.322  0.00  0.00    +0.000 C 
ENDBRANCH   1  19
TORSDOF 2
ENDMDL
MODEL 6
REMARK VINA RESULT:      -6.2      2.145      7.250
REMARK  Name = 
REMARK  2 active torsions:
REMARK  status: ('A' for Active; 'I' for Inactive)
REMARK    1  A    between atoms: C_7  and  N_8
REMARK    2  A    between atoms: C_9  and  C_11
REMARK                            x       y       z     vdW  Elec       q    Type
REMARK                         _______ _______ _______ _____ _____    ______ ____
ROOT
ATOM      1  N   UNL     1      16.314  10.808  35.551  0.00  0.00    +0.000 NA
ATOM      2  C   UNL     1      17.025  11.338  36.628  0.00  0.00    +0.000 C 
ATOM      3  O   UNL     1      17.681  12.396  36.481  0.00  0.00    +0.000 OA
ENDROOT
BRANCH   2   4
ATOM      4  C   UNL     1      17.004  10.659  37.921  0.00  0.00    +0.000 A 
ATOM      5  N   UNL     1      18.010  10.049  38.538  0.00  0.00    +0.000 NA
ATOM      6  C   UNL     1      17.578   9.535  39.724  0.00  0.00    +0.000 A 
ATOM      7  C   UNL     1      18.178   8.824  40.743  0.00  0.00    +0.000 A 
ATOM      8  C   UNL     1      17.484   8.420  41.861  0.00  0.00    +0.000 A 
ATOM      9  C   UNL     1      16.155   8.737  41.962  0.00  0.00    +0.000 A 
ATOM     10  C   UNL     1      15.542   9.443  40.960  0.00  0.00    +0.000 A 
ATOM     11  C   UNL     1      16.245   9.845  39.839  0.00  0.00    +0.000 A 
ATOM     12  N   UNL     1      15.930  10.527  38.726  0.00  0.00    +0.000 NA
ENDBRANCH   2   4
BRANCH   1  19
ATOM     13  C   UNL     1      14.410  12.804  34.895  0.00  0.00    +0.000 C 
ATOM     14  C   UNL     1      14.767  11.541  33.901  0.00  0.00    +0.000 C 
ATOM     15  C   UNL     1      14.873  12.503  32.588  0.00  0.00    +0.000 C 
ATOM     16  C   UNL     1      16.040  12.060  31.785  0.00  0.00    +0.000 C 
ATOM     17  C   UNL     1      16.392  10.622  31.951  0.00  0.00    +0.000 C 
ATOM     18  C   UNL     1      16.785  10.287  33.348  0.00  0.00    +0.000 C 
ATOM     19  C   UNL     1      16.447  11.657  34.241  0.00  0.00    +0.000 C 
ENDBRANCH   1  19
TORSDOF 2
ENDMDL
MODEL 7
REMARK VINA RESULT:      -6.2      3.037      4.402
REMARK  Name = 
REMARK  2 active torsions:
REMARK  status: ('A' for Active; 'I' for Inactive)
REMARK    1  A    between atoms: C_7  and  N_8
REMARK    2  A    between atoms: C_9  and  C_11
REMARK                            x       y       z     vdW  Elec       q    Type
REMARK                         _______ _______ _______ _____ _____    ______ ____
ROOT
ATOM      1  N   UNL     1      20.514  10.694  37.538  0.00  0.00    +0.000 NA
ATOM      2  C   UNL     1      19.376  10.056  38.033  0.00  0.00    +0.000 C 
ATOM      3  O   UNL     1      19.497   9.029  38.742  0.00  0.00    +0.000 OA
ENDROOT
BRANCH   2   4
ATOM      4  C   UNL     1      18.050  10.584  37.723  0.00  0.00    +0.000 A 
ATOM      5  N   UNL     1      16.903  10.321  38.339  0.00  0.00    +0.000 NA
ATOM      6  C   UNL     1      15.891  11.010  37.741  0.00  0.00    +0.000 A 
ATOM      7  C   UNL     1      14.533  11.111  37.958  0.00  0.00    +0.000 A 
ATOM      8  C   UNL     1      13.724  11.907  37.179  0.00  0.00    +0.000 A 
ATOM      9  C   UNL     1      14.290  12.619  36.155  0.00  0.00    +0.000 A 
ATOM     10  C   UNL     1      15.637  12.531  35.924  0.00  0.00    +0.000 A 
ATOM     11  C   UNL     1      16.444  11.729  36.710  0.00  0.00    +0.000 A 
ATOM     12  N   UNL     1      17.757  11.447  36.728  0.00  0.00    +0.000 NA
ENDBRANCH   2   4
BRANCH   1  19
ATOM     13  C   UNL     1      22.332  11.957  39.309  0.00  0.00    +0.000 C 
ATOM     14  C   UNL     1      22.752  11.450  37.800  0.00  0.00    +0.000 C 
ATOM     15  C   UNL     1      24.132  10.761  38.331  0.00  0.00    +0.000 C 
ATOM     16  C   UNL     1      24.293   9.459  37.637  0.00  0.00    +0.000 C 
ATOM     17  C   UNL     1      23.638   9.387  36.301  0.00  0.00    +0.000 C 
ATOM     18  C   UNL     1      22.161   9.558  36.379  0.00  0.00    +0.000 C 
ATOM     19  C   UNL     1      21.851   9.997  37.961  0.00  0.00    +0.000 C 
ENDBRANCH   1  19
TORSDOF 2
ENDMDL
MODEL 8
REMARK VINA RESULT:      -6.1      1.533      2.004
REMARK  Name = 
REMARK  2 active torsions:
REMARK  status: ('A' for Active; 'I' for Inactive)
REMARK    1  A    between atoms: C_7  and  N_8
REMARK    2  A    between atoms: C_9  and  C_11
REMARK                            x       y       z     vdW  Elec       q    Type
REMARK                         _______ _______ _______ _____ _____    ______ ____
ROOT
ATOM      1  N   UNL     1      19.895  10.388  36.513  0.00  0.00    +0.000 NA
ATOM      2  C   UNL     1      18.601   9.877  36.407  0.00  0.00    +0.000 C 
ATOM      3  O   UNL     1      18.192   9.038  37.246  0.00  0.00    +0.000 OA
ENDROOT
BRANCH   2   4
ATOM      4  C   UNL     1      17.728  10.317  35.322  0.00  0.00    +0.000 A 
ATOM      5  N   UNL     1      17.742   9.923  34.053  0.00  0.00    +0.000 NA
ATOM      6  C   UNL     1      16.769  10.577  33.358  0.00  0.00    +0.000 A 
ATOM      7  C   UNL     1      16.344  10.560  32.046  0.00  0.00    +0.000 A 
ATOM      8  C   UNL     1      15.305  11.346  31.603  0.00  0.00    +0.000 A 
ATOM      9  C   UNL     1      14.676  12.173  32.496  0.00  0.00    +0.000 A 
ATOM     10  C   UNL     1      15.085  12.203  33.804  0.00  0.00    +0.000 A 
ATOM     11  C   UNL     1      16.129  11.410  34.243  0.00  0.00    +0.000 A 
ATOM     12  N   UNL     1      16.738  11.227  35.426  0.00  0.00    +0.000 NA
ENDBRANCH   2   4
BRANCH   1  19
ATOM     13  C   UNL     1      20.083  11.808  38.959  0.00  0.00    +0.000 C 
ATOM     14  C   UNL     1      21.399  11.331  38.093  0.00  0.00    +0.000 C 
ATOM     15  C   UNL     1      22.162  10.763  39.419  0.00  0.00    +0.000 C 
ATOM     16  C   UNL     1      22.809   9.476  39.062  0.00  0.00    +0.000 C 
ATOM     17  C   UNL     1      23.162   9.342  37.621  0.00  0.00    +0.000 C 
ATOM     18  C   UNL     1      21.968   9.387  36.733  0.00  0.00    +0.000 C 
ATOM     19  C   UNL     1      20.694   9.807  37.729  0.00  0.00    +0.000 C 
ENDBRANCH   1  19
TORSDOF 2
ENDMDL
MODEL 9
REMARK VINA RESULT:      -5.9      2.445      7.440
REMARK  Name = 
REMARK  2 active torsions:
REMARK  status: ('A' for Active; 'I' for Inactive)
REMARK    1  A    between atoms: C_7  and  N_8
REMARK    2  A    between atoms: C_9  and  C_11
REMARK                            x       y       z     vdW  Elec       q    Type
REMARK                         _______ _______ _______ _____ _____    ______ ____
ROOT
ATOM      1  N   UNL     1      18.410  10.852  36.213  0.00  0.00    +0.000 NA
ATOM      2  C   UNL     1      18.893   9.906  37.117  0.00  0.00    +0.000 C 
ATOM      3  O   UNL     1      18.089   9.163  37.730  0.00  0.00    +0.000 OA
ENDROOT
BRANCH   2   4
ATOM      4  C   UNL     1      20.329   9.785  37.350  0.00  0.00    +0.000 A 
ATOM      5  N   UNL     1      20.960   9.658  38.512  0.00  0.00    +0.000 NA
ATOM      6  C   UNL     1      22.304   9.581  38.300  0.00  0.00    +0.000 A 
ATOM      7  C   UNL     1      23.404   9.446  39.121  0.00  0.00    +0.000 A 
ATOM      8  C   UNL     1      24.687   9.393  38.625  0.00  0.00    +0.000 A 
ATOM      9  C   UNL     1      24.873   9.478  37.270  0.00  0.00    +0.000 A 
ATOM     10  C   UNL     1      23.792   9.612  36.439  0.00  0.00    +0.000 A 
ATOM     11  C   UNL     1      22.506   9.665  36.944  0.00  0.00    +0.000 A 
ATOM     12  N   UNL     1      21.286   9.789  36.398  0.00  0.00    +0.000 NA
ENDBRANCH   2   4
BRANCH   1  19
ATOM     13  C   UNL     1      17.134  10.172  33.774  0.00  0.00    +0.000 C 
ATOM     14  C   UNL     1      16.893  11.606  34.546  0.00  0.00    +0.000 C 
ATOM     15  C   UNL     1      15.274  11.525  34.357  0.00  0.00    +0.000 C 
ATOM     16  C   UNL     1      14.641  11.976  35.621  0.00  0.00    +0.000 C 
ATOM     17  C   UNL     1      15.466  12.923  36.421  0.00  0.00    +0.000 C 
ATOM     18  C   UNL     1      16.751  12.320  36.873  0.00  0.00    +0.000 C 
ATOM     19  C   UNL     1      16.848  10.850  36.087  0.00  0.00    +0.000 C 
ENDBRANCH   1  19
TORSDOF 2
ENDMDL
MODEL 10
REMARK VINA RESULT:      -5.8     19.917     21.410
REMARK  Name = 
REMARK  2 active torsions:
REMARK  status: ('A' for Active; 'I' for Inactive)
REMARK    1  A    between atoms: C_7  and  N_8
REMARK    2  A    between atoms: C_9  and  C_11
REMARK                            x       y       z     vdW  Elec       q    Type
REMARK                         _______ _______ _______ _____ _____    ______ ____
ROOT
ATOM      1  N   UNL     1      25.280   5.026  16.752  0.00  0.00    +0.000 NA
ATOM      2  C   UNL     1      24.949   3.746  16.305  0.00  0.00    +0.000 C 
ATOM      3  O   UNL     1      25.834   3.015  15.799  0.00  0.00    +0.000 OA
ENDROOT
BRANCH   2   4
ATOM      4  C   UNL     1      23.577   3.263  16.426  0.00  0.00    +0.000 A 
ATOM      5  N   UNL     1      22.845   3.151  17.529  0.00  0.00    +0.000 NA
ATOM      6  C   UNL     1      21.615   2.653  17.217  0.00  0.00    +0.000 A 
ATOM      7  C   UNL     1      20.487   2.342  17.947  0.00  0.00    +0.000 A 
ATOM      8  C   UNL     1      19.350   1.839  17.358  0.00  0.00    +0.000 A 
ATOM      9  C   UNL     1      19.342   1.642  16.002  0.00  0.00    +0.000 A 
ATOM     10  C   UNL     1      20.453   1.946  15.260  0.00  0.00    +0.000 A 
ATOM     11  C   UNL     1      21.593   2.450  15.859  0.00  0.00    +0.000 A 
ATOM     12  N   UNL     1      22.800   2.831  15.411  0.00  0.00    +0.000 NA
ENDBRANCH   2   4
BRANCH   1  19
ATOM     13  C   UNL     1      26.988   5.526  18.959  0.00  0.00    +0.000 C 
ATOM     14  C   UNL     1      26.745   6.612  17.745  0.00  0.00    +0.000 C 
ATOM     15  C   UNL     1      28.340   6.932  17.609  0.00  0.00    +0.000 C 
ATOM     16  C   UNL     1      28.668   7.025  16.164  0.00  0.00    +0.000 C 
ATOM     17  C   UNL     1      27.529   7.440  15.299  0.00  0.00    +0.000 C 
ATOM     18  C   UNL     1      26.400   6.469  15.335  0.00  0.00    +0.000 C 
ATOM     19  C   UNL     1      26.791   5.385  16.544  0.00  0.00    +0.000 C 
ENDBRANCH   1  19
TORSDOF 2
ENDMDL
