MODEL 1
REMARK VINA RESULT:      -7.9      0.000      0.000
REMARK  Name = 
REMARK  4 active torsions:
REMARK  status: ('A' for Active; 'I' for Inactive)
REMARK    1  A    between atoms: C_2  and  C_3
REMARK    2  A    between atoms: C_3  and  C_5
REMARK    3  A    between atoms: C_8  and  O_9
REMARK    4  A    between atoms: O_9  and  C_10
REMARK                            x       y       z     vdW  Elec       q    Type
REMARK                         _______ _______ _______ _____ _____    ______ ____
ROOT
ATOM      1  C   UNL     1      14.571  12.739  32.593  0.00  0.00    +0.000 A 
ATOM      2  C   UNL     1      15.377  11.784  33.056  0.00  0.00    +0.000 A 
ATOM      3  C   UNL     1      15.602  11.707  34.417  0.00  0.00    +0.000 A 
ATOM      4  C   UNL     1      15.004  12.602  35.273  0.00  0.00    +0.000 A 
ATOM      5  C   UNL     1      14.179  13.568  34.735  0.00  0.00    +0.000 A 
ATOM      6  C   UNL     1      13.935  13.669  33.372  0.00  0.00    +0.000 A 
ENDROOT
BRANCH   1   7
ATOM      7  C   UNL     1      14.289  12.854  31.014  0.00  0.00    +0.000 C 
ATOM      8  C   UNL     1      14.491  14.494  30.949  0.00  0.00    +0.000 C 
BRANCH   7  10
ATOM      9  C   UNL     1      16.356  13.928  30.202  0.00  0.00    +0.000 C 
ATOM     10  C   UNL     1      15.854  12.548  30.583  0.00  0.00    +0.000 C 
ENDBRANCH   7  10
ENDBRANCH   1   7
BRANCH   4  11
ATOM     11  O   UNL     1      15.218  12.544  36.663  0.00  0.00    +0.000 OA
BRANCH  11  12
ATOM     12  C   UNL     1      14.309  11.777  37.409  0.00  0.00    +0.000 A 
ATOM     13  C   UNL     1      14.687  11.096  38.549  0.00  0.00    +0.000 A 
ATOM     14  C   UNL     1      13.739  10.353  39.246  0.00  0.00    +0.000 A 
ATOM     15  F   UNL     1      14.128   9.690  40.364  0.00  0.00    +0.000 F 
ATOM     16  N   UNL     1      12.464  10.302  38.807  0.00  0.00    +0.000 NA
ATOM     17  C   UNL     1      12.101  10.968  37.696  0.00  0.00    +0.000 A 
ATOM     18  N   UNL     1      10.738  10.891  37.258  0.00  0.00    +0.000 NA
ATOM     19  N   UNL     1      13.021  11.682  37.030  0.00  0.00    +0.000 NA
ENDBRANCH  11  12
ENDBRANCH   4  11
TORSDOF 4
ENDMDL
MODEL 2
REMARK VINA RESULT:      -7.3      3.251      3.820
REMARK  Name = 
REMARK  4 active torsions:
REMARK  status: ('A' for Active; 'I' for Inactive)
REMARK    1  A    between atoms: C_2  and  C_3
REMARK    2  A    between atoms: C_3  and  C_5
REMARK    3  A    between atoms: C_8  and  O_9
REMARK    4  A    between atoms: O_9  and  C_10
REMARK                            x       y       z     vdW  Elec       q    Type
REMARK                         _______ _______ _______ _____ _____    ______ ____
ROOT
ATOM      1  C   UNL     1      15.036  12.234  32.318  0.00  0.00    +0.000 A 
ATOM      2  C   UNL     1      15.800  11.224  32.732  0.00  0.00    +0.000 A 
ATOM      3  C   UNL     1      15.889  10.972  34.088  0.00  0.00    +0.000 A 
ATOM      4  C   UNL     1      15.200  11.751  34.988  0.00  0.00    +0.000 A 
ATOM      5  C   UNL     1      14.425  12.782  34.499  0.00  0.00    +0.000 A 
ATOM      6  C   UNL     1      14.317  13.059  33.143  0.00  0.00    +0.000 A 
ENDROOT
BRANCH   1   7
ATOM      7  C   UNL     1      14.910  12.553  30.747  0.00  0.00    +0.000 C 
ATOM      8  C   UNL     1      14.329  14.087  30.956  0.00  0.00    +0.000 C 
BRANCH   7  10
ATOM      9  C   UNL     1      16.300  14.530  30.249  0.00  0.00    +0.000 C 
ATOM     10  C   UNL     1      16.475  13.063  30.597  0.00  0.00    +0.000 C 
ENDBRANCH   7  10
ENDBRANCH   1   7
BRANCH   4  11
ATOM     11  O   UNL     1      15.276  11.514  36.374  0.00  0.00    +0.000 OA
BRANCH  11  12
ATOM     12  C   UNL     1      16.562  11.461  36.934  0.00  0.00    +0.000 A 
ATOM     13  C   UNL     1      17.373  12.575  37.014  0.00  0.00    +0.000 A 
ATOM     14  C   UNL     1      18.639  12.459  37.582  0.00  0.00    +0.000 A 
ATOM     15  F   UNL     1      19.422  13.564  37.652  0.00  0.00    +0.000 F 
ATOM     16  N   UNL     1      19.063  11.265  38.048  0.00  0.00    +0.000 NA
ATOM     17  C   UNL     1      18.269  10.183  37.968  0.00  0.00    +0.000 A 
ATOM     18  N   UNL     1      18.753   8.932  38.473  0.00  0.00    +0.000 NA
ATOM     19  N   UNL     1      17.050  10.304  37.419  0.00  0.00    +0.000 NA
ENDBRANCH  11  12
ENDBRANCH   4  11
TORSDOF 4
ENDMDL
MODEL 3
REMARK VINA RESULT:      -6.9      4.724      5.572
REMARK  Name = 
REMARK  4 active torsions:
REMARK  status: ('A' for Active; 'I' for Inactive)
REMARK    1  A    between atoms: C_2  and  C_3
REMARK    2  A    between atoms: C_3  and  C_5
REMARK    3  A    between atoms: C_8  and  O_9
REMARK    4  A    between atoms: O_9  and  C_10
REMARK                            x       y       z     vdW  Elec       q    Type
REMARK                         _______ _______ _______ _____ _____    ______ ____
ROOT
ATOM      1  C   UNL     1      16.251  11.178  33.160  0.00  0.00    +0.000 A 
ATOM      2  C   UNL     1      17.215  10.257  33.168  0.00  0.00    +0.000 A 
ATOM      3  C   UNL     1      17.699   9.814  34.383  0.00  0.00    +0.000 A 
ATOM      4  C   UNL     1      17.194  10.316  35.560  0.00  0.00    +0.000 A 
ATOM      5  C   UNL     1      16.197  11.267  35.488  0.00  0.00    +0.000 A 
ATOM      6  C   UNL     1      15.690  11.731  34.281  0.00  0.00    +0.000 A 
ENDROOT
BRANCH   1   7
ATOM      7  C   UNL     1      15.665  11.714  31.761  0.00  0.00    +0.000 C 
ATOM      8  C   UNL     1      14.549  10.504  31.598  0.00  0.00    +0.000 C 
BRANCH   7  10
ATOM      9  C   UNL     1      13.936  13.401  31.259  0.00  0.00    +0.000 C 
ATOM     10  C   UNL     1      14.585  12.747  32.465  0.00  0.00    +0.000 C 
ENDBRANCH   7  10
ENDBRANCH   1   7
BRANCH   4  11
ATOM     11  O   UNL     1      17.672   9.880  36.810  0.00  0.00    +0.000 OA
BRANCH  11  12
ATOM     12  C   UNL     1      18.901  10.411  37.234  0.00  0.00    +0.000 A 
ATOM     13  C   UNL     1      18.979  11.565  37.988  0.00  0.00    +0.000 A 
ATOM     14  C   UNL     1      20.227  12.041  38.379  0.00  0.00    +0.000 A 
ATOM     15  F   UNL     1      20.286  13.176  39.119  0.00  0.00    +0.000 F 
ATOM     16  N   UNL     1      21.346  11.376  38.022  0.00  0.00    +0.000 NA
ATOM     17  C   UNL     1      21.264  10.253  37.287  0.00  0.00    +0.000 A 
ATOM     18  N   UNL     1      22.473   9.573  36.926  0.00  0.00    +0.000 NA
ATOM     19  N   UNL     1      20.057   9.801  36.915  0.00  0.00    +0.000 NA
ENDBRANCH  11  12
ENDBRANCH   4  11
TORSDOF 4
ENDMDL
MODEL 4
REMARK VINA RESULT:      -6.5      5.381      7.157
REMARK  Name = 
REMARK  4 active torsions:
REMARK  status: ('A' for Active; 'I' for Inactive)
REMARK    1  A    between atoms: C_2  and  C_3
REMARK    2  A    between atoms: C_3  and  C_5
REMARK    3  A    between atoms: C_8  and  O_9
REMARK    4  A    between atoms: O_9  and  C_10
REMARK                            x       y       z     vdW  Elec       q    Type
REMARK                         _______ _______ _______ _____ _____    ______ ____
ROOT
ATOM      1  C   UNL     1      20.965  10.750  37.494  0.00  0.00    +0.000 A 
ATOM      2  C   UNL     1      20.175  11.595  38.155  0.00  0.00    +0.000 A 
ATOM      3  C   UNL     1      18.806  11.461  38.029  0.00  0.00    +0.000 A 
ATOM      4  C   UNL     1      18.274  10.472  37.234  0.00  0.00    +0.000 A 
ATOM      5  C   UNL     1      19.142   9.628  36.574  0.00  0.00    +0.000 A 
ATOM      6  C   UNL     1      20.522   9.738  36.683  0.00  0.00    +0.000 A 
ENDROOT
BRANCH   1   7
ATOM      7  C   UNL     1      22.563  10.880  37.621  0.00  0.00    +0.000 C 
ATOM      8  C   UNL     1      22.775   9.392  38.312  0.00  0.00    +0.000 C 
BRANCH   7  10
ATOM      9  C   UNL     1      24.199   9.631  36.261  0.00  0.00    +0.000 C 
ATOM     10  C   UNL     1      22.857  10.319  36.095  0.00  0.00    +0.000 C 
ENDBRANCH   7  10
ENDBRANCH   1   7
BRANCH   4  11
ATOM     11  O   UNL     1      16.882  10.317  37.089  0.00  0.00    +0.000 OA
BRANCH  11  12
ATOM     12  C   UNL     1      16.291  10.936  35.977  0.00  0.00    +0.000 A 
ATOM     13  C   UNL     1      15.389  11.972  36.108  0.00  0.00    +0.000 A 
ATOM     14  C   UNL     1      14.838  12.546  34.966  0.00  0.00    +0.000 A 
ATOM     15  F   UNL     1      13.952  13.563  35.114  0.00  0.00    +0.000 F 
ATOM     16  N   UNL     1      15.186  12.090  33.745  0.00  0.00    +0.000 NA
ATOM     17  C   UNL     1      16.066  11.080  33.622  0.00  0.00    +0.000 A 
ATOM     18  N   UNL     1      16.413  10.621  32.310  0.00  0.00    +0.000 NA
ATOM     19  N   UNL     1      16.593  10.533  34.728  0.00  0.00    +0.000 NA
ENDBRANCH  11  12
ENDBRANCH   4  11
TORSDOF 4
ENDMDL
MODEL 5
REMARK VINA RESULT:      -6.4      5.637      7.367
REMARK  Name = 
REMARK  4 active torsions:
REMARK  status: ('A' for Active; 'I' for Inactive)
REMARK    1  A    between atoms: C_2  and  C_3
REMARK    2  A    between atoms: C_3  and  C_5
REMARK    3  A    between atoms: C_8  and  O_9
REMARK    4  A    between atoms: O_9  and  C_10
REMARK                            x       y       z     vdW  Elec       q    Type
REMARK                         _______ _______ _______ _____ _____    ______ ____
ROOT
ATOM      1  C   UNL     1      21.285  10.973  37.637  0.00  0.00    +0.000 A 
ATOM      2  C   UNL     1      21.065   9.919  36.853  0.00  0.00    +0.000 A 
ATOM      3  C   UNL     1      19.760   9.561  36.574  0.00  0.00    +0.000 A 
ATOM      4  C   UNL     1      18.712  10.282  37.098  0.00  0.00    +0.000 A 
ATOM      5  C   UNL     1      19.003  11.364  37.902  0.00  0.00    +0.000 A 
ATOM      6  C   UNL     1      20.304  11.747  38.200  0.00  0.00    +0.000 A 
ENDROOT
BRANCH   1   7
ATOM      7  C   UNL     1      22.793  11.416  37.980  0.00  0.00    +0.000 C 
ATOM      8  C   UNL     1      22.976  10.351  39.232  0.00  0.00    +0.000 C 
BRANCH   7  10
ATOM      9  C   UNL     1      24.565  11.258  36.271  0.00  0.00    +0.000 C 
ATOM     10  C   UNL     1      23.479  10.392  36.881  0.00  0.00    +0.000 C 
ENDBRANCH   7  10
ENDBRANCH   1   7
BRANCH   4  11
ATOM     11  O   UNL     1      17.375   9.935  36.828  0.00  0.00    +0.000 OA
BRANCH  11  12
ATOM     12  C   UNL     1      16.791  10.516  35.690  0.00  0.00    +0.000 A 
ATOM     13  C   UNL     1      17.119  10.113  34.412  0.00  0.00    +0.000 A 
ATOM     14  C   UNL     1      16.505  10.727  33.324  0.00  0.00    +0.000 A 
ATOM     15  F   UNL     1      16.839  10.319  32.074  0.00  0.00    +0.000 F 
ATOM     16  N   UNL     1      15.599  11.707  33.524  0.00  0.00    +0.000 NA
ATOM     17  C   UNL     1      15.283  12.096  34.772  0.00  0.00    +0.000 A 
ATOM     18  N   UNL     1      14.316  13.140  34.947  0.00  0.00    +0.000 NA
ATOM     19  N   UNL     1      15.879  11.498  35.815  0.00  0.00    +0.000 NA
ENDBRANCH  11  12
ENDBRANCH   4  11
TORSDOF 4
ENDMDL
MODEL 6
REMARK VINA RESULT:      -6.1     17.268     19.944
REMARK  Name = 
REMARK  4 active torsions:
REMARK  status: ('A' for Active; 'I' for Inactive)
REMARK    1  A    between atoms: C_2  and  C_3
REMARK    2  A    between atoms: C_3  and  C_5
REMARK    3  A    between atoms: C_8  and  O_9
REMARK    4  A    between atoms: O_9  and  C_10
REMARK                            x       y       z     vdW  Elec       q    Type
REMARK                         _______ _______ _______ _____ _____    ______ ____
ROOT
ATOM      1  C   UNL     1      27.936  23.476  23.537  0.00  0.00    +0.000 A 
ATOM      2  C   UNL     1      26.917  23.240  24.363  0.00  0.00    +0.000 A 
ATOM      3  C   UNL     1      27.186  22.750  25.626  0.00  0.00    +0.000 A 
ATOM      4  C   UNL     1      28.482  22.512  26.019  0.00  0.00    +0.000 A 
ATOM      5  C   UNL     1      29.495  22.776  25.121  0.00  0.00    +0.000 A 
ATOM      6  C   UNL     1      29.255  23.269  23.845  0.00  0.00    +0.000 A 
ENDROOT
BRANCH   1   7
ATOM      7  C   UNL     1      27.655  24.048  22.060  0.00  0.00    +0.000 C 
ATOM      8  C   UNL     1      27.384  25.602  22.555  0.00  0.00    +0.000 C 
BRANCH   7  10
ATOM      9  C   UNL     1      29.187  25.617  20.929  0.00  0.00    +0.000 C 
ATOM     10  C   UNL     1      29.249  24.329  21.729  0.00  0.00    +0.000 C 
ENDBRANCH   7  10
ENDBRANCH   1   7
BRANCH   4  11
ATOM     11  O   UNL     1      28.781  22.012  27.301  0.00  0.00    +0.000 OA
BRANCH  11  12
ATOM     12  C   UNL     1      28.065  22.564  28.375  0.00  0.00    +0.000 A 
ATOM     13  C   UNL     1      28.150  23.903  28.702  0.00  0.00    +0.000 A 
ATOM     14  C   UNL     1      27.414  24.390  29.778  0.00  0.00    +0.000 A 
ATOM     15  F   UNL     1      27.510  25.708  30.086  0.00  0.00    +0.000 F 
ATOM     16  N   UNL     1      26.626  23.558  30.491  0.00  0.00    +0.000 NA
ATOM     17  C   UNL     1      26.547  22.254  30.168  0.00  0.00    +0.000 A 
ATOM     18  N   UNL     1      25.701  21.400  30.947  0.00  0.00    +0.000 NA
ATOM     19  N   UNL     1      27.260  21.793  29.129  0.00  0.00    +0.000 NA
ENDBRANCH  11  12
ENDBRANCH   4  11
TORSDOF 4
ENDMDL
MODEL 7
REMARK VINA RESULT:      -6.1     21.724     23.093
REMARK  Name = 
REMARK  4 active torsions:
REMARK  status: ('A' for Active; 'I' for Inactive)
REMARK    1  A    between atoms: C_2  and  C_3
REMARK    2  A    between atoms: C_3  and  C_5
REMARK    3  A    between atoms: C_8  and  O_9
REMARK    4  A    between atoms: O_9  and  C_10
REMARK                            x       y       z     vdW  Elec       q    Type
REMARK                         _______ _______ _______ _____ _____    ______ ____
ROOT
ATOM      1  C   UNL     1      31.690  23.153  27.516  0.00  0.00    +0.000 A 
ATOM      2  C   UNL     1      32.075  23.822  26.430  0.00  0.00    +0.000 A 
ATOM      3  C   UNL     1      31.403  23.602  25.243  0.00  0.00    +0.000 A 
ATOM      4  C   UNL     1      30.358  22.709  25.189  0.00  0.00    +0.000 A 
ATOM      5  C   UNL     1      30.006  22.047  26.347  0.00  0.00    +0.000 A 
ATOM      6  C   UNL     1      30.662  22.248  27.554  0.00  0.00    +0.000 A 
ENDROOT
BRANCH   1   7
ATOM      7  C   UNL     1      32.452  23.388  28.914  0.00  0.00    +0.000 C 
ATOM      8  C   UNL     1      31.071  23.605  29.797  0.00  0.00    +0.000 C 
BRANCH   7  10
ATOM      9  C   UNL     1      33.762  21.727  30.183  0.00  0.00    +0.000 C 
ATOM     10  C   UNL     1      32.546  21.779  29.277  0.00  0.00    +0.000 C 
ENDBRANCH   7  10
ENDBRANCH   1   7
BRANCH   4  11
ATOM     11  O   UNL     1      29.659  22.467  23.991  0.00  0.00    +0.000 OA
BRANCH  11  12
ATOM     12  C   UNL     1      29.128  23.589  23.335  0.00  0.00    +0.000 A 
ATOM     13  C   UNL     1      28.089  24.325  23.868  0.00  0.00    +0.000 A 
ATOM     14  C   UNL     1      27.606  25.429  23.169  0.00  0.00    +0.000 A 
ATOM     15  F   UNL     1      26.584  26.141  23.707  0.00  0.00    +0.000 F 
ATOM     16  N   UNL     1      28.153  25.770  21.983  0.00  0.00    +0.000 NA
ATOM     17  C   UNL     1      29.165  25.049  21.469  0.00  0.00    +0.000 A 
ATOM     18  N   UNL     1      29.721  25.440  20.207  0.00  0.00    +0.000 NA
ATOM     19  N   UNL     1      29.624  23.987  22.149  0.00  0.00    +0.000 NA
ENDBRANCH  11  12
ENDBRANCH   4  11
TORSDOF 4
ENDMDL
MODEL 8
REMARK VINA RESULT:      -6.0     21.172     23.824
REMARK  Name = 
REMARK  4 active torsions:
REMARK  status: ('A' for Active; 'I' for Inactive)
REMARK    1  A    between atoms: C_2  and  C_3
REMARK    2  A    between atoms: C_3  and  C_5
REMARK    3  A    between atoms: C_8  and  O_9
REMARK    4  A    between atoms: O_9  and  C_10
REMARK                            x       y       z     vdW  Elec       q    Type
REMARK                         _______ _______ _______ _____ _____    ______ ____
ROOT
ATOM      1  C   UNL     1      29.217  23.273  25.782  0.00  0.00    +0.000 A 
ATOM      2  C   UNL     1      27.979  23.229  25.291  0.00  0.00    +0.000 A 
ATOM      3  C   UNL     1      27.801  23.367  23.929  0.00  0.00    +0.000 A 
ATOM      4  C   UNL     1      28.883  23.547  23.099  0.00  0.00    +0.000 A 
ATOM      5  C   UNL     1      30.140  23.584  23.665  0.00  0.00    +0.000 A 
ATOM      6  C   UNL     1      30.350  23.447  25.031  0.00  0.00    +0.000 A 
ENDROOT
BRANCH   1   7
ATOM      7  C   UNL     1      29.459  23.114  27.365  0.00  0.00    +0.000 C 
ATOM      8  C   UNL     1      28.207  22.059  27.598  0.00  0.00    +0.000 C 
BRANCH   7  10
ATOM      9  C   UNL     1      31.530  22.198  28.342  0.00  0.00    +0.000 C 
ATOM     10  C   UNL     1      30.573  21.905  27.202  0.00  0.00    +0.000 C 
ENDBRANCH   7  10
ENDBRANCH   1   7
BRANCH   4  11
ATOM     11  O   UNL     1      28.725  23.691  21.707  0.00  0.00    +0.000 OA
BRANCH  11  12
ATOM     12  C   UNL     1      28.746  25.001  21.203  0.00  0.00    +0.000 A 
ATOM     13  C   UNL     1      27.834  25.955  21.606  0.00  0.00    +0.000 A 
ATOM     14  C   UNL     1      27.907  27.238  21.070  0.00  0.00    +0.000 A 
ATOM     15  F   UNL     1      27.003  28.164  21.476  0.00  0.00    +0.000 F 
ATOM     16  N   UNL     1      28.863  27.539  20.165  0.00  0.00    +0.000 NA
ATOM     17  C   UNL     1      29.749  26.605  19.776  0.00  0.00    +0.000 A 
ATOM     18  N   UNL     1      30.750  26.960  18.814  0.00  0.00    +0.000 NA
ATOM     19  N   UNL     1      29.671  25.371  20.298  0.00  0.00    +0.000 NA
ENDBRANCH  11  12
ENDBRANCH   4  11
TORSDOF 4
ENDMDL
MODEL 9
REMARK VINA RESULT:      -5.9     19.462     21.132
REMARK  Name = 
REMARK  4 active torsions:
REMARK  status: ('A' for Active; 'I' for Inactive)
REMARK    1  A    between atoms: C_2  and  C_3
REMARK    2  A    between atoms: C_3  and  C_5
REMARK    3  A    between atoms: C_8  and  O_9
REMARK    4  A    between atoms: O_9  and  C_10
REMARK                            x       y       z     vdW  Elec       q    Type
REMARK                         _______ _______ _______ _____ _____    ______ ____
ROOT
ATOM      1  C   UNL     1      24.509  25.848  26.597  0.00  0.00    +0.000 A 
ATOM      2  C   UNL     1      24.591  25.854  25.267  0.00  0.00    +0.000 A 
ATOM      3  C   UNL     1      25.308  24.853  24.642  0.00  0.00    +0.000 A 
ATOM      4  C   UNL     1      25.923  23.871  25.382  0.00  0.00    +0.000 A 
ATOM      5  C   UNL     1      25.803  23.917  26.755  0.00  0.00    +0.000 A 
ATOM      6  C   UNL     1      25.089  24.911  27.411  0.00  0.00    +0.000 A 
ENDROOT
BRANCH   1   7
ATOM      7  C   UNL     1      23.681  27.000  27.355  0.00  0.00    +0.000 C 
ATOM      8  C   UNL     1      22.221  26.234  27.232  0.00  0.00    +0.000 C 
BRANCH   7  10
ATOM      9  C   UNL     1      22.720  26.786  29.618  0.00  0.00    +0.000 C 
ATOM     10  C   UNL     1      23.979  26.397  28.865  0.00  0.00    +0.000 C 
ENDBRANCH   7  10
ENDBRANCH   1   7
BRANCH   4  11
ATOM     11  O   UNL     1      26.660  22.840  24.767  0.00  0.00    +0.000 OA
BRANCH  11  12
ATOM     12  C   UNL     1      27.950  23.168  24.320  0.00  0.00    +0.000 A 
ATOM     13  C   UNL     1      29.056  23.069  25.140  0.00  0.00    +0.000 A 
ATOM     14  C   UNL     1      30.309  23.408  24.638  0.00  0.00    +0.000 A 
ATOM     15  F   UNL     1      31.386  23.306  25.457  0.00  0.00    +0.000 F 
ATOM     16  N   UNL     1      30.435  23.828  23.362  0.00  0.00    +0.000 NA
ATOM     17  C   UNL     1      29.354  23.923  22.567  0.00  0.00    +0.000 A 
ATOM     18  N   UNL     1      29.525  24.373  21.218  0.00  0.00    +0.000 NA
ATOM     19  N   UNL     1      28.149  23.594  23.059  0.00  0.00    +0.000 NA
ENDBRANCH  11  12
ENDBRANCH   4  11
TORSDOF 4
ENDMDL
MODEL 10
REMARK VINA RESULT:      -5.9     21.055     22.356
REMARK  Name = 
REMARK  4 active torsions:
REMARK  status: ('A' for Active; 'I' for Inactive)
REMARK    1  A    between atoms: C_2  and  C_3
REMARK    2  A    between atoms: C_3  and  C_5
REMARK    3  A    between atoms: C_8  and  O_9
REMARK    4  A    between atoms: O_9  and  C_10
REMARK                            x       y       z     vdW  Elec       q    Type
REMARK                         _______ _______ _______ _____ _____    ______ ____
ROOT
ATOM      1  C   UNL     1      25.845   5.407  17.584  0.00  0.00    +0.000 A 
ATOM      2  C   UNL     1      25.722   4.658  18.680  0.00  0.00    +0.000 A 
ATOM      3  C   UNL     1      25.051   3.454  18.588  0.00  0.00    +0.000 A 
ATOM      4  C   UNL     1      24.523   3.040  17.388  0.00  0.00    +0.000 A 
ATOM      5  C   UNL     1      24.683   3.858  16.288  0.00  0.00    +0.000 A 
ATOM      6  C   UNL     1      25.351   5.073  16.350  0.00  0.00    +0.000 A 
ENDROOT
BRANCH   1   7
ATOM      7  C   UNL     1      26.620   6.814  17.658  0.00  0.00    +0.000 C 
ATOM      8  C   UNL     1      27.673   6.339  18.841  0.00  0.00    +0.000 C 
BRANCH   7  10
ATOM      9  C   UNL     1      28.905   7.236  16.828  0.00  0.00    +0.000 C 
ATOM     10  C   UNL     1      27.672   6.442  16.439  0.00  0.00    +0.000 C 
ENDBRANCH   7  10
ENDBRANCH   1   7
BRANCH   4  11
ATOM     11  O   UNL     1      23.836   1.817  17.270  0.00  0.00    +0.000 OA
BRANCH  11  12
ATOM     12  C   UNL     1      22.434   1.883  17.236  0.00  0.00    +0.000 A 
ATOM     13  C   UNL     1      21.722   2.756  18.033  0.00  0.00    +0.000 A 
ATOM     14  C   UNL     1      20.332   2.775  17.953  0.00  0.00    +0.000 A 
ATOM     15  F   UNL     1      19.648   3.639  18.744  0.00  0.00    +0.000 F 
ATOM     16  N   UNL     1      19.694   1.945  17.101  0.00  0.00    +0.000 NA
ATOM     17  C   UNL     1      20.392   1.096  16.327  0.00  0.00    +0.000 A 
ATOM     18  N   UNL     1      19.680   0.229  15.435  0.00  0.00    +0.000 NA
ATOM     19  N   UNL     1      21.731   1.085  16.411  0.00  0.00    +0.000 NA
ENDBRANCH  11  12
ENDBRANCH   4  11
TORSDOF 4
ENDMDL
