MODEL 1
REMARK VINA RESULT:      -8.3      0.000      0.000
REMARK  Name = 
REMARK  5 active torsions:
REMARK  status: ('A' for Active; 'I' for Inactive)
REMARK    1  A    between atoms: C_2  and  C_3
REMARK    2  A    between atoms: C_2  and  N_20
REMARK    3  A    between atoms: C_3  and  C_4
REMARK    4  A    between atoms: C_4  and  C_5
REMARK    5  A    between atoms: C_13  and  C_14
REMARK                            x       y       z     vdW  Elec       q    Type
REMARK                         _______ _______ _______ _____ _____    ______ ____
ROOT
ATOM      1  C   UNL     1      15.973  10.840  33.621  0.00  0.00    +0.000 A 
ATOM      2  O   UNL     1      17.024  10.062  33.715  0.00  0.00    +0.000 OA
ATOM      3  C   UNL     1      17.496  10.096  34.953  0.00  0.00    +0.000 A 
ATOM      4  C   UNL     1      18.569   9.459  35.533  0.00  0.00    +0.000 A 
ATOM      5  C   UNL     1      18.833   9.687  36.885  0.00  0.00    +0.000 A 
ATOM      6  C   UNL     1      18.027  10.537  37.607  0.00  0.00    +0.000 A 
ATOM      7  C   UNL     1      16.948  11.186  37.045  0.00  0.00    +0.000 A 
ATOM      8  C   UNL     1      16.724  10.929  35.700  0.00  0.00    +0.000 A 
ATOM      9  C   UNL     1      15.748  11.410  34.861  0.00  0.00    +0.000 A 
ENDROOT
BRANCH   9  10
ATOM     10  C   UNL     1      14.666  12.341  35.172  0.00  0.00    +0.000 A 
ATOM     11  C   UNL     1      13.767  12.231  36.213  0.00  0.00    +0.000 A 
ATOM     12  C   UNL     1      12.894  13.322  36.162  0.00  0.00    +0.000 A 
ATOM     13  C   UNL     1      13.323  14.047  35.070  0.00  0.00    +0.000 A 
ATOM     14  C   UNL     1      12.741  15.311  34.563  0.00  0.00    +0.000 C 
ATOM     15  O   UNL     1      14.352  13.437  34.532  0.00  0.00    +0.000 OA
ENDBRANCH   9  10
BRANCH   1  16
ATOM     16  C   UNL     1      15.121  11.107  32.410  0.00  0.00    +0.000 C 
BRANCH  16  17
ATOM     17  C   UNL     1      16.033  11.655  31.356  0.00  0.00    +0.000 C 
BRANCH  17  19
ATOM     18  C   UNL     1      16.570  13.669  30.160  0.00  0.00    +0.000 C 
ATOM     19  C   UNL     1      15.645  12.990  30.861  0.00  0.00    +0.000 C 
BRANCH  19  20
ATOM     20  N   UNL     1      14.356  13.554  31.103  0.00  0.00    +0.000 NA
ATOM     21  O   UNL     1      14.193  14.860  31.428  0.00  0.00    +0.000 OA
ENDBRANCH  19  20
ENDBRANCH  17  19
ENDBRANCH  16  17
ENDBRANCH   1  16
TORSDOF 5
ENDMDL
MODEL 2
REMARK VINA RESULT:      -8.2      2.169      4.590
REMARK  Name = 
REMARK  5 active torsions:
REMARK  status: ('A' for Active; 'I' for Inactive)
REMARK    1  A    between atoms: C_2  and  C_3
REMARK    2  A    between atoms: C_2  and  N_20
REMARK    3  A    between atoms: C_3  and  C_4
REMARK    4  A    between atoms: C_4  and  C_5
REMARK    5  A    between atoms: C_13  and  C_14
REMARK                            x       y       z     vdW  Elec       q    Type
REMARK                         _______ _______ _______ _____ _____    ______ ____
ROOT
ATOM      1  C   UNL     1      15.331  12.293  36.636  0.00  0.00    +0.000 A 
ATOM      2  O   UNL     1      15.168  11.527  37.687  0.00  0.00    +0.000 OA
ATOM      3  C   UNL     1      13.877  11.294  37.875  0.00  0.00    +0.000 A 
ATOM      4  C   UNL     1      13.217  10.559  38.833  0.00  0.00    +0.000 A 
ATOM      5  C   UNL     1      11.824  10.489  38.782  0.00  0.00    +0.000 A 
ATOM      6  C   UNL     1      11.139  11.149  37.786  0.00  0.00    +0.000 A 
ATOM      7  C   UNL     1      11.781  11.892  36.818  0.00  0.00    +0.000 A 
ATOM      8  C   UNL     1      13.166  11.933  36.909  0.00  0.00    +0.000 A 
ATOM      9  C   UNL     1      14.082  12.573  36.111  0.00  0.00    +0.000 A 
ENDROOT
BRANCH   9  10
ATOM     10  C   UNL     1      13.835  13.400  34.932  0.00  0.00    +0.000 A 
ATOM     11  C   UNL     1      13.205  14.628  34.912  0.00  0.00    +0.000 A 
ATOM     12  C   UNL     1      13.168  15.086  33.592  0.00  0.00    +0.000 A 
ATOM     13  C   UNL     1      13.791  14.089  32.871  0.00  0.00    +0.000 A 
ATOM     14  C   UNL     1      14.023  14.067  31.408  0.00  0.00    +0.000 C 
ATOM     15  O   UNL     1      14.158  13.135  33.693  0.00  0.00    +0.000 OA
ENDBRANCH   9  10
BRANCH   1  16
ATOM     16  C   UNL     1      16.618  12.808  36.053  0.00  0.00    +0.000 C 
BRANCH  16  17
ATOM     17  C   UNL     1      17.571  11.652  36.028  0.00  0.00    +0.000 C 
BRANCH  17  19
ATOM     18  C   UNL     1      17.416   9.359  35.324  0.00  0.00    +0.000 C 
ATOM     19  C   UNL     1      17.275  10.653  34.983  0.00  0.00    +0.000 C 
BRANCH  19  20
ATOM     20  N   UNL     1      16.860  11.017  33.667  0.00  0.00    +0.000 NA
ATOM     21  O   UNL     1      15.810  10.419  33.053  0.00  0.00    +0.000 OA
ENDBRANCH  19  20
ENDBRANCH  17  19
ENDBRANCH  16  17
ENDBRANCH   1  16
TORSDOF 5
ENDMDL
MODEL 3
REMARK VINA RESULT:      -7.4      2.688      5.489
REMARK  Name = 
REMARK  5 active torsions:
REMARK  status: ('A' for Active; 'I' for Inactive)
REMARK    1  A    between atoms: C_2  and  C_3
REMARK    2  A    between atoms: C_2  and  N_20
REMARK    3  A    between atoms: C_3  and  C_4
REMARK    4  A    between atoms: C_4  and  C_5
REMARK    5  A    between atoms: C_13  and  C_14
REMARK                            x       y       z     vdW  Elec       q    Type
REMARK                         _______ _______ _______ _____ _____    ______ ____
ROOT
ATOM      1  C   UNL     1      16.322  10.708  33.711  0.00  0.00    +0.000 A 
ATOM      2  O   UNL     1      16.549  10.918  32.437  0.00  0.00    +0.000 OA
ATOM      3  C   UNL     1      15.780  11.907  32.004  0.00  0.00    +0.000 A 
ATOM      4  C   UNL     1      15.658  12.483  30.760  0.00  0.00    +0.000 A 
ATOM      5  C   UNL     1      14.749  13.529  30.593  0.00  0.00    +0.000 A 
ATOM      6  C   UNL     1      13.997  13.962  31.661  0.00  0.00    +0.000 A 
ATOM      7  C   UNL     1      14.103  13.398  32.915  0.00  0.00    +0.000 A 
ATOM      8  C   UNL     1      15.019  12.362  33.034  0.00  0.00    +0.000 A 
ATOM      9  C   UNL     1      15.356  11.605  34.130  0.00  0.00    +0.000 A 
ENDROOT
BRANCH   9  10
ATOM     10  C   UNL     1      14.825  11.693  35.488  0.00  0.00    +0.000 A 
ATOM     11  C   UNL     1      15.416  12.336  36.556  0.00  0.00    +0.000 A 
ATOM     12  C   UNL     1      14.591  12.187  37.675  0.00  0.00    +0.000 A 
ATOM     13  C   UNL     1      13.524  11.446  37.212  0.00  0.00    +0.000 A 
ATOM     14  C   UNL     1      12.348  11.002  37.995  0.00  0.00    +0.000 C 
ATOM     15  O   UNL     1      13.708  11.187  35.939  0.00  0.00    +0.000 OA
ENDBRANCH   9  10
BRANCH   1  16
ATOM     16  C   UNL     1      16.965   9.689  34.613  0.00  0.00    +0.000 C 
BRANCH  16  17
ATOM     17  C   UNL     1      18.297  10.248  35.010  0.00  0.00    +0.000 C 
BRANCH  17  19
ATOM     18  C   UNL     1      17.763   9.656  37.277  0.00  0.00    +0.000 C 
ATOM     19  C   UNL     1      18.731   9.859  36.366  0.00  0.00    +0.000 C 
BRANCH  19  20
ATOM     20  N   UNL     1      20.106   9.702  36.718  0.00  0.00    +0.000 NA
ATOM     21  O   UNL     1      20.517   9.664  38.009  0.00  0.00    +0.000 OA
ENDBRANCH  19  20
ENDBRANCH  17  19
ENDBRANCH  16  17
ENDBRANCH   1  16
TORSDOF 5
ENDMDL
MODEL 4
REMARK VINA RESULT:      -7.2      2.239      4.813
REMARK  Name = 
REMARK  5 active torsions:
REMARK  status: ('A' for Active; 'I' for Inactive)
REMARK    1  A    between atoms: C_2  and  C_3
REMARK    2  A    between atoms: C_2  and  N_20
REMARK    3  A    between atoms: C_3  and  C_4
REMARK    4  A    between atoms: C_4  and  C_5
REMARK    5  A    between atoms: C_13  and  C_14
REMARK                            x       y       z     vdW  Elec       q    Type
REMARK                         _______ _______ _______ _____ _____    ______ ____
ROOT
ATOM      1  C   UNL     1      15.760  11.633  35.385  0.00  0.00    +0.000 A 
ATOM      2  O   UNL     1      14.458  11.743  35.280  0.00  0.00    +0.000 OA
ATOM      3  C   UNL     1      13.891  11.461  36.444  0.00  0.00    +0.000 A 
ATOM      4  C   UNL     1      12.569  11.439  36.827  0.00  0.00    +0.000 A 
ATOM      5  C   UNL     1      12.260  11.098  38.146  0.00  0.00    +0.000 A 
ATOM      6  C   UNL     1      13.269  10.793  39.031  0.00  0.00    +0.000 A 
ATOM      7  C   UNL     1      14.599  10.810  38.666  0.00  0.00    +0.000 A 
ATOM      8  C   UNL     1      14.858  11.153  37.347  0.00  0.00    +0.000 A 
ATOM      9  C   UNL     1      16.057  11.260  36.684  0.00  0.00    +0.000 A 
ENDROOT
BRANCH   9  10
ATOM     10  C   UNL     1      17.403  11.033  37.204  0.00  0.00    +0.000 A 
ATOM     11  C   UNL     1      18.022   9.810  37.364  0.00  0.00    +0.000 A 
ATOM     12  C   UNL     1      19.299  10.025  37.889  0.00  0.00    +0.000 A 
ATOM     13  C   UNL     1      19.385  11.394  38.021  0.00  0.00    +0.000 A 
ATOM     14  C   UNL     1      20.541  12.164  38.537  0.00  0.00    +0.000 C 
ATOM     15  O   UNL     1      18.261  11.932  37.611  0.00  0.00    +0.000 OA
ENDBRANCH   9  10
BRANCH   1  16
ATOM     16  C   UNL     1      16.800  11.859  34.322  0.00  0.00    +0.000 C 
BRANCH  16  17
ATOM     17  C   UNL     1      16.677  10.722  33.354  0.00  0.00    +0.000 C 
BRANCH  17  19
ATOM     18  C   UNL     1      16.103  12.252  31.591  0.00  0.00    +0.000 C 
ATOM     19  C   UNL     1      15.893  11.045  32.146  0.00  0.00    +0.000 C 
BRANCH  19  20
ATOM     20  N   UNL     1      14.950  10.137  31.576  0.00  0.00    +0.000 NA
ATOM     21  O   UNL     1      13.956   9.579  32.310  0.00  0.00    +0.000 OA
ENDBRANCH  19  20
ENDBRANCH  17  19
ENDBRANCH  16  17
ENDBRANCH   1  16
TORSDOF 5
ENDMDL
MODEL 5
REMARK VINA RESULT:      -7.0      2.138      2.909
REMARK  Name = 
REMARK  5 active torsions:
REMARK  status: ('A' for Active; 'I' for Inactive)
REMARK    1  A    between atoms: C_2  and  C_3
REMARK    2  A    between atoms: C_2  and  N_20
REMARK    3  A    between atoms: C_3  and  C_4
REMARK    4  A    between atoms: C_4  and  C_5
REMARK    5  A    between atoms: C_13  and  C_14
REMARK                            x       y       z     vdW  Elec       q    Type
REMARK                         _______ _______ _______ _____ _____    ______ ____
ROOT
ATOM      1  C   UNL     1      17.054  11.005  35.778  0.00  0.00    +0.000 A 
ATOM      2  O   UNL     1      18.146  10.411  36.194  0.00  0.00    +0.000 OA
ATOM      3  C   UNL     1      17.997  10.034  37.456  0.00  0.00    +0.000 A 
ATOM      4  C   UNL     1      18.852   9.384  38.316  0.00  0.00    +0.000 A 
ATOM      5  C   UNL     1      18.416   9.111  39.614  0.00  0.00    +0.000 A 
ATOM      6  C   UNL     1      17.154   9.492  40.009  0.00  0.00    +0.000 A 
ATOM      7  C   UNL     1      16.282  10.145  39.163  0.00  0.00    +0.000 A 
ATOM      8  C   UNL     1      16.758  10.395  37.883  0.00  0.00    +0.000 A 
ATOM      9  C   UNL     1      16.146  11.015  36.822  0.00  0.00    +0.000 A 
ENDROOT
BRANCH   9  10
ATOM     10  C   UNL     1      14.804  11.589  36.760  0.00  0.00    +0.000 A 
ATOM     11  C   UNL     1      14.473  12.843  36.289  0.00  0.00    +0.000 A 
ATOM     12  C   UNL     1      13.088  13.007  36.402  0.00  0.00    +0.000 A 
ATOM     13  C   UNL     1      12.650  11.818  36.945  0.00  0.00    +0.000 A 
ATOM     14  C   UNL     1      11.251  11.457  37.273  0.00  0.00    +0.000 C 
ATOM     15  O   UNL     1      13.682  11.031  37.133  0.00  0.00    +0.000 OA
ENDBRANCH   9  10
BRANCH   1  16
ATOM     16  C   UNL     1      16.775  11.591  34.421  0.00  0.00    +0.000 C 
BRANCH  16  17
ATOM     17  C   UNL     1      16.261  10.472  33.567  0.00  0.00    +0.000 C 
BRANCH  17  19
ATOM     18  C   UNL     1      15.985  12.084  31.807  0.00  0.00    +0.000 C 
ATOM     19  C   UNL     1      15.575  10.919  32.340  0.00  0.00    +0.000 C 
BRANCH  19  20
ATOM     20  N   UNL     1      14.523  10.171  31.731  0.00  0.00    +0.000 NA
ATOM     21  O   UNL     1      13.700   9.371  32.452  0.00  0.00    +0.000 OA
ENDBRANCH  19  20
ENDBRANCH  17  19
ENDBRANCH  16  17
ENDBRANCH   1  16
TORSDOF 5
ENDMDL
MODEL 6
REMARK VINA RESULT:      -6.5     18.168     19.604
REMARK  Name = 
REMARK  5 active torsions:
REMARK  status: ('A' for Active; 'I' for Inactive)
REMARK    1  A    between atoms: C_2  and  C_3
REMARK    2  A    between atoms: C_2  and  N_20
REMARK    3  A    between atoms: C_3  and  C_4
REMARK    4  A    between atoms: C_4  and  C_5
REMARK    5  A    between atoms: C_13  and  C_14
REMARK                            x       y       z     vdW  Elec       q    Type
REMARK                         _______ _______ _______ _____ _____    ______ ____
ROOT
ATOM      1  C   UNL     1      30.310  22.625  25.993  0.00  0.00    +0.000 A 
ATOM      2  O   UNL     1      31.245  22.336  26.865  0.00  0.00    +0.000 OA
ATOM      3  C   UNL     1      30.775  22.490  28.094  0.00  0.00    +0.000 A 
ATOM      4  C   UNL     1      31.369  22.309  29.322  0.00  0.00    +0.000 A 
ATOM      5  C   UNL     1      30.615  22.551  30.472  0.00  0.00    +0.000 A 
ATOM      6  C   UNL     1      29.306  22.961  30.362  0.00  0.00    +0.000 A 
ATOM      7  C   UNL     1      28.692  23.147  29.141  0.00  0.00    +0.000 A 
ATOM      8  C   UNL     1      29.480  22.896  28.026  0.00  0.00    +0.000 A 
ATOM      9  C   UNL     1      29.170  22.986  26.690  0.00  0.00    +0.000 A 
ENDROOT
BRANCH   9  10
ATOM     10  C   UNL     1      27.904  23.381  26.080  0.00  0.00    +0.000 A 
ATOM     11  C   UNL     1      26.906  22.533  25.645  0.00  0.00    +0.000 A 
ATOM     12  C   UNL     1      25.863  23.305  25.123  0.00  0.00    +0.000 A 
ATOM     13  C   UNL     1      26.297  24.605  25.276  0.00  0.00    +0.000 A 
ATOM     14  C   UNL     1      25.567  25.834  24.884  0.00  0.00    +0.000 C 
ATOM     15  O   UNL     1      27.484  24.595  25.834  0.00  0.00    +0.000 OA
ENDBRANCH   9  10
BRANCH   1  16
ATOM     16  C   UNL     1      30.396  22.591  24.492  0.00  0.00    +0.000 C 
BRANCH  16  17
ATOM     17  C   UNL     1      30.885  23.940  24.059  0.00  0.00    +0.000 C 
BRANCH  17  19
ATOM     18  C   UNL     1      29.668  25.953  23.568  0.00  0.00    +0.000 C 
ATOM     19  C   UNL     1      29.929  24.682  23.215  0.00  0.00    +0.000 C 
BRANCH  19  20
ATOM     20  N   UNL     1      29.298  24.100  22.074  0.00  0.00    +0.000 NA
ATOM     21  O   UNL     1      29.747  24.320  20.814  0.00  0.00    +0.000 OA
ENDBRANCH  19  20
ENDBRANCH  17  19
ENDBRANCH  16  17
ENDBRANCH   1  16
TORSDOF 5
ENDMDL
MODEL 7
REMARK VINA RESULT:      -6.4     16.658     19.474
REMARK  Name = 
REMARK  5 active torsions:
REMARK  status: ('A' for Active; 'I' for Inactive)
REMARK    1  A    between atoms: C_2  and  C_3
REMARK    2  A    between atoms: C_2  and  N_20
REMARK    3  A    between atoms: C_3  and  C_4
REMARK    4  A    between atoms: C_4  and  C_5
REMARK    5  A    between atoms: C_13  and  C_14
REMARK                            x       y       z     vdW  Elec       q    Type
REMARK                         _______ _______ _______ _____ _____    ______ ____
ROOT
ATOM      1  C   UNL     1      27.204  24.864  26.259  0.00  0.00    +0.000 A 
ATOM      2  O   UNL     1      26.259  24.929  27.166  0.00  0.00    +0.000 OA
ATOM      3  C   UNL     1      26.570  24.150  28.192  0.00  0.00    +0.000 A 
ATOM      4  C   UNL     1      25.904  23.888  29.367  0.00  0.00    +0.000 A 
ATOM      5  C   UNL     1      26.483  23.007  30.283  0.00  0.00    +0.000 A 
ATOM      6  C   UNL     1      27.696  22.421  30.000  0.00  0.00    +0.000 A 
ATOM      7  C   UNL     1      28.379  22.670  28.828  0.00  0.00    +0.000 A 
ATOM      8  C   UNL     1      27.765  23.551  27.948  0.00  0.00    +0.000 A 
ATOM      9  C   UNL     1      28.181  23.999  26.718  0.00  0.00    +0.000 A 
ENDROOT
BRANCH   9  10
ATOM     10  C   UNL     1      29.403  23.656  25.995  0.00  0.00    +0.000 A 
ATOM     11  C   UNL     1      29.634  22.497  25.282  0.00  0.00    +0.000 A 
ATOM     12  C   UNL     1      30.923  22.557  24.743  0.00  0.00    +0.000 A 
ATOM     13  C   UNL     1      31.411  23.775  25.168  0.00  0.00    +0.000 A 
ATOM     14  C   UNL     1      32.747  24.345  24.876  0.00  0.00    +0.000 C 
ATOM     15  O   UNL     1      30.492  24.373  25.890  0.00  0.00    +0.000 OA
ENDBRANCH   9  10
BRANCH   1  16
ATOM     16  C   UNL     1      27.273  25.579  24.937  0.00  0.00    +0.000 C 
BRANCH  16  17
ATOM     17  C   UNL     1      26.378  24.829  23.998  0.00  0.00    +0.000 C 
BRANCH  17  19
ATOM     18  C   UNL     1      28.345  24.697  22.623  0.00  0.00    +0.000 C 
ATOM     19  C   UNL     1      27.060  24.335  22.786  0.00  0.00    +0.000 C 
BRANCH  19  20
ATOM     20  N   UNL     1      26.408  23.512  21.818  0.00  0.00    +0.000 NA
ATOM     21  O   UNL     1      25.326  22.757  22.130  0.00  0.00    +0.000 OA
ENDBRANCH  19  20
ENDBRANCH  17  19
ENDBRANCH  16  17
ENDBRANCH   1  16
TORSDOF 5
ENDMDL
MODEL 8
REMARK VINA RESULT:      -6.3      3.566      6.388
REMARK  Name = 
REMARK  5 active torsions:
REMARK  status: ('A' for Active; 'I' for Inactive)
REMARK    1  A    between atoms: C_2  and  C_3
REMARK    2  A    between atoms: C_2  and  N_20
REMARK    3  A    between atoms: C_3  and  C_4
REMARK    4  A    between atoms: C_4  and  C_5
REMARK    5  A    between atoms: C_13  and  C_14
REMARK                            x       y       z     vdW  Elec       q    Type
REMARK                         _______ _______ _______ _____ _____    ______ ____
ROOT
ATOM      1  C   UNL     1      17.157  10.749  38.074  0.00  0.00    +0.000 A 
ATOM      2  O   UNL     1      16.121  10.411  38.803  0.00  0.00    +0.000 OA
ATOM      3  C   UNL     1      16.531   9.822  39.917  0.00  0.00    +0.000 A 
ATOM      4  C   UNL     1      15.828   9.300  40.979  0.00  0.00    +0.000 A 
ATOM      5  C   UNL     1      16.539   8.729  42.037  0.00  0.00    +0.000 A 
ATOM      6  C   UNL     1      17.914   8.698  42.001  0.00  0.00    +0.000 A 
ATOM      7  C   UNL     1      18.637   9.215  40.946  0.00  0.00    +0.000 A 
ATOM      8  C   UNL     1      17.888   9.771  39.919  0.00  0.00    +0.000 A 
ATOM      9  C   UNL     1      18.301  10.360  38.748  0.00  0.00    +0.000 A 
ENDROOT
BRANCH   9  10
ATOM     10  C   UNL     1      19.665  10.558  38.266  0.00  0.00    +0.000 A 
ATOM     11  C   UNL     1      20.466  11.657  38.505  0.00  0.00    +0.000 A 
ATOM     12  C   UNL     1      21.695  11.457  37.869  0.00  0.00    +0.000 A 
ATOM     13  C   UNL     1      21.568  10.222  37.269  0.00  0.00    +0.000 A 
ATOM     14  C   UNL     1      22.591   9.522  36.458  0.00  0.00    +0.000 C 
ATOM     15  O   UNL     1      20.375   9.743  37.529  0.00  0.00    +0.000 OA
ENDBRANCH   9  10
BRANCH   1  16
ATOM     16  C   UNL     1      17.167  11.438  36.737  0.00  0.00    +0.000 C 
BRANCH  16  17
ATOM     17  C   UNL     1      16.409  10.554  35.794  0.00  0.00    +0.000 C 
BRANCH  17  19
ATOM     18  C   UNL     1      17.879   8.733  35.247  0.00  0.00    +0.000 C 
ATOM     19  C   UNL     1      17.263   9.848  34.817  0.00  0.00    +0.000 C 
BRANCH  19  20
ATOM     20  N   UNL     1      17.441  10.309  33.478  0.00  0.00    +0.000 NA
ATOM     21  O   UNL     1      16.421  10.837  32.759  0.00  0.00    +0.000 OA
ENDBRANCH  19  20
ENDBRANCH  17  19
ENDBRANCH  16  17
ENDBRANCH   1  16
TORSDOF 5
ENDMDL
MODEL 9
REMARK VINA RESULT:      -6.2     16.846     20.076
REMARK  Name = 
REMARK  5 active torsions:
REMARK  status: ('A' for Active; 'I' for Inactive)
REMARK    1  A    between atoms: C_2  and  C_3
REMARK    2  A    between atoms: C_2  and  N_20
REMARK    3  A    between atoms: C_3  and  C_4
REMARK    4  A    between atoms: C_4  and  C_5
REMARK    5  A    between atoms: C_13  and  C_14
REMARK                            x       y       z     vdW  Elec       q    Type
REMARK                         _______ _______ _______ _____ _____    ______ ____
ROOT
ATOM      1  C   UNL     1      28.578  22.793  26.597  0.00  0.00    +0.000 A 
ATOM      2  O   UNL     1      27.298  22.555  26.452  0.00  0.00    +0.000 OA
ATOM      3  C   UNL     1      26.912  22.905  25.234  0.00  0.00    +0.000 A 
ATOM      4  C   UNL     1      25.682  22.847  24.620  0.00  0.00    +0.000 A 
ATOM      5  C   UNL     1      25.570  23.295  23.302  0.00  0.00    +0.000 A 
ATOM      6  C   UNL     1      26.677  23.782  22.646  0.00  0.00    +0.000 A 
ATOM      7  C   UNL     1      27.919  23.848  23.244  0.00  0.00    +0.000 A 
ATOM      8  C   UNL     1      27.982  23.393  24.553  0.00  0.00    +0.000 A 
ATOM      9  C   UNL     1      29.052  23.327  25.411  0.00  0.00    +0.000 A 
ENDROOT
BRANCH   9  10
ATOM     10  C   UNL     1      30.435  23.729  25.167  0.00  0.00    +0.000 A 
ATOM     11  C   UNL     1      31.425  22.952  24.601  0.00  0.00    +0.000 A 
ATOM     12  C   UNL     1      32.602  23.705  24.544  0.00  0.00    +0.000 A 
ATOM     13  C   UNL     1      32.251  24.922  25.089  0.00  0.00    +0.000 A 
ATOM     14  C   UNL     1      33.134  26.098  25.270  0.00  0.00    +0.000 C 
ATOM     15  O   UNL     1      30.986  24.884  25.434  0.00  0.00    +0.000 OA
ENDBRANCH   9  10
BRANCH   1  16
ATOM     16  C   UNL     1      29.438  22.553  27.808  0.00  0.00    +0.000 C 
BRANCH  16  17
ATOM     17  C   UNL     1      28.844  23.360  28.922  0.00  0.00    +0.000 C 
BRANCH  17  19
ATOM     18  C   UNL     1      28.990  22.420  31.129  0.00  0.00    +0.000 C 
ATOM     19  C   UNL     1      28.260  22.547  30.007  0.00  0.00    +0.000 C 
BRANCH  19  20
ATOM     20  N   UNL     1      26.985  21.916  29.893  0.00  0.00    +0.000 NA
ATOM     21  O   UNL     1      26.001  22.115  30.803  0.00  0.00    +0.000 OA
ENDBRANCH  19  20
ENDBRANCH  17  19
ENDBRANCH  16  17
ENDBRANCH   1  16
TORSDOF 5
ENDMDL
MODEL 10
REMARK VINA RESULT:      -6.2      4.482      8.202
REMARK  Name = 
REMARK  5 active torsions:
REMARK  status: ('A' for Active; 'I' for Inactive)
REMARK    1  A    between atoms: C_2  and  C_3
REMARK    2  A    between atoms: C_2  and  N_20
REMARK    3  A    between atoms: C_3  and  C_4
REMARK    4  A    between atoms: C_4  and  C_5
REMARK    5  A    between atoms: C_13  and  C_14
REMARK                            x       y       z     vdW  Elec       q    Type
REMARK                         _______ _______ _______ _____ _____    ______ ____
ROOT
ATOM      1  C   UNL     1      16.675  10.184  39.116  0.00  0.00    +0.000 A 
ATOM      2  O   UNL     1      15.388  10.386  38.969  0.00  0.00    +0.000 OA
ATOM      3  C   UNL     1      15.174  11.162  37.917  0.00  0.00    +0.000 A 
ATOM      4  C   UNL     1      14.009  11.645  37.367  0.00  0.00    +0.000 A 
ATOM      5  C   UNL     1      14.089  12.457  36.234  0.00  0.00    +0.000 A 
ATOM      6  C   UNL     1      15.318  12.757  35.690  0.00  0.00    +0.000 A 
ATOM      7  C   UNL     1      16.497  12.283  36.226  0.00  0.00    +0.000 A 
ATOM      8  C   UNL     1      16.368  11.481  37.351  0.00  0.00    +0.000 A 
ATOM      9  C   UNL     1      17.334  10.863  38.107  0.00  0.00    +0.000 A 
ENDROOT
BRANCH   9  10
ATOM     10  C   UNL     1      18.783  10.889  37.922  0.00  0.00    +0.000 A 
ATOM     11  C   UNL     1      19.658  11.813  38.456  0.00  0.00    +0.000 A 
ATOM     12  C   UNL     1      20.953  11.488  38.042  0.00  0.00    +0.000 A 
ATOM     13  C   UNL     1      20.786  10.361  37.264  0.00  0.00    +0.000 A 
ATOM     14  C   UNL     1      21.850   9.598  36.571  0.00  0.00    +0.000 C 
ATOM     15  O   UNL     1      19.511  10.056  37.227  0.00  0.00    +0.000 OA
ENDBRANCH   9  10
BRANCH   1  16
ATOM     16  C   UNL     1      17.373   9.370  40.172  0.00  0.00    +0.000 C 
BRANCH  16  17
ATOM     17  C   UNL     1      16.367   9.117  41.253  0.00  0.00    +0.000 C 
BRANCH  17  19
ATOM     18  C   UNL     1      16.149   7.614  43.116  0.00  0.00    +0.000 C 
ATOM     19  C   UNL     1      16.409   7.748  41.803  0.00  0.00    +0.000 C 
BRANCH  19  20
ATOM     20  N   UNL     1      16.711   6.607  41.002  0.00  0.00    +0.000 NA
ATOM     21  O   UNL     1      17.885   5.938  41.117  0.00  0.00    +0.000 OA
ENDBRANCH  19  20
ENDBRANCH  17  19
ENDBRANCH  16  17
ENDBRANCH   1  16
TORSDOF 5
ENDMDL
