MODEL 1
REMARK VINA RESULT:      -6.2      0.000      0.000
REMARK  Name = 
REMARK  2 active torsions:
REMARK  status: ('A' for Active; 'I' for Inactive)
REMARK    1  A    between atoms: N_2  and  C_4
REMARK    2  A    between atoms: C_7  and  C_8
REMARK                            x       y       z     vdW  Elec       q    Type
REMARK                         _______ _______ _______ _____ _____    ______ ____
ROOT
ATOM      1  C   UNL     1      31.862  21.591   9.920  0.00  0.00    +0.000 A 
ATOM      2  N   UNL     1      31.915  21.854   8.603  0.00  0.00    +0.000 NA
ATOM      3  C   UNL     1      32.946  21.381   7.884  0.00  0.00    +0.000 A 
ATOM      4  S   UNL     1      33.028  21.693   6.283  0.00  0.00    +0.000 S 
ATOM      5  N   UNL     1      33.919  20.652   8.459  0.00  0.00    +0.000 NA
ATOM      6  C   UNL     1      33.881  20.379   9.779  0.00  0.00    +0.000 A 
ATOM      7  C   UNL     1      32.840  20.846  10.545  0.00  0.00    +0.000 A 
ATOM      8  C   UNL     1      33.037  20.408  11.954  0.00  0.00    +0.000 C 
ATOM      9  C   UNL     1      34.522  20.033  12.022  0.00  0.00    +0.000 C 
ATOM     10  N   UNL     1      34.759  19.641  10.646  0.00  0.00    +0.000 NA
ENDROOT
BRANCH   1  14
ATOM     11  C   UNL     1      28.592  22.901  12.296  0.00  0.00    +0.000 A 
ATOM     12  C   UNL     1      28.447  21.970  11.304  0.00  0.00    +0.000 A 
ATOM     13  C   UNL     1      29.515  21.553  10.541  0.00  0.00    +0.000 A 
ATOM     14  C   UNL     1      30.768  22.074  10.764  0.00  0.00    +0.000 A 
ATOM     15  C   UNL     1      30.938  23.007  11.751  0.00  0.00    +0.000 A 
ATOM     16  C   UNL     1      29.850  23.421  12.517  0.00  0.00    +0.000 A 
BRANCH  11  18
ATOM     17  C   UNL     1      26.151  22.778  12.910  0.00  0.00    +0.000 C 
ATOM     18  N   UNL     1      27.472  23.337  13.096  0.00  0.00    +0.000 N 
ATOM     19  C   UNL     1      27.634  24.353  14.114  0.00  0.00    +0.000 C 
ENDBRANCH  11  18
ENDBRANCH   1  14
TORSDOF 2
ENDMDL
MODEL 2
REMARK VINA RESULT:      -6.1     28.812     31.385
REMARK  Name = 
REMARK  2 active torsions:
REMARK  status: ('A' for Active; 'I' for Inactive)
REMARK    1  A    between atoms: N_2  and  C_4
REMARK    2  A    between atoms: C_7  and  C_8
REMARK                            x       y       z     vdW  Elec       q    Type
REMARK                         _______ _______ _______ _____ _____    ______ ____
ROOT
ATOM      1  C   UNL     1      18.232  10.257  37.543  0.00  0.00    +0.000 A 
ATOM      2  N   UNL     1      18.149   9.040  38.107  0.00  0.00    +0.000 NA
ATOM      3  C   UNL     1      18.819   8.801  39.246  0.00  0.00    +0.000 A 
ATOM      4  S   UNL     1      18.731   7.326  39.944  0.00  0.00    +0.000 S 
ATOM      5  N   UNL     1      19.567   9.756  39.826  0.00  0.00    +0.000 NA
ATOM      6  C   UNL     1      19.661  10.982  39.274  0.00  0.00    +0.000 A 
ATOM      7  C   UNL     1      18.988  11.262  38.110  0.00  0.00    +0.000 A 
ATOM      8  C   UNL     1      19.257  12.672  37.717  0.00  0.00    +0.000 C 
ATOM      9  C   UNL     1      20.514  13.045  38.513  0.00  0.00    +0.000 C 
ATOM     10  N   UNL     1      20.368  12.173  39.662  0.00  0.00    +0.000 NA
ENDROOT
BRANCH   1  14
ATOM     11  C   UNL     1      16.292  11.133  33.866  0.00  0.00    +0.000 A 
ATOM     12  C   UNL     1      17.411  10.351  33.932  0.00  0.00    +0.000 A 
ATOM     13  C   UNL     1      18.032  10.073  35.131  0.00  0.00    +0.000 A 
ATOM     14  C   UNL     1      17.528  10.587  36.303  0.00  0.00    +0.000 A 
ATOM     15  C   UNL     1      16.408  11.373  36.262  0.00  0.00    +0.000 A 
ATOM     16  C   UNL     1      15.790  11.647  35.043  0.00  0.00    +0.000 A 
BRANCH  11  18
ATOM     17  C   UNL     1      14.720  12.529  32.478  0.00  0.00    +0.000 C 
ATOM     18  N   UNL     1      15.642  11.423  32.610  0.00  0.00    +0.000 N 
ATOM     19  C   UNL     1      15.893  10.613  31.437  0.00  0.00    +0.000 C 
ENDBRANCH  11  18
ENDBRANCH   1  14
TORSDOF 2
ENDMDL
MODEL 3
REMARK VINA RESULT:      -6.0     34.008     35.410
REMARK  Name = 
REMARK  2 active torsions:
REMARK  status: ('A' for Active; 'I' for Inactive)
REMARK    1  A    between atoms: N_2  and  C_4
REMARK    2  A    between atoms: C_7  and  C_8
REMARK                            x       y       z     vdW  Elec       q    Type
REMARK                         _______ _______ _______ _____ _____    ______ ____
ROOT
ATOM      1  C   UNL     1      19.908  -8.107  26.447  0.00  0.00    +0.000 A 
ATOM      2  N   UNL     1      19.396  -9.207  27.022  0.00  0.00    +0.000 NA
ATOM      3  C   UNL     1      18.216  -9.122  27.659  0.00  0.00    +0.000 A 
ATOM      4  S   UNL     1      17.579 -10.450  28.366  0.00  0.00    +0.000 S 
ATOM      5  N   UNL     1      17.545  -7.959  27.728  0.00  0.00    +0.000 NA
ATOM      6  C   UNL     1      18.045  -6.845  27.156  0.00  0.00    +0.000 A 
ATOM      7  C   UNL     1      19.249  -6.896  26.496  0.00  0.00    +0.000 A 
ATOM      8  C   UNL     1      19.570  -5.544  25.961  0.00  0.00    +0.000 C 
ATOM      9  C   UNL     1      18.665  -4.603  26.765  0.00  0.00    +0.000 C 
ATOM     10  N   UNL     1      17.561  -5.494  27.071  0.00  0.00    +0.000 NA
ENDROOT
BRANCH   1  14
ATOM     11  C   UNL     1      23.645  -8.308  24.435  0.00  0.00    +0.000 A 
ATOM     12  C   UNL     1      23.155  -9.351  25.170  0.00  0.00    +0.000 A 
ATOM     13  C   UNL     1      21.941  -9.275  25.817  0.00  0.00    +0.000 A 
ATOM     14  C   UNL     1      21.187  -8.127  25.736  0.00  0.00    +0.000 A 
ATOM     15  C   UNL     1      21.658  -7.068  25.007  0.00  0.00    +0.000 A 
ATOM     16  C   UNL     1      22.887  -7.158  24.356  0.00  0.00    +0.000 A 
BRANCH  11  18
ATOM     17  C   UNL     1      25.533  -9.664  23.465  0.00  0.00    +0.000 C 
ATOM     18  N   UNL     1      24.916  -8.389  23.756  0.00  0.00    +0.000 N 
ATOM     19  C   UNL     1      25.619  -7.193  23.343  0.00  0.00    +0.000 C 
ENDBRANCH  11  18
ENDBRANCH   1  14
TORSDOF 2
ENDMDL
MODEL 4
REMARK VINA RESULT:      -5.9      2.020      2.982
REMARK  Name = 
REMARK  2 active torsions:
REMARK  status: ('A' for Active; 'I' for Inactive)
REMARK    1  A    between atoms: N_2  and  C_4
REMARK    2  A    between atoms: C_7  and  C_8
REMARK                            x       y       z     vdW  Elec       q    Type
REMARK                         _______ _______ _______ _____ _____    ______ ____
ROOT
ATOM      1  C   UNL     1      32.853  21.432  10.568  0.00  0.00    +0.000 A 
ATOM      2  N   UNL     1      33.657  20.712  11.369  0.00  0.00    +0.000 NA
ATOM      3  C   UNL     1      34.897  20.410  10.950  0.00  0.00    +0.000 A 
ATOM      4  S   UNL     1      35.886  19.535  11.910  0.00  0.00    +0.000 S 
ATOM      5  N   UNL     1      35.342  20.816   9.748  0.00  0.00    +0.000 NA
ATOM      6  C   UNL     1      34.549  21.539   8.931  0.00  0.00    +0.000 A 
ATOM      7  C   UNL     1      33.275  21.867   9.329  0.00  0.00    +0.000 A 
ATOM      8  C   UNL     1      32.618  22.660   8.255  0.00  0.00    +0.000 C 
ATOM      9  C   UNL     1      33.465  22.372   7.009  0.00  0.00    +0.000 C 
ATOM     10  N   UNL     1      34.751  22.097   7.622  0.00  0.00    +0.000 NA
ENDROOT
BRANCH   1  14
ATOM     11  C   UNL     1      28.848  22.375  11.626  0.00  0.00    +0.000 A 
ATOM     12  C   UNL     1      29.159  21.318  10.816  0.00  0.00    +0.000 A 
ATOM     13  C   UNL     1      30.462  21.022  10.481  0.00  0.00    +0.000 A 
ATOM     14  C   UNL     1      31.492  21.798  10.961  0.00  0.00    +0.000 A 
ATOM     15  C   UNL     1      31.204  22.862  11.773  0.00  0.00    +0.000 A 
ATOM     16  C   UNL     1      29.882  23.151  12.105  0.00  0.00    +0.000 A 
BRANCH  11  18
ATOM     17  C   UNL     1      27.165  23.437  13.171  0.00  0.00    +0.000 C 
ATOM     18  N   UNL     1      27.482  22.684  11.977  0.00  0.00    +0.000 N 
ATOM     19  C   UNL     1      26.381  22.249  11.145  0.00  0.00    +0.000 C 
ENDBRANCH  11  18
ENDBRANCH   1  14
TORSDOF 2
ENDMDL
MODEL 5
REMARK VINA RESULT:      -5.9     20.588     21.551
REMARK  Name = 
REMARK  2 active torsions:
REMARK  status: ('A' for Active; 'I' for Inactive)
REMARK    1  A    between atoms: N_2  and  C_4
REMARK    2  A    between atoms: C_7  and  C_8
REMARK                            x       y       z     vdW  Elec       q    Type
REMARK                         _______ _______ _______ _____ _____    ______ ____
ROOT
ATOM      1  C   UNL     1      23.399   2.628  17.623  0.00  0.00    +0.000 A 
ATOM      2  N   UNL     1      22.097   2.954  17.689  0.00  0.00    +0.000 NA
ATOM      3  C   UNL     1      21.175   1.978  17.642  0.00  0.00    +0.000 A 
ATOM      4  S   UNL     1      19.588   2.357  17.719  0.00  0.00    +0.000 S 
ATOM      5  N   UNL     1      21.535   0.687  17.531  0.00  0.00    +0.000 NA
ATOM      6  C   UNL     1      22.837   0.342  17.464  0.00  0.00    +0.000 A 
ATOM      7  C   UNL     1      23.806   1.315  17.510  0.00  0.00    +0.000 A 
ATOM      8  C   UNL     1      25.146   0.673  17.419  0.00  0.00    +0.000 C 
ATOM      9  C   UNL     1      24.852  -0.722  16.855  0.00  0.00    +0.000 C 
ATOM     10  N   UNL     1      23.502  -0.927  17.346  0.00  0.00    +0.000 NA
ENDROOT
BRANCH   1  14
ATOM     11  C   UNL     1      26.442   5.592  17.608  0.00  0.00    +0.000 A 
ATOM     12  C   UNL     1      25.721   5.281  16.488  0.00  0.00    +0.000 A 
ATOM     13  C   UNL     1      24.735   4.318  16.506  0.00  0.00    +0.000 A 
ATOM     14  C   UNL     1      24.455   3.639  17.669  0.00  0.00    +0.000 A 
ATOM     15  C   UNL     1      25.165   3.933  18.802  0.00  0.00    +0.000 A 
ATOM     16  C   UNL     1      26.159   4.909  18.772  0.00  0.00    +0.000 A 
BRANCH  11  18
ATOM     17  C   UNL     1      28.083   7.031  16.349  0.00  0.00    +0.000 C 
ATOM     18  N   UNL     1      27.474   6.601  17.588  0.00  0.00    +0.000 N 
ATOM     19  C   UNL     1      27.936   7.219  18.813  0.00  0.00    +0.000 C 
ENDBRANCH  11  18
ENDBRANCH   1  14
TORSDOF 2
ENDMDL
MODEL 6
REMARK VINA RESULT:      -5.8     29.619     32.344
REMARK  Name = 
REMARK  2 active torsions:
REMARK  status: ('A' for Active; 'I' for Inactive)
REMARK    1  A    between atoms: N_2  and  C_4
REMARK    2  A    between atoms: C_7  and  C_8
REMARK                            x       y       z     vdW  Elec       q    Type
REMARK                         _______ _______ _______ _____ _____    ______ ____
ROOT
ATOM      1  C   UNL     1      19.096   9.763  38.306  0.00  0.00    +0.000 A 
ATOM      2  N   UNL     1      20.434   9.649  38.254  0.00  0.00    +0.000 NA
ATOM      3  C   UNL     1      21.099   9.252  39.352  0.00  0.00    +0.000 A 
ATOM      4  S   UNL     1      22.725   9.109  39.307  0.00  0.00    +0.000 S 
ATOM      5  N   UNL     1      20.449   8.968  40.494  0.00  0.00    +0.000 NA
ATOM      6  C   UNL     1      19.106   9.077  40.563  0.00  0.00    +0.000 A 
ATOM      7  C   UNL     1      18.394   9.480  39.460  0.00  0.00    +0.000 A 
ATOM      8  C   UNL     1      16.946   9.518  39.800  0.00  0.00    +0.000 C 
ATOM      9  C   UNL     1      16.926   9.542  41.334  0.00  0.00    +0.000 C 
ATOM     10  N   UNL     1      18.165   8.846  41.625  0.00  0.00    +0.000 NA
ENDROOT
BRANCH   1  14
ATOM     11  C   UNL     1      16.827  10.864  34.887  0.00  0.00    +0.000 A 
ATOM     12  C   UNL     1      17.371   9.618  35.031  0.00  0.00    +0.000 A 
ATOM     13  C   UNL     1      18.105   9.272  36.145  0.00  0.00    +0.000 A 
ATOM     14  C   UNL     1      18.308  10.190  37.149  0.00  0.00    +0.000 A 
ATOM     15  C   UNL     1      17.774  11.444  37.026  0.00  0.00    +0.000 A 
ATOM     16  C   UNL     1      17.033  11.782  35.895  0.00  0.00    +0.000 A 
BRANCH  11  18
ATOM     17  C   UNL     1      14.957  12.159  33.803  0.00  0.00    +0.000 C 
ATOM     18  N   UNL     1      16.058  11.224  33.720  0.00  0.00    +0.000 N 
ATOM     19  C   UNL     1      16.364  10.661  32.422  0.00  0.00    +0.000 C 
ENDBRANCH  11  18
ENDBRANCH   1  14
TORSDOF 2
ENDMDL
MODEL 7
REMARK VINA RESULT:      -5.8     29.523     32.311
REMARK  Name = 
REMARK  2 active torsions:
REMARK  status: ('A' for Active; 'I' for Inactive)
REMARK    1  A    between atoms: N_2  and  C_4
REMARK    2  A    between atoms: C_7  and  C_8
REMARK                            x       y       z     vdW  Elec       q    Type
REMARK                         _______ _______ _______ _____ _____    ______ ____
ROOT
ATOM      1  C   UNL     1      18.260  10.749  37.992  0.00  0.00    +0.000 A 
ATOM      2  N   UNL     1      17.372  11.389  37.212  0.00  0.00    +0.000 NA
ATOM      3  C   UNL     1      16.068  11.336  37.528  0.00  0.00    +0.000 A 
ATOM      4  S   UNL     1      14.975  12.107  36.590  0.00  0.00    +0.000 S 
ATOM      5  N   UNL     1      15.641  10.658  38.607  0.00  0.00    +0.000 NA
ATOM      6  C   UNL     1      16.518  10.010  39.401  0.00  0.00    +0.000 A 
ATOM      7  C   UNL     1      17.860  10.043  39.108  0.00  0.00    +0.000 A 
ATOM      8  C   UNL     1      18.602   9.257  40.130  0.00  0.00    +0.000 C 
ATOM      9  C   UNL     1      17.523   8.384  40.783  0.00  0.00    +0.000 C 
ATOM     10  N   UNL     1      16.354   9.222  40.593  0.00  0.00    +0.000 NA
ENDROOT
BRANCH   1  14
ATOM     11  C   UNL     1      22.439  10.921  37.248  0.00  0.00    +0.000 A 
ATOM     12  C   UNL     1      21.791  11.868  37.993  0.00  0.00    +0.000 A 
ATOM     13  C   UNL     1      20.435  11.801  38.228  0.00  0.00    +0.000 A 
ATOM     14  C   UNL     1      19.695  10.764  37.708  0.00  0.00    +0.000 A 
ATOM     15  C   UNL     1      20.322   9.805  36.959  0.00  0.00    +0.000 A 
ATOM     16  C   UNL     1      21.694   9.884  36.728  0.00  0.00    +0.000 A 
BRANCH  11  18
ATOM     17  C   UNL     1      24.560   9.926  36.320  0.00  0.00    +0.000 C 
ATOM     18  N   UNL     1      23.860  10.992  37.003  0.00  0.00    +0.000 N 
ATOM     19  C   UNL     1      24.635  12.136  37.434  0.00  0.00    +0.000 C 
ENDBRANCH  11  18
ENDBRANCH   1  14
TORSDOF 2
ENDMDL
MODEL 8
REMARK VINA RESULT:      -5.8     29.415     32.223
REMARK  Name = 
REMARK  2 active torsions:
REMARK  status: ('A' for Active; 'I' for Inactive)
REMARK    1  A    between atoms: N_2  and  C_4
REMARK    2  A    between atoms: C_7  and  C_8
REMARK                            x       y       z     vdW  Elec       q    Type
REMARK                         _______ _______ _______ _____ _____    ______ ____
ROOT
ATOM      1  C   UNL     1      18.306  10.460  38.416  0.00  0.00    +0.000 A 
ATOM      2  N   UNL     1      17.954   9.761  39.507  0.00  0.00    +0.000 NA
ATOM      3  C   UNL     1      16.657   9.699  39.853  0.00  0.00    +0.000 A 
ATOM      4  S   UNL     1      16.211   8.854  41.178  0.00  0.00    +0.000 S 
ATOM      5  N   UNL     1      15.713  10.323  39.127  0.00  0.00    +0.000 NA
ATOM      6  C   UNL     1      16.049  11.029  38.028  0.00  0.00    +0.000 A 
ATOM      7  C   UNL     1      17.366  11.113  37.645  0.00  0.00    +0.000 A 
ATOM      8  C   UNL     1      17.464  11.943  36.413  0.00  0.00    +0.000 C 
ATOM      9  C   UNL     1      16.137  12.711  36.377  0.00  0.00    +0.000 C 
ATOM     10  N   UNL     1      15.274  11.781  37.080  0.00  0.00    +0.000 NA
ENDROOT
BRANCH   1  14
ATOM     11  C   UNL     1      22.367  10.898  37.247  0.00  0.00    +0.000 A 
ATOM     12  C   UNL     1      21.780  11.721  38.168  0.00  0.00    +0.000 A 
ATOM     13  C   UNL     1      20.462  11.569  38.539  0.00  0.00    +0.000 A 
ATOM     14  C   UNL     1      19.699  10.570  37.980  0.00  0.00    +0.000 A 
ATOM     15  C   UNL     1      20.265   9.734  37.056  0.00  0.00    +0.000 A 
ATOM     16  C   UNL     1      21.599   9.898  36.689  0.00  0.00    +0.000 A 
BRANCH  11  18
ATOM     17  C   UNL     1      24.539  12.174  37.332  0.00  0.00    +0.000 C 
ATOM     18  N   UNL     1      23.748  11.058  36.859  0.00  0.00    +0.000 N 
ATOM     19  C   UNL     1      24.391  10.105  35.979  0.00  0.00    +0.000 C 
ENDBRANCH  11  18
ENDBRANCH   1  14
TORSDOF 2
ENDMDL
MODEL 9
REMARK VINA RESULT:      -5.5     13.177     15.600
REMARK  Name = 
REMARK  2 active torsions:
REMARK  status: ('A' for Active; 'I' for Inactive)
REMARK    1  A    between atoms: N_2  and  C_4
REMARK    2  A    between atoms: C_7  and  C_8
REMARK                            x       y       z     vdW  Elec       q    Type
REMARK                         _______ _______ _______ _____ _____    ______ ____
ROOT
ATOM      1  C   UNL     1      28.731  24.010  25.223  0.00  0.00    +0.000 A 
ATOM      2  N   UNL     1      28.133  24.003  26.426  0.00  0.00    +0.000 NA
ATOM      3  C   UNL     1      26.818  23.737  26.500  0.00  0.00    +0.000 A 
ATOM      4  S   UNL     1      26.075  23.726  27.954  0.00  0.00    +0.000 S 
ATOM      5  N   UNL     1      26.097  23.480  25.395  0.00  0.00    +0.000 NA
ATOM      6  C   UNL     1      26.682  23.483  24.179  0.00  0.00    +0.000 A 
ATOM      7  C   UNL     1      28.025  23.750  24.066  0.00  0.00    +0.000 A 
ATOM      8  C   UNL     1      28.415  23.692  22.631  0.00  0.00    +0.000 C 
ATOM      9  C   UNL     1      27.084  23.819  21.880  0.00  0.00    +0.000 C 
ATOM     10  N   UNL     1      26.174  23.249  22.855  0.00  0.00    +0.000 NA
ENDROOT
BRANCH   1  14
ATOM     11  C   UNL     1      32.847  24.974  24.792  0.00  0.00    +0.000 A 
ATOM     12  C   UNL     1      31.892  25.929  25.008  0.00  0.00    +0.000 A 
ATOM     13  C   UNL     1      30.560  25.604  25.147  0.00  0.00    +0.000 A 
ATOM     14  C   UNL     1      30.159  24.291  25.068  0.00  0.00    +0.000 A 
ATOM     15  C   UNL     1      31.097  23.317  24.851  0.00  0.00    +0.000 A 
ATOM     16  C   UNL     1      32.441  23.659  24.713  0.00  0.00    +0.000 A 
BRANCH  11  18
ATOM     17  C   UNL     1      34.728  26.641  24.961  0.00  0.00    +0.000 C 
ATOM     18  N   UNL     1      34.242  25.315  24.647  0.00  0.00    +0.000 N 
ATOM     19  C   UNL     1      35.204  24.340  24.180  0.00  0.00    +0.000 C 
ENDBRANCH  11  18
ENDBRANCH   1  14
TORSDOF 2
ENDMDL
MODEL 10
REMARK VINA RESULT:      -5.4     31.889     33.760
REMARK  Name = 
REMARK  2 active torsions:
REMARK  status: ('A' for Active; 'I' for Inactive)
REMARK    1  A    between atoms: N_2  and  C_4
REMARK    2  A    between atoms: C_7  and  C_8
REMARK                            x       y       z     vdW  Elec       q    Type
REMARK                         _______ _______ _______ _____ _____    ______ ____
ROOT
ATOM      1  C   UNL     1      33.328  -0.057  34.837  0.00  0.00    +0.000 A 
ATOM      2  N   UNL     1      33.292   0.877  33.873  0.00  0.00    +0.000 NA
ATOM      3  C   UNL     1      33.573   2.153  34.188  0.00  0.00    +0.000 A 
ATOM      4  S   UNL     1      33.531   3.302  33.029  0.00  0.00    +0.000 S 
ATOM      5  N   UNL     1      33.889   2.504  35.447  0.00  0.00    +0.000 NA
ATOM      6  C   UNL     1      33.931   1.579  36.427  0.00  0.00    +0.000 A 
ATOM      7  C   UNL     1      33.649   0.265  36.140  0.00  0.00    +0.000 A 
ATOM      8  C   UNL     1      33.765  -0.542  37.385  0.00  0.00    +0.000 C 
ATOM      9  C   UNL     1      33.691   0.498  38.510  0.00  0.00    +0.000 C 
ATOM     10  N   UNL     1      34.231   1.661  37.830  0.00  0.00    +0.000 NA
ENDROOT
BRANCH   1  14
ATOM     11  C   UNL     1      32.579  -4.142  33.938  0.00  0.00    +0.000 A 
ATOM     12  C   UNL     1      33.511  -3.404  33.261  0.00  0.00    +0.000 A 
ATOM     13  C   UNL     1      33.746  -2.080  33.562  0.00  0.00    +0.000 A 
ATOM     14  C   UNL     1      33.034  -1.465  34.566  0.00  0.00    +0.000 A 
ATOM     15  C   UNL     1      32.096  -2.183  35.257  0.00  0.00    +0.000 A 
ATOM     16  C   UNL     1      31.868  -3.521  34.943  0.00  0.00    +0.000 A 
BRANCH  11  18
ATOM     17  C   UNL     1      31.151  -6.211  34.097  0.00  0.00    +0.000 C 
ATOM     18  N   UNL     1      32.335  -5.529  33.622  0.00  0.00    +0.000 N 
ATOM     19  C   UNL     1      33.270  -6.286  32.817  0.00  0.00    +0.000 C 
ENDBRANCH  11  18
ENDBRANCH   1  14
TORSDOF 2
ENDMDL
