MODEL 1
REMARK VINA RESULT:      -5.9      0.000      0.000
REMARK  Name = 
REMARK  4 active torsions:
REMARK  status: ('A' for Active; 'I' for Inactive)
REMARK    1  A    between atoms: C_2  and  C_14
REMARK    2  A    between atoms: N_3  and  C_4
REMARK    3  A    between atoms: C_4  and  N_6
REMARK    4  A    between atoms: N_6  and  C_7
REMARK                            x       y       z     vdW  Elec       q    Type
REMARK                         _______ _______ _______ _____ _____    ______ ____
ROOT
ATOM      1  C   UNL     1      33.309  -4.199  33.774  0.00  0.00    +0.000 C 
ATOM      2  S   UNL     1      32.094  -4.859  34.634  0.00  0.00    +0.000 S 
ENDROOT
BRANCH   1   5
ATOM      3  O   UNL     1      35.059  -6.108  32.859  0.00  0.00    +0.000 OA
ATOM      4  C   UNL     1      34.402  -5.530  31.969  0.00  0.00    +0.000 C 
ATOM      5  N   UNL     1      33.481  -4.530  32.406  0.00  0.00    +0.000 NA
BRANCH   4   6
ATOM      6  C   UNL     1      34.572  -5.867  30.532  0.00  0.00    +0.000 C 
ATOM      7  C   UNL     1      33.226  -5.717  29.859  0.00  0.00    +0.000 C 
ATOM      8  C   UNL     1      33.398  -5.946  28.366  0.00  0.00    +0.000 C 
ATOM      9  C   UNL     1      34.511  -6.942  28.086  0.00  0.00    +0.000 C 
ATOM     10  C   UNL     1      34.541  -7.971  29.176  0.00  0.00    +0.000 C 
ATOM     11  C   UNL     1      34.965  -7.328  30.463  0.00  0.00    +0.000 C 
ENDBRANCH   4   6
ENDBRANCH   1   5
BRANCH   1  12
ATOM     12  N   UNL     1      34.185  -3.294  34.420  0.00  0.00    +0.000 NA
BRANCH  12  13
ATOM     13  C   UNL     1      33.916  -1.909  34.550  0.00  0.00    +0.000 A 
ATOM     14  C   UNL     1      33.905  -1.040  33.487  0.00  0.00    +0.000 A 
ATOM     15  C   UNL     1      33.637   0.294  33.683  0.00  0.00    +0.000 A 
ATOM     16  C   UNL     1      33.374   0.776  34.955  0.00  0.00    +0.000 A 
ATOM     17  C   UNL     1      33.381  -0.089  36.037  0.00  0.00    +0.000 A 
ATOM     18  O   UNL     1      33.117   0.386  37.317  0.00  0.00    +0.000 OA
ATOM     19  C   UNL     1      33.653  -1.415  35.804  0.00  0.00    +0.000 A 
ENDBRANCH  12  13
ENDBRANCH   1  12
TORSDOF 4
ENDMDL
MODEL 2
REMARK VINA RESULT:      -5.9     32.000     33.508
REMARK  Name = 
REMARK  4 active torsions:
REMARK  status: ('A' for Active; 'I' for Inactive)
REMARK    1  A    between atoms: C_2  and  C_14
REMARK    2  A    between atoms: N_3  and  C_4
REMARK    3  A    between atoms: C_4  and  N_6
REMARK    4  A    between atoms: N_6  and  C_7
REMARK                            x       y       z     vdW  Elec       q    Type
REMARK                         _______ _______ _______ _____ _____    ______ ____
ROOT
ATOM      1  C   UNL     1      31.333  21.960  10.489  0.00  0.00    +0.000 C 
ATOM      2  S   UNL     1      31.158  22.449   8.946  0.00  0.00    +0.000 S 
ENDROOT
BRANCH   1   5
ATOM      3  O   UNL     1      33.088  19.848  10.539  0.00  0.00    +0.000 OA
ATOM      4  C   UNL     1      33.491  20.877  11.117  0.00  0.00    +0.000 C 
ATOM      5  N   UNL     1      32.606  21.998  11.112  0.00  0.00    +0.000 NA
BRANCH   4   6
ATOM      6  C   UNL     1      34.823  20.932  11.774  0.00  0.00    +0.000 C 
ATOM      7  C   UNL     1      35.808  21.500  10.778  0.00  0.00    +0.000 C 
ATOM      8  C   UNL     1      37.154  21.672  11.465  0.00  0.00    +0.000 C 
ATOM      9  C   UNL     1      37.366  20.613  12.534  0.00  0.00    +0.000 C 
ATOM     10  C   UNL     1      36.721  19.332  12.097  0.00  0.00    +0.000 C 
ATOM     11  C   UNL     1      35.232  19.503  12.067  0.00  0.00    +0.000 C 
ENDBRANCH   4   6
ENDBRANCH   1   5
BRANCH   1  12
ATOM     12  N   UNL     1      30.193  21.497  11.188  0.00  0.00    +0.000 NA
BRANCH  12  13
ATOM     13  C   UNL     1      29.376  22.335  11.987  0.00  0.00    +0.000 A 
ATOM     14  C   UNL     1      29.805  22.914  13.156  0.00  0.00    +0.000 A 
ATOM     15  C   UNL     1      28.960  23.718  13.884  0.00  0.00    +0.000 A 
ATOM     16  C   UNL     1      27.668  23.955  13.446  0.00  0.00    +0.000 A 
ATOM     17  C   UNL     1      27.222  23.379  12.267  0.00  0.00    +0.000 A 
ATOM     18  O   UNL     1      25.926  23.611  11.818  0.00  0.00    +0.000 OA
ATOM     19  C   UNL     1      28.093  22.581  11.567  0.00  0.00    +0.000 A 
ENDBRANCH  12  13
ENDBRANCH   1  12
TORSDOF 4
ENDMDL
MODEL 3
REMARK VINA RESULT:      -5.9      8.505     12.877
REMARK  Name = 
REMARK  4 active torsions:
REMARK  status: ('A' for Active; 'I' for Inactive)
REMARK    1  A    between atoms: C_2  and  C_14
REMARK    2  A    between atoms: N_3  and  C_4
REMARK    3  A    between atoms: C_4  and  N_6
REMARK    4  A    between atoms: N_6  and  C_7
REMARK                            x       y       z     vdW  Elec       q    Type
REMARK                         _______ _______ _______ _____ _____    ______ ____
ROOT
ATOM      1  C   UNL     1      35.789   5.774  37.165  0.00  0.00    +0.000 C 
ATOM      2  S   UNL     1      37.275   5.123  37.298  0.00  0.00    +0.000 S 
ENDROOT
BRANCH   1   5
ATOM      3  O   UNL     1      36.281   7.488  35.076  0.00  0.00    +0.000 OA
ATOM      4  C   UNL     1      35.882   8.039  36.122  0.00  0.00    +0.000 C 
ATOM      5  N   UNL     1      35.615   7.180  37.232  0.00  0.00    +0.000 NA
BRANCH   4   6
ATOM      6  C   UNL     1      35.694   9.510  36.205  0.00  0.00    +0.000 C 
ATOM      7  C   UNL     1      34.208   9.787  36.226  0.00  0.00    +0.000 C 
ATOM      8  C   UNL     1      33.992  11.279  36.426  0.00  0.00    +0.000 C 
ATOM      9  C   UNL     1      35.115  12.088  35.798  0.00  0.00    +0.000 C 
ATOM     10  C   UNL     1      35.592  11.393  34.558  0.00  0.00    +0.000 C 
ATOM     11  C   UNL     1      36.258  10.102  34.930  0.00  0.00    +0.000 C 
ENDBRANCH   4   6
ENDBRANCH   1   5
BRANCH   1  12
ATOM     12  N   UNL     1      34.683   4.911  36.984  0.00  0.00    +0.000 NA
BRANCH  12  13
ATOM     13  C   UNL     1      34.028   4.735  35.740  0.00  0.00    +0.000 A 
ATOM     14  C   UNL     1      33.193   5.675  35.188  0.00  0.00    +0.000 A 
ATOM     15  C   UNL     1      32.588   5.442  33.976  0.00  0.00    +0.000 A 
ATOM     16  C   UNL     1      32.814   4.255  33.298  0.00  0.00    +0.000 A 
ATOM     17  C   UNL     1      33.654   3.297  33.842  0.00  0.00    +0.000 A 
ATOM     18  O   UNL     1      33.887   2.103  33.168  0.00  0.00    +0.000 OA
ATOM     19  C   UNL     1      34.241   3.565  35.054  0.00  0.00    +0.000 A 
ENDBRANCH  12  13
ENDBRANCH   1  12
TORSDOF 4
ENDMDL
MODEL 4
REMARK VINA RESULT:      -5.8     31.834     33.737
REMARK  Name = 
REMARK  4 active torsions:
REMARK  status: ('A' for Active; 'I' for Inactive)
REMARK    1  A    between atoms: C_2  and  C_14
REMARK    2  A    between atoms: N_3  and  C_4
REMARK    3  A    between atoms: C_4  and  N_6
REMARK    4  A    between atoms: N_6  and  C_7
REMARK                            x       y       z     vdW  Elec       q    Type
REMARK                         _______ _______ _______ _____ _____    ______ ____
ROOT
ATOM      1  C   UNL     1      32.132  21.796  10.405  0.00  0.00    +0.000 C 
ATOM      2  S   UNL     1      32.182  20.534   9.377  0.00  0.00    +0.000 S 
ENDROOT
BRANCH   1   5
ATOM      3  O   UNL     1      30.333  21.316  12.424  0.00  0.00    +0.000 OA
ATOM      4  C   UNL     1      30.017  22.243  11.651  0.00  0.00    +0.000 C 
ATOM      5  N   UNL     1      30.928  22.524  10.588  0.00  0.00    +0.000 NA
BRANCH   4   6
ATOM      6  C   UNL     1      28.759  23.014  11.831  0.00  0.00    +0.000 C 
ATOM      7  C   UNL     1      28.501  23.139  13.315  0.00  0.00    +0.000 C 
ATOM      8  C   UNL     1      27.280  24.022  13.526  0.00  0.00    +0.000 C 
ATOM      9  C   UNL     1      26.290  23.874  12.383  0.00  0.00    +0.000 C 
ATOM     10  C   UNL     1      26.318  22.461  11.882  0.00  0.00    +0.000 C 
ATOM     11  C   UNL     1      27.642  22.185  11.233  0.00  0.00    +0.000 C 
ENDBRANCH   4   6
ENDBRANCH   1   5
BRANCH   1  12
ATOM     12  N   UNL     1      33.309  22.147  11.108  0.00  0.00    +0.000 NA
BRANCH  12  13
ATOM     13  C   UNL     1      34.478  21.347  11.120  0.00  0.00    +0.000 A 
ATOM     14  C   UNL     1      35.525  21.529  10.252  0.00  0.00    +0.000 A 
ATOM     15  C   UNL     1      36.632  20.716  10.317  0.00  0.00    +0.000 A 
ATOM     16  C   UNL     1      36.702  19.703  11.261  0.00  0.00    +0.000 A 
ATOM     17  C   UNL     1      35.653  19.508  12.144  0.00  0.00    +0.000 A 
ATOM     18  O   UNL     1      35.714  18.495  13.094  0.00  0.00    +0.000 OA
ATOM     19  C   UNL     1      34.564  20.339  12.049  0.00  0.00    +0.000 A 
ENDBRANCH  12  13
ENDBRANCH   1  12
TORSDOF 4
ENDMDL
MODEL 5
REMARK VINA RESULT:      -5.8     17.970     20.419
REMARK  Name = 
REMARK  4 active torsions:
REMARK  status: ('A' for Active; 'I' for Inactive)
REMARK    1  A    between atoms: C_2  and  C_14
REMARK    2  A    between atoms: N_3  and  C_4
REMARK    3  A    between atoms: C_4  and  N_6
REMARK    4  A    between atoms: N_6  and  C_7
REMARK                            x       y       z     vdW  Elec       q    Type
REMARK                         _______ _______ _______ _____ _____    ______ ____
ROOT
ATOM      1  C   UNL     1      18.882   9.996  38.309  0.00  0.00    +0.000 C 
ATOM      2  S   UNL     1      17.569  10.388  37.430  0.00  0.00    +0.000 S 
ENDROOT
BRANCH   1   5
ATOM      3  O   UNL     1      20.710  12.045  38.327  0.00  0.00    +0.000 OA
ATOM      4  C   UNL     1      21.083  11.016  37.728  0.00  0.00    +0.000 C 
ATOM      5  N   UNL     1      20.159   9.927  37.697  0.00  0.00    +0.000 NA
BRANCH   4   6
ATOM      6  C   UNL     1      22.419  10.930  37.083  0.00  0.00    +0.000 C 
ATOM      7  C   UNL     1      22.677   9.480  36.742  0.00  0.00    +0.000 C 
ATOM      8  C   UNL     1      23.988   9.383  35.978  0.00  0.00    +0.000 C 
ATOM      9  C   UNL     1      24.966  10.458  36.423  0.00  0.00    +0.000 C 
ATOM     10  C   UNL     1      24.780  10.721  37.888  0.00  0.00    +0.000 C 
ATOM     11  C   UNL     1      23.440  11.352  38.119  0.00  0.00    +0.000 C 
ENDBRANCH   4   6
ENDBRANCH   1   5
BRANCH   1  12
ATOM     12  N   UNL     1      18.720   9.725  39.688  0.00  0.00    +0.000 NA
BRANCH  12  13
ATOM     13  C   UNL     1      18.159   8.523  40.186  0.00  0.00    +0.000 A 
ATOM     14  C   UNL     1      16.950   8.467  40.834  0.00  0.00    +0.000 A 
ATOM     15  C   UNL     1      16.462   7.266  41.293  0.00  0.00    +0.000 A 
ATOM     16  C   UNL     1      17.186   6.100  41.106  0.00  0.00    +0.000 A 
ATOM     17  C   UNL     1      18.407   6.141  40.454  0.00  0.00    +0.000 A 
ATOM     18  O   UNL     1      19.140   4.975  40.261  0.00  0.00    +0.000 OA
ATOM     19  C   UNL     1      18.862   7.358  40.009  0.00  0.00    +0.000 A 
ENDBRANCH  12  13
ENDBRANCH   1  12
TORSDOF 4
ENDMDL
MODEL 6
REMARK VINA RESULT:      -5.7     27.730     30.072
REMARK  Name = 
REMARK  4 active torsions:
REMARK  status: ('A' for Active; 'I' for Inactive)
REMARK    1  A    between atoms: C_2  and  C_14
REMARK    2  A    between atoms: N_3  and  C_4
REMARK    3  A    between atoms: C_4  and  N_6
REMARK    4  A    between atoms: N_6  and  C_7
REMARK                            x       y       z     vdW  Elec       q    Type
REMARK                         _______ _______ _______ _____ _____    ______ ____
ROOT
ATOM      1  C   UNL     1      29.417  22.881  24.900  0.00  0.00    +0.000 C 
ATOM      2  S   UNL     1      31.034  22.876  24.715  0.00  0.00    +0.000 S 
ENDROOT
BRANCH   1   5
ATOM      3  O   UNL     1      29.074  25.010  26.600  0.00  0.00    +0.000 OA
ATOM      4  C   UNL     1      28.681  23.913  27.049  0.00  0.00    +0.000 C 
ATOM      5  N   UNL     1      28.843  22.781  26.193  0.00  0.00    +0.000 NA
BRANCH   4   6
ATOM      6  C   UNL     1      28.078  23.795  28.401  0.00  0.00    +0.000 C 
ATOM      7  C   UNL     1      27.642  22.360  28.590  0.00  0.00    +0.000 C 
ATOM      8  C   UNL     1      27.125  22.189  30.010  0.00  0.00    +0.000 C 
ATOM      9  C   UNL     1      26.481  23.467  30.519  0.00  0.00    +0.000 C 
ATOM     10  C   UNL     1      25.804  24.169  29.380  0.00  0.00    +0.000 C 
ATOM     11  C   UNL     1      26.836  24.662  28.409  0.00  0.00    +0.000 C 
ENDBRANCH   4   6
ENDBRANCH   1   5
BRANCH   1  12
ATOM     12  N   UNL     1      28.602  22.985  23.747  0.00  0.00    +0.000 NA
BRANCH  12  13
ATOM     13  C   UNL     1      28.466  24.178  22.995  0.00  0.00    +0.000 A 
ATOM     14  C   UNL     1      27.661  25.223  23.378  0.00  0.00    +0.000 A 
ATOM     15  C   UNL     1      27.574  26.354  22.601  0.00  0.00    +0.000 A 
ATOM     16  C   UNL     1      28.297  26.452  21.424  0.00  0.00    +0.000 A 
ATOM     17  C   UNL     1      29.114  25.406  21.025  0.00  0.00    +0.000 A 
ATOM     18  O   UNL     1      29.844  25.496  19.845  0.00  0.00    +0.000 OA
ATOM     19  C   UNL     1      29.176  24.293  21.826  0.00  0.00    +0.000 A 
ENDBRANCH  12  13
ENDBRANCH   1  12
TORSDOF 4
ENDMDL
MODEL 7
REMARK VINA RESULT:      -5.6     27.605     29.557
REMARK  Name = 
REMARK  4 active torsions:
REMARK  status: ('A' for Active; 'I' for Inactive)
REMARK    1  A    between atoms: C_2  and  C_14
REMARK    2  A    between atoms: N_3  and  C_4
REMARK    3  A    between atoms: C_4  and  N_6
REMARK    4  A    between atoms: N_6  and  C_7
REMARK                            x       y       z     vdW  Elec       q    Type
REMARK                         _______ _______ _______ _____ _____    ______ ____
ROOT
ATOM      1  C   UNL     1      30.697  23.897  25.414  0.00  0.00    +0.000 C 
ATOM      2  S   UNL     1      32.265  24.258  25.669  0.00  0.00    +0.000 S 
ENDROOT
BRANCH   1   5
ATOM      3  O   UNL     1      29.686  22.064  27.192  0.00  0.00    +0.000 OA
ATOM      4  C   UNL     1      29.222  23.216  27.308  0.00  0.00    +0.000 C 
ATOM      5  N   UNL     1      29.724  24.199  26.400  0.00  0.00    +0.000 NA
BRANCH   4   6
ATOM      6  C   UNL     1      28.202  23.546  28.336  0.00  0.00    +0.000 C 
ATOM      7  C   UNL     1      27.576  22.251  28.800  0.00  0.00    +0.000 C 
ATOM      8  C   UNL     1      26.610  22.554  29.935  0.00  0.00    +0.000 C 
ATOM      9  C   UNL     1      25.977  23.925  29.769  0.00  0.00    +0.000 C 
ATOM     10  C   UNL     1      25.788  24.210  28.308  0.00  0.00    +0.000 C 
ATOM     11  C   UNL     1      27.126  24.361  27.649  0.00  0.00    +0.000 C 
ENDBRANCH   4   6
ENDBRANCH   1   5
BRANCH   1  12
ATOM     12  N   UNL     1      30.332  23.279  24.195  0.00  0.00    +0.000 NA
BRANCH  12  13
ATOM     13  C   UNL     1      29.354  23.808  23.316  0.00  0.00    +0.000 A 
ATOM     14  C   UNL     1      29.595  24.856  22.463  0.00  0.00    +0.000 A 
ATOM     15  C   UNL     1      28.601  25.321  21.635  0.00  0.00    +0.000 A 
ATOM     16  C   UNL     1      27.345  24.736  21.651  0.00  0.00    +0.000 A 
ATOM     17  C   UNL     1      27.088  23.677  22.506  0.00  0.00    +0.000 A 
ATOM     18  O   UNL     1      25.830  23.083  22.530  0.00  0.00    +0.000 OA
ATOM     19  C   UNL     1      28.104  23.239  23.319  0.00  0.00    +0.000 A 
ENDBRANCH  12  13
ENDBRANCH   1  12
TORSDOF 4
ENDMDL
MODEL 8
REMARK VINA RESULT:      -5.6      1.715      2.300
REMARK  Name = 
REMARK  4 active torsions:
REMARK  status: ('A' for Active; 'I' for Inactive)
REMARK    1  A    between atoms: C_2  and  C_14
REMARK    2  A    between atoms: N_3  and  C_4
REMARK    3  A    between atoms: C_4  and  N_6
REMARK    4  A    between atoms: N_6  and  C_7
REMARK                            x       y       z     vdW  Elec       q    Type
REMARK                         _______ _______ _______ _____ _____    ______ ____
ROOT
ATOM      1  C   UNL     1      33.743  -4.649  34.036  0.00  0.00    +0.000 C 
ATOM      2  S   UNL     1      34.771  -5.170  35.185  0.00  0.00    +0.000 S 
ENDROOT
BRANCH   1   5
ATOM      3  O   UNL     1      32.335  -6.780  33.025  0.00  0.00    +0.000 OA
ATOM      4  C   UNL     1      33.110  -6.233  32.215  0.00  0.00    +0.000 C 
ATOM      5  N   UNL     1      33.860  -5.120  32.703  0.00  0.00    +0.000 NA
BRANCH   4   6
ATOM      6  C   UNL     1      33.243  -6.716  30.816  0.00  0.00    +0.000 C 
ATOM      7  C   UNL     1      34.697  -7.054  30.578  0.00  0.00    +0.000 C 
ATOM      8  C   UNL     1      34.837  -7.657  29.189  0.00  0.00    +0.000 C 
ATOM      9  C   UNL     1      33.813  -7.076  28.229  0.00  0.00    +0.000 C 
ATOM     10  C   UNL     1      33.566  -5.638  28.579  0.00  0.00    +0.000 C 
ATOM     11  C   UNL     1      32.882  -5.556  29.911  0.00  0.00    +0.000 C 
ENDBRANCH   4   6
ENDBRANCH   1   5
BRANCH   1  12
ATOM     12  N   UNL     1      32.736  -3.722  34.394  0.00  0.00    +0.000 NA
BRANCH  12  13
ATOM     13  C   UNL     1      32.950  -2.322  34.448  0.00  0.00    +0.000 A 
ATOM     14  C   UNL     1      32.456  -1.522  35.448  0.00  0.00    +0.000 A 
ATOM     15  C   UNL     1      32.701  -0.169  35.442  0.00  0.00    +0.000 A 
ATOM     16  C   UNL     1      33.450   0.402  34.425  0.00  0.00    +0.000 A 
ATOM     17  C   UNL     1      33.956  -0.393  33.410  0.00  0.00    +0.000 A 
ATOM     18  O   UNL     1      34.709   0.170  32.386  0.00  0.00    +0.000 OA
ATOM     19  C   UNL     1      33.691  -1.740  33.450  0.00  0.00    +0.000 A 
ENDBRANCH  12  13
ENDBRANCH   1  12
TORSDOF 4
ENDMDL
MODEL 9
REMARK VINA RESULT:      -5.6     18.855     20.407
REMARK  Name = 
REMARK  4 active torsions:
REMARK  status: ('A' for Active; 'I' for Inactive)
REMARK    1  A    between atoms: C_2  and  C_14
REMARK    2  A    between atoms: N_3  and  C_4
REMARK    3  A    between atoms: C_4  and  N_6
REMARK    4  A    between atoms: N_6  and  C_7
REMARK                            x       y       z     vdW  Elec       q    Type
REMARK                         _______ _______ _______ _____ _____    ______ ____
ROOT
ATOM      1  C   UNL     1      16.539  -9.918  26.612  0.00  0.00    +0.000 C 
ATOM      2  S   UNL     1      17.099 -10.949  25.482  0.00  0.00    +0.000 S 
ENDROOT
BRANCH   1   5
ATOM      3  O   UNL     1      14.986  -8.118  25.237  0.00  0.00    +0.000 OA
ATOM      4  C   UNL     1      14.370  -8.810  26.073  0.00  0.00    +0.000 C 
ATOM      5  N   UNL     1      15.144  -9.759  26.808  0.00  0.00    +0.000 NA
BRANCH   4   6
ATOM      6  C   UNL     1      12.908  -8.654  26.288  0.00  0.00    +0.000 C 
ATOM      7  C   UNL     1      12.451  -9.776  27.193  0.00  0.00    +0.000 C 
ATOM      8  C   UNL     1      10.980  -9.571  27.519  0.00  0.00    +0.000 C 
ATOM      9  C   UNL     1      10.248  -8.901  26.369  0.00  0.00    +0.000 C 
ATOM     10  C   UNL     1      10.839  -9.362  25.070  0.00  0.00    +0.000 C 
ATOM     11  C   UNL     1      12.239  -8.842  24.942  0.00  0.00    +0.000 C 
ENDBRANCH   4   6
ENDBRANCH   1   5
BRANCH   1  12
ATOM     12  N   UNL     1      17.472  -9.189  27.388  0.00  0.00    +0.000 NA
BRANCH  12  13
ATOM     13  C   UNL     1      18.270  -8.142  26.866  0.00  0.00    +0.000 A 
ATOM     14  C   UNL     1      19.475  -8.352  26.242  0.00  0.00    +0.000 A 
ATOM     15  C   UNL     1      20.201  -7.289  25.757  0.00  0.00    +0.000 A 
ATOM     16  C   UNL     1      19.724  -5.996  25.892  0.00  0.00    +0.000 A 
ATOM     17  C   UNL     1      18.509  -5.769  26.518  0.00  0.00    +0.000 A 
ATOM     18  O   UNL     1      18.022  -4.474  26.658  0.00  0.00    +0.000 OA
ATOM     19  C   UNL     1      17.812  -6.854  26.990  0.00  0.00    +0.000 A 
ENDBRANCH  12  13
ENDBRANCH   1  12
TORSDOF 4
ENDMDL
MODEL 10
REMARK VINA RESULT:      -5.6     27.305     28.675
REMARK  Name = 
REMARK  4 active torsions:
REMARK  status: ('A' for Active; 'I' for Inactive)
REMARK    1  A    between atoms: C_2  and  C_14
REMARK    2  A    between atoms: N_3  and  C_4
REMARK    3  A    between atoms: C_4  and  N_6
REMARK    4  A    between atoms: N_6  and  C_7
REMARK                            x       y       z     vdW  Elec       q    Type
REMARK                         _______ _______ _______ _____ _____    ______ ____
ROOT
ATOM      1  C   UNL     1      30.272  23.620  27.367  0.00  0.00    +0.000 C 
ATOM      2  S   UNL     1      31.753  24.260  27.587  0.00  0.00    +0.000 S 
ENDROOT
BRANCH   1   5
ATOM      3  O   UNL     1      30.548  21.997  25.169  0.00  0.00    +0.000 OA
ATOM      4  C   UNL     1      29.754  22.948  25.021  0.00  0.00    +0.000 C 
ATOM      5  N   UNL     1      29.583  23.815  26.143  0.00  0.00    +0.000 NA
BRANCH   4   6
ATOM      6  C   UNL     1      29.025  23.164  23.744  0.00  0.00    +0.000 C 
ATOM      7  C   UNL     1      29.657  24.344  23.043  0.00  0.00    +0.000 C 
ATOM      8  C   UNL     1      29.001  24.513  21.681  0.00  0.00    +0.000 C 
ATOM      9  C   UNL     1      27.547  24.076  21.713  0.00  0.00    +0.000 C 
ATOM     10  C   UNL     1      26.960  24.401  23.054  0.00  0.00    +0.000 C 
ATOM     11  C   UNL     1      27.604  23.545  24.104  0.00  0.00    +0.000 C 
ENDBRANCH   4   6
ENDBRANCH   1   5
BRANCH   1  12
ATOM     12  N   UNL     1      29.693  22.871  28.418  0.00  0.00    +0.000 NA
BRANCH  12  13
ATOM     13  C   UNL     1      28.500  23.253  29.080  0.00  0.00    +0.000 A 
ATOM     14  C   UNL     1      28.083  24.556  29.192  0.00  0.00    +0.000 A 
ATOM     15  C   UNL     1      26.913  24.858  29.848  0.00  0.00    +0.000 A 
ATOM     16  C   UNL     1      26.142  23.850  30.404  0.00  0.00    +0.000 A 
ATOM     17  C   UNL     1      26.549  22.530  30.299  0.00  0.00    +0.000 A 
ATOM     18  O   UNL     1      25.782  21.512  30.853  0.00  0.00    +0.000 OA
ATOM     19  C   UNL     1      27.723  22.266  29.636  0.00  0.00    +0.000 A 
ENDBRANCH  12  13
ENDBRANCH   1  12
TORSDOF 4
ENDMDL
