MODEL 1
REMARK VINA RESULT:      -8.8      0.000      0.000
REMARK  Name = 
REMARK  9 active torsions:
REMARK  status: ('A' for Active; 'I' for Inactive)
REMARK    1  A    between atoms: C_6  and  C_7
REMARK    2  A    between atoms: C_10  and  N_11
REMARK    3  A    between atoms: C_12  and  C_14
REMARK    4  A    between atoms: C_14  and  O_15
REMARK    5  A    between atoms: O_15  and  C_16
REMARK    6  A    between atoms: C_16  and  C_18
REMARK    7  A    between atoms: C_18  and  C_19
REMARK    8  A    between atoms: C_19  and  C_20
REMARK    9  A    between atoms: C_19  and  C_26
REMARK                            x       y       z     vdW  Elec       q    Type
REMARK                         _______ _______ _______ _____ _____    ______ ____
ROOT
ATOM      1  C   UNL     1      38.527   4.390  17.263  0.00  0.00    +0.000 C 
ATOM      2  O   UNL     1      38.832   4.752  16.111  0.00  0.00    +0.000 OA
ENDROOT
BRANCH   1   3
ATOM      3  O   UNL     1      37.633   3.317  17.359  0.00  0.00    +0.000 OA
BRANCH   3   4
ATOM      4  C   UNL     1      36.456   3.198  16.634  0.00  0.00    +0.000 C 
BRANCH   4   6
ATOM      5  N   UNL     1      37.203   0.780  16.368  0.00  0.00    +0.000 NA
ATOM      6  C   UNL     1      36.148   1.764  16.435  0.00  0.00    +0.000 C 
ATOM      7  O   UNL     1      34.949   1.387  16.320  0.00  0.00    +0.000 OA
BRANCH   5  14
ATOM      8  C   UNL     1      36.859  -0.211  13.763  0.00  0.00    +0.000 C 
ATOM      9  C   UNL     1      36.602  -1.115  14.923  0.00  0.00    +0.000 A 
ATOM     10  C   UNL     1      36.201  -2.419  14.723  0.00  0.00    +0.000 A 
ATOM     11  C   UNL     1      35.968  -3.242  15.803  0.00  0.00    +0.000 A 
ATOM     12  C   UNL     1      36.152  -2.706  17.059  0.00  0.00    +0.000 A 
ATOM     13  C   UNL     1      36.555  -1.393  17.253  0.00  0.00    +0.000 A 
ATOM     14  C   UNL     1      36.790  -0.565  16.177  0.00  0.00    +0.000 A 
BRANCH  13  15
ATOM     15  C   UNL     1      36.753  -0.816  18.606  0.00  0.00    +0.000 C 
ATOM     16  C   UNL     1      37.620  -1.702  19.472  0.00  0.00    +0.000 C 
ATOM     17  C   UNL     1      35.464  -0.445  19.269  0.00  0.00    +0.000 C 
ENDBRANCH  13  15
ENDBRANCH   5  14
ENDBRANCH   4   6
ENDBRANCH   3   4
ENDBRANCH   1   3
BRANCH   1  18
ATOM     18  C   UNL     1      39.007   4.971  18.521  0.00  0.00    +0.000 C 
BRANCH  18  19
ATOM     19  C   UNL     1      39.616   6.320  18.414  0.00  0.00    +0.000 C 
BRANCH  19  20
ATOM     20  C   UNL     1      41.010   6.433  18.850  0.00  0.00    +0.000 A 
ATOM     21  C   UNL     1      42.049   6.770  18.011  0.00  0.00    +0.000 A 
ATOM     22  C   UNL     1      43.315   6.846  18.524  0.00  0.00    +0.000 A 
ATOM     23  C   UNL     1      43.554   6.593  19.850  0.00  0.00    +0.000 A 
ATOM     24  C   UNL     1      42.512   6.255  20.698  0.00  0.00    +0.000 A 
ATOM     25  C   UNL     1      41.260   6.179  20.190  0.00  0.00    +0.000 A 
ENDBRANCH  19  20
BRANCH  19  26
ATOM     26  C   UNL     1      38.748   7.434  18.863  0.00  0.00    +0.000 A 
ATOM     27  C   UNL     1      38.777   7.873  20.173  0.00  0.00    +0.000 A 
ATOM     28  C   UNL     1      37.926   8.919  20.490  0.00  0.00    +0.000 A 
ATOM     29  C   UNL     1      37.097   9.498  19.578  0.00  0.00    +0.000 A 
ATOM     30  C   UNL     1      37.068   9.061  18.276  0.00  0.00    +0.000 A 
ATOM     31  C   UNL     1      37.908   8.021  17.943  0.00  0.00    +0.000 A 
ENDBRANCH  19  26
ENDBRANCH  18  19
ENDBRANCH   1  18
TORSDOF 9
ENDMDL
MODEL 2
REMARK VINA RESULT:      -8.5      1.106      2.329
REMARK  Name = 
REMARK  9 active torsions:
REMARK  status: ('A' for Active; 'I' for Inactive)
REMARK    1  A    between atoms: C_6  and  C_7
REMARK    2  A    between atoms: C_10  and  N_11
REMARK    3  A    between atoms: C_12  and  C_14
REMARK    4  A    between atoms: C_14  and  O_15
REMARK    5  A    between atoms: O_15  and  C_16
REMARK    6  A    between atoms: C_16  and  C_18
REMARK    7  A    between atoms: C_18  and  C_19
REMARK    8  A    between atoms: C_19  and  C_20
REMARK    9  A    between atoms: C_19  and  C_26
REMARK                            x       y       z     vdW  Elec       q    Type
REMARK                         _______ _______ _______ _____ _____    ______ ____
ROOT
ATOM      1  C   UNL     1      38.591   4.503  17.140  0.00  0.00    +0.000 C 
ATOM      2  O   UNL     1      38.854   5.020  16.038  0.00  0.00    +0.000 OA
ENDROOT
BRANCH   1   3
ATOM      3  O   UNL     1      37.804   3.347  17.111  0.00  0.00    +0.000 OA
BRANCH   3   4
ATOM      4  C   UNL     1      36.542   3.261  16.539  0.00  0.00    +0.000 C 
BRANCH   4   6
ATOM      5  N   UNL     1      36.947   0.749  16.603  0.00  0.00    +0.000 NA
ATOM      6  C   UNL     1      36.353   1.905  15.974  0.00  0.00    +0.000 C 
ATOM      7  O   UNL     1      35.664   1.749  14.929  0.00  0.00    +0.000 OA
BRANCH   5  14
ATOM      8  C   UNL     1      34.664  -0.728  17.305  0.00  0.00    +0.000 C 
ATOM      9  C   UNL     1      35.595  -1.276  16.274  0.00  0.00    +0.000 A 
ATOM     10  C   UNL     1      35.340  -2.490  15.673  0.00  0.00    +0.000 A 
ATOM     11  C   UNL     1      36.207  -2.984  14.722  0.00  0.00    +0.000 A 
ATOM     12  C   UNL     1      37.312  -2.219  14.415  0.00  0.00    +0.000 A 
ATOM     13  C   UNL     1      37.562  -0.998  15.024  0.00  0.00    +0.000 A 
ATOM     14  C   UNL     1      36.698  -0.500  15.975  0.00  0.00    +0.000 A 
BRANCH  13  15
ATOM     15  C   UNL     1      38.751  -0.175  14.693  0.00  0.00    +0.000 C 
ATOM     16  C   UNL     1      38.630   0.461  13.326  0.00  0.00    +0.000 C 
ATOM     17  C   UNL     1      40.036  -0.921  14.870  0.00  0.00    +0.000 C 
ENDBRANCH  13  15
ENDBRANCH   5  14
ENDBRANCH   4   6
ENDBRANCH   3   4
ENDBRANCH   1   3
BRANCH   1  18
ATOM     18  C   UNL     1      39.022   4.981  18.458  0.00  0.00    +0.000 C 
BRANCH  18  19
ATOM     19  C   UNL     1      39.646   6.328  18.480  0.00  0.00    +0.000 C 
BRANCH  19  20
ATOM     20  C   UNL     1      41.011   6.396  19.008  0.00  0.00    +0.000 A 
ATOM     21  C   UNL     1      41.335   6.148  20.324  0.00  0.00    +0.000 A 
ATOM     22  C   UNL     1      42.643   6.241  20.711  0.00  0.00    +0.000 A 
ATOM     23  C   UNL     1      43.622   6.575  19.812  0.00  0.00    +0.000 A 
ATOM     24  C   UNL     1      43.302   6.826  18.487  0.00  0.00    +0.000 A 
ATOM     25  C   UNL     1      42.007   6.735  18.104  0.00  0.00    +0.000 A 
ENDBRANCH  19  20
BRANCH  19  26
ATOM     26  C   UNL     1      38.760   7.419  18.948  0.00  0.00    +0.000 A 
ATOM     27  C   UNL     1      38.833   7.886  20.246  0.00  0.00    +0.000 A 
ATOM     28  C   UNL     1      37.960   8.907  20.582  0.00  0.00    +0.000 A 
ATOM     29  C   UNL     1      37.068   9.437  19.698  0.00  0.00    +0.000 A 
ATOM     30  C   UNL     1      36.995   8.971  18.409  0.00  0.00    +0.000 A 
ATOM     31  C   UNL     1      37.856   7.956  18.056  0.00  0.00    +0.000 A 
ENDBRANCH  19  26
ENDBRANCH  18  19
ENDBRANCH   1  18
TORSDOF 9
ENDMDL
MODEL 3
REMARK VINA RESULT:      -8.5      1.341      3.703
REMARK  Name = 
REMARK  9 active torsions:
REMARK  status: ('A' for Active; 'I' for Inactive)
REMARK    1  A    between atoms: C_6  and  C_7
REMARK    2  A    between atoms: C_10  and  N_11
REMARK    3  A    between atoms: C_12  and  C_14
REMARK    4  A    between atoms: C_14  and  O_15
REMARK    5  A    between atoms: O_15  and  C_16
REMARK    6  A    between atoms: C_16  and  C_18
REMARK    7  A    between atoms: C_18  and  C_19
REMARK    8  A    between atoms: C_19  and  C_20
REMARK    9  A    between atoms: C_19  and  C_26
REMARK                            x       y       z     vdW  Elec       q    Type
REMARK                         _______ _______ _______ _____ _____    ______ ____
ROOT
ATOM      1  C   UNL     1      38.246   4.083  16.517  0.00  0.00    +0.000 C 
ATOM      2  O   UNL     1      37.747   3.517  17.508  0.00  0.00    +0.000 OA
ENDROOT
BRANCH   1   3
ATOM      3  O   UNL     1      37.937   3.535  15.268  0.00  0.00    +0.000 OA
BRANCH   3   4
ATOM      4  C   UNL     1      38.568   2.433  14.708  0.00  0.00    +0.000 C 
BRANCH   4   6
ATOM      5  N   UNL     1      37.930   0.161  15.661  0.00  0.00    +0.000 NA
ATOM      6  C   UNL     1      37.660   1.265  14.770  0.00  0.00    +0.000 C 
ATOM      7  O   UNL     1      36.634   1.226  14.037  0.00  0.00    +0.000 OA
BRANCH   5  14
ATOM      8  C   UNL     1      38.248  -1.934  13.818  0.00  0.00    +0.000 C 
ATOM      9  C   UNL     1      37.089  -1.963  14.757  0.00  0.00    +0.000 A 
ATOM     10  C   UNL     1      36.184  -3.003  14.724  0.00  0.00    +0.000 A 
ATOM     11  C   UNL     1      35.118  -3.018  15.598  0.00  0.00    +0.000 A 
ATOM     12  C   UNL     1      35.010  -1.966  16.481  0.00  0.00    +0.000 A 
ATOM     13  C   UNL     1      35.923  -0.923  16.510  0.00  0.00    +0.000 A 
ATOM     14  C   UNL     1      36.991  -0.903  15.638  0.00  0.00    +0.000 A 
BRANCH  13  15
ATOM     15  C   UNL     1      35.806   0.210  17.461  0.00  0.00    +0.000 C 
ATOM     16  C   UNL     1      35.626  -0.270  18.884  0.00  0.00    +0.000 C 
ATOM     17  C   UNL     1      34.764   1.202  17.051  0.00  0.00    +0.000 C 
ENDBRANCH  13  15
ENDBRANCH   5  14
ENDBRANCH   4   6
ENDBRANCH   3   4
ENDBRANCH   1   3
BRANCH   1  18
ATOM     18  C   UNL     1      39.121   5.261  16.528  0.00  0.00    +0.000 C 
BRANCH  18  19
ATOM     19  C   UNL     1      39.119   6.050  17.786  0.00  0.00    +0.000 C 
BRANCH  19  20
ATOM     20  C   UNL     1      38.263   7.239  17.798  0.00  0.00    +0.000 A 
ATOM     21  C   UNL     1      37.774   7.816  18.949  0.00  0.00    +0.000 A 
ATOM     22  C   UNL     1      36.981   8.926  18.845  0.00  0.00    +0.000 A 
ATOM     23  C   UNL     1      36.673   9.460  17.621  0.00  0.00    +0.000 A 
ATOM     24  C   UNL     1      37.163   8.883  16.460  0.00  0.00    +0.000 A 
ATOM     25  C   UNL     1      37.947   7.785  16.563  0.00  0.00    +0.000 A 
ENDBRANCH  19  20
BRANCH  19  26
ATOM     26  C   UNL     1      40.455   6.258  18.392  0.00  0.00    +0.000 A 
ATOM     27  C   UNL     1      41.557   6.534  17.606  0.00  0.00    +0.000 A 
ATOM     28  C   UNL     1      42.759   6.711  18.272  0.00  0.00    +0.000 A 
ATOM     29  C   UNL     1      42.872   6.623  19.627  0.00  0.00    +0.000 A 
ATOM     30  C   UNL     1      41.776   6.347  20.408  0.00  0.00    +0.000 A 
ATOM     31  C   UNL     1      40.573   6.169  19.762  0.00  0.00    +0.000 A 
ENDBRANCH  19  26
ENDBRANCH  18  19
ENDBRANCH   1  18
TORSDOF 9
ENDMDL
MODEL 4
REMARK VINA RESULT:      -8.3      2.789      5.078
REMARK  Name = 
REMARK  9 active torsions:
REMARK  status: ('A' for Active; 'I' for Inactive)
REMARK    1  A    between atoms: C_6  and  C_7
REMARK    2  A    between atoms: C_10  and  N_11
REMARK    3  A    between atoms: C_12  and  C_14
REMARK    4  A    between atoms: C_14  and  O_15
REMARK    5  A    between atoms: O_15  and  C_16
REMARK    6  A    between atoms: C_16  and  C_18
REMARK    7  A    between atoms: C_18  and  C_19
REMARK    8  A    between atoms: C_19  and  C_20
REMARK    9  A    between atoms: C_19  and  C_26
REMARK                            x       y       z     vdW  Elec       q    Type
REMARK                         _______ _______ _______ _____ _____    ______ ____
ROOT
ATOM      1  C   UNL     1      35.570   1.979  16.074  0.00  0.00    +0.000 C 
ATOM      2  O   UNL     1      35.125   1.673  14.951  0.00  0.00    +0.000 OA
ENDROOT
BRANCH   1   3
ATOM      3  O   UNL     1      35.529   0.978  17.050  0.00  0.00    +0.000 OA
BRANCH   3   4
ATOM      4  C   UNL     1      35.243  -0.358  16.805  0.00  0.00    +0.000 C 
BRANCH   4   6
ATOM      5  N   UNL     1      37.753  -0.750  16.648  0.00  0.00    +0.000 NA
ATOM      6  C   UNL     1      36.414  -1.000  16.166  0.00  0.00    +0.000 C 
ATOM      7  O   UNL     1      36.250  -1.777  15.186  0.00  0.00    +0.000 OA
BRANCH   5  14
ATOM      8  C   UNL     1      38.608  -3.273  17.537  0.00  0.00    +0.000 C 
ATOM      9  C   UNL     1      39.266  -2.662  16.345  0.00  0.00    +0.000 A 
ATOM     10  C   UNL     1      40.281  -3.323  15.687  0.00  0.00    +0.000 A 
ATOM     11  C   UNL     1      40.880  -2.748  14.587  0.00  0.00    +0.000 A 
ATOM     12  C   UNL     1      40.422  -1.509  14.193  0.00  0.00    +0.000 A 
ATOM     13  C   UNL     1      39.401  -0.849  14.860  0.00  0.00    +0.000 A 
ATOM     14  C   UNL     1      38.799  -1.420  15.960  0.00  0.00    +0.000 A 
BRANCH  13  15
ATOM     15  C   UNL     1      38.908   0.485  14.435  0.00  0.00    +0.000 C 
ATOM     16  C   UNL     1      38.104   0.405  13.157  0.00  0.00    +0.000 C 
ATOM     17  C   UNL     1      39.999   1.508  14.368  0.00  0.00    +0.000 C 
ENDBRANCH  13  15
ENDBRANCH   5  14
ENDBRANCH   4   6
ENDBRANCH   3   4
ENDBRANCH   1   3
BRANCH   1  18
ATOM     18  C   UNL     1      36.128   3.275  16.473  0.00  0.00    +0.000 C 
BRANCH  18  19
ATOM     19  C   UNL     1      37.249   3.776  15.640  0.00  0.00    +0.000 C 
BRANCH  19  20
ATOM     20  C   UNL     1      38.292   4.525  16.346  0.00  0.00    +0.000 A 
ATOM     21  C   UNL     1      39.332   5.169  15.714  0.00  0.00    +0.000 A 
ATOM     22  C   UNL     1      40.252   5.839  16.472  0.00  0.00    +0.000 A 
ATOM     23  C   UNL     1      40.148   5.874  17.839  0.00  0.00    +0.000 A 
ATOM     24  C   UNL     1      39.103   5.228  18.480  0.00  0.00    +0.000 A 
ATOM     25  C   UNL     1      38.193   4.564  17.729  0.00  0.00    +0.000 A 
ENDBRANCH  19  20
BRANCH  19  26
ATOM     26  C   UNL     1      36.845   4.373  14.345  0.00  0.00    +0.000 A 
ATOM     27  C   UNL     1      35.911   5.390  14.293  0.00  0.00    +0.000 A 
ATOM     28  C   UNL     1      35.603   5.877  13.033  0.00  0.00    +0.000 A 
ATOM     29  C   UNL     1      36.177   5.397  11.895  0.00  0.00    +0.000 A 
ATOM     30  C   UNL     1      37.105   4.385  11.948  0.00  0.00    +0.000 A 
ATOM     31  C   UNL     1      37.423   3.888  13.192  0.00  0.00    +0.000 A 
ENDBRANCH  19  26
ENDBRANCH  18  19
ENDBRANCH   1  18
TORSDOF 9
ENDMDL
MODEL 5
REMARK VINA RESULT:      -8.2      2.535      5.095
REMARK  Name = 
REMARK  9 active torsions:
REMARK  status: ('A' for Active; 'I' for Inactive)
REMARK    1  A    between atoms: C_6  and  C_7
REMARK    2  A    between atoms: C_10  and  N_11
REMARK    3  A    between atoms: C_12  and  C_14
REMARK    4  A    between atoms: C_14  and  O_15
REMARK    5  A    between atoms: O_15  and  C_16
REMARK    6  A    between atoms: C_16  and  C_18
REMARK    7  A    between atoms: C_18  and  C_19
REMARK    8  A    between atoms: C_19  and  C_20
REMARK    9  A    between atoms: C_19  and  C_26
REMARK                            x       y       z     vdW  Elec       q    Type
REMARK                         _______ _______ _______ _____ _____    ______ ____
ROOT
ATOM      1  C   UNL     1      35.753   3.527  15.133  0.00  0.00    +0.000 C 
ATOM      2  O   UNL     1      34.561   3.778  14.873  0.00  0.00    +0.000 OA
ENDROOT
BRANCH   1   3
ATOM      3  O   UNL     1      36.026   2.243  15.618  0.00  0.00    +0.000 OA
BRANCH   3   4
ATOM      4  C   UNL     1      35.295   1.106  15.305  0.00  0.00    +0.000 C 
BRANCH   4   6
ATOM      5  N   UNL     1      37.221   0.034  16.578  0.00  0.00    +0.000 NA
ATOM      6  C   UNL     1      35.931  -0.073  15.937  0.00  0.00    +0.000 C 
ATOM      7  O   UNL     1      35.344  -1.190  15.922  0.00  0.00    +0.000 OA
BRANCH   5  14
ATOM      8  C   UNL     1      36.470  -0.686  19.186  0.00  0.00    +0.000 C 
ATOM      9  C   UNL     1      37.404  -1.571  18.429  0.00  0.00    +0.000 A 
ATOM     10  C   UNL     1      37.894  -2.727  19.000  0.00  0.00    +0.000 A 
ATOM     11  C   UNL     1      38.754  -3.535  18.289  0.00  0.00    +0.000 A 
ATOM     12  C   UNL     1      39.090  -3.135  17.014  0.00  0.00    +0.000 A 
ATOM     13  C   UNL     1      38.594  -1.972  16.446  0.00  0.00    +0.000 A 
ATOM     14  C   UNL     1      37.733  -1.160  17.152  0.00  0.00    +0.000 A 
BRANCH  13  15
ATOM     15  C   UNL     1      38.956  -1.542  15.073  0.00  0.00    +0.000 C 
ATOM     16  C   UNL     1      38.171  -2.296  14.024  0.00  0.00    +0.000 C 
ATOM     17  C   UNL     1      40.432  -1.580  14.827  0.00  0.00    +0.000 C 
ENDBRANCH  13  15
ENDBRANCH   5  14
ENDBRANCH   4   6
ENDBRANCH   3   4
ENDBRANCH   1   3
BRANCH   1  18
ATOM     18  C   UNL     1      36.894   4.437  14.982  0.00  0.00    +0.000 C 
BRANCH  18  19
ATOM     19  C   UNL     1      38.207   3.898  15.415  0.00  0.00    +0.000 C 
BRANCH  19  20
ATOM     20  C   UNL     1      38.949   4.711  16.383  0.00  0.00    +0.000 A 
ATOM     21  C   UNL     1      40.010   5.521  16.047  0.00  0.00    +0.000 A 
ATOM     22  C   UNL     1      40.633   6.237  17.032  0.00  0.00    +0.000 A 
ATOM     23  C   UNL     1      40.214   6.155  18.334  0.00  0.00    +0.000 A 
ATOM     24  C   UNL     1      39.146   5.342  18.678  0.00  0.00    +0.000 A 
ATOM     25  C   UNL     1      38.531   4.633  17.703  0.00  0.00    +0.000 A 
ENDBRANCH  19  20
BRANCH  19  26
ATOM     26  C   UNL     1      39.042   3.340  14.326  0.00  0.00    +0.000 A 
ATOM     27  C   UNL     1      39.701   2.136  14.482  0.00  0.00    +0.000 A 
ATOM     28  C   UNL     1      40.456   1.704  13.404  0.00  0.00    +0.000 A 
ATOM     29  C   UNL     1      40.557   2.411  12.243  0.00  0.00    +0.000 A 
ATOM     30  C   UNL     1      39.903   3.608  12.089  0.00  0.00    +0.000 A 
ATOM     31  C   UNL     1      39.147   4.053  13.151  0.00  0.00    +0.000 A 
ENDBRANCH  19  26
ENDBRANCH  18  19
ENDBRANCH   1  18
TORSDOF 9
ENDMDL
MODEL 6
REMARK VINA RESULT:      -8.1      2.734      4.573
REMARK  Name = 
REMARK  9 active torsions:
REMARK  status: ('A' for Active; 'I' for Inactive)
REMARK    1  A    between atoms: C_6  and  C_7
REMARK    2  A    between atoms: C_10  and  N_11
REMARK    3  A    between atoms: C_12  and  C_14
REMARK    4  A    between atoms: C_14  and  O_15
REMARK    5  A    between atoms: O_15  and  C_16
REMARK    6  A    between atoms: C_16  and  C_18
REMARK    7  A    between atoms: C_18  and  C_19
REMARK    8  A    between atoms: C_19  and  C_20
REMARK    9  A    between atoms: C_19  and  C_26
REMARK                            x       y       z     vdW  Elec       q    Type
REMARK                         _______ _______ _______ _____ _____    ______ ____
ROOT
ATOM      1  C   UNL     1      35.589   2.375  16.233  0.00  0.00    +0.000 C 
ATOM      2  O   UNL     1      34.851   2.454  15.234  0.00  0.00    +0.000 OA
ENDROOT
BRANCH   1   3
ATOM      3  O   UNL     1      35.594   1.149  16.906  0.00  0.00    +0.000 OA
BRANCH   3   4
ATOM      4  C   UNL     1      35.250  -0.069  16.337  0.00  0.00    +0.000 C 
BRANCH   4   6
ATOM      5  N   UNL     1      37.733  -0.604  16.501  0.00  0.00    +0.000 NA
ATOM      6  C   UNL     1      36.469  -0.726  15.812  0.00  0.00    +0.000 C 
ATOM      7  O   UNL     1      36.412  -1.404  14.749  0.00  0.00    +0.000 OA
BRANCH   5  14
ATOM      8  C   UNL     1      39.381   0.761  14.682  0.00  0.00    +0.000 C 
ATOM      9  C   UNL     1      39.682  -0.664  15.006  0.00  0.00    +0.000 A 
ATOM     10  C   UNL     1      40.754  -1.306  14.423  0.00  0.00    +0.000 A 
ATOM     11  C   UNL     1      41.022  -2.622  14.732  0.00  0.00    +0.000 A 
ATOM     12  C   UNL     1      40.182  -3.244  15.630  0.00  0.00    +0.000 A 
ATOM     13  C   UNL     1      39.105  -2.593  16.213  0.00  0.00    +0.000 A 
ATOM     14  C   UNL     1      38.833  -1.277  15.908  0.00  0.00    +0.000 A 
BRANCH  13  15
ATOM     15  C   UNL     1      38.201  -3.264  17.180  0.00  0.00    +0.000 C 
ATOM     16  C   UNL     1      38.808  -3.327  18.564  0.00  0.00    +0.000 C 
ATOM     17  C   UNL     1      37.727  -4.598  16.696  0.00  0.00    +0.000 C 
ENDBRANCH  13  15
ENDBRANCH   5  14
ENDBRANCH   4   6
ENDBRANCH   3   4
ENDBRANCH   1   3
BRANCH   1  18
ATOM     18  C   UNL     1      36.450   3.434  16.774  0.00  0.00    +0.000 C 
BRANCH  18  19
ATOM     19  C   UNL     1      37.551   3.882  15.885  0.00  0.00    +0.000 C 
BRANCH  19  20
ATOM     20  C   UNL     1      38.606   4.677  16.519  0.00  0.00    +0.000 A 
ATOM     21  C   UNL     1      39.631   5.280  15.825  0.00  0.00    +0.000 A 
ATOM     22  C   UNL     1      40.565   6.000  16.518  0.00  0.00    +0.000 A 
ATOM     23  C   UNL     1      40.489   6.125  17.880  0.00  0.00    +0.000 A 
ATOM     24  C   UNL     1      39.460   5.520  18.584  0.00  0.00    +0.000 A 
ATOM     25  C   UNL     1      38.536   4.807  17.898  0.00  0.00    +0.000 A 
ENDBRANCH  19  20
BRANCH  19  26
ATOM     26  C   UNL     1      37.117   4.393  14.564  0.00  0.00    +0.000 A 
ATOM     27  C   UNL     1      36.311   5.511  14.465  0.00  0.00    +0.000 A 
ATOM     28  C   UNL     1      35.962   5.906  13.184  0.00  0.00    +0.000 A 
ATOM     29  C   UNL     1      36.378   5.244  12.069  0.00  0.00    +0.000 A 
ATOM     30  C   UNL     1      37.178   4.133  12.168  0.00  0.00    +0.000 A 
ATOM     31  C   UNL     1      37.536   3.726  13.434  0.00  0.00    +0.000 A 
ENDBRANCH  19  26
ENDBRANCH  18  19
ENDBRANCH   1  18
TORSDOF 9
ENDMDL
MODEL 7
REMARK VINA RESULT:      -8.1      2.175      3.022
REMARK  Name = 
REMARK  9 active torsions:
REMARK  status: ('A' for Active; 'I' for Inactive)
REMARK    1  A    between atoms: C_6  and  C_7
REMARK    2  A    between atoms: C_10  and  N_11
REMARK    3  A    between atoms: C_12  and  C_14
REMARK    4  A    between atoms: C_14  and  O_15
REMARK    5  A    between atoms: O_15  and  C_16
REMARK    6  A    between atoms: C_16  and  C_18
REMARK    7  A    between atoms: C_18  and  C_19
REMARK    8  A    between atoms: C_19  and  C_20
REMARK    9  A    between atoms: C_19  and  C_26
REMARK                            x       y       z     vdW  Elec       q    Type
REMARK                         _______ _______ _______ _____ _____    ______ ____
ROOT
ATOM      1  C   UNL     1      37.821   3.874  16.113  0.00  0.00    +0.000 C 
ATOM      2  O   UNL     1      36.751   4.058  15.503  0.00  0.00    +0.000 OA
ENDROOT
BRANCH   1   3
ATOM      3  O   UNL     1      38.558   2.743  15.746  0.00  0.00    +0.000 OA
BRANCH   3   4
ATOM      4  C   UNL     1      38.442   2.080  14.532  0.00  0.00    +0.000 C 
BRANCH   4   6
ATOM      5  N   UNL     1      37.774  -0.144  15.574  0.00  0.00    +0.000 NA
ATOM      6  C   UNL     1      37.491   0.954  14.679  0.00  0.00    +0.000 C 
ATOM      7  O   UNL     1      36.417   0.947  14.018  0.00  0.00    +0.000 OA
BRANCH   5  14
ATOM      8  C   UNL     1      37.883  -2.289  13.764  0.00  0.00    +0.000 C 
ATOM      9  C   UNL     1      36.786  -2.248  14.776  0.00  0.00    +0.000 A 
ATOM     10  C   UNL     1      35.838  -3.248  14.825  0.00  0.00    +0.000 A 
ATOM     11  C   UNL     1      34.831  -3.198  15.764  0.00  0.00    +0.000 A 
ATOM     12  C   UNL     1      34.824  -2.123  16.628  0.00  0.00    +0.000 A 
ATOM     13  C   UNL     1      35.781  -1.122  16.573  0.00  0.00    +0.000 A 
ATOM     14  C   UNL     1      36.791  -1.167  15.636  0.00  0.00    +0.000 A 
BRANCH  13  15
ATOM     15  C   UNL     1      35.773   0.035  17.503  0.00  0.00    +0.000 C 
ATOM     16  C   UNL     1      35.623  -0.404  18.942  0.00  0.00    +0.000 C 
ATOM     17  C   UNL     1      34.778   1.082  17.113  0.00  0.00    +0.000 C 
ENDBRANCH  13  15
ENDBRANCH   5  14
ENDBRANCH   4   6
ENDBRANCH   3   4
ENDBRANCH   1   3
BRANCH   1  18
ATOM     18  C   UNL     1      38.383   4.718  17.173  0.00  0.00    +0.000 C 
BRANCH  18  19
ATOM     19  C   UNL     1      39.690   5.351  16.865  0.00  0.00    +0.000 C 
BRANCH  19  20
ATOM     20  C   UNL     1      40.379   5.986  17.992  0.00  0.00    +0.000 A 
ATOM     21  C   UNL     1      41.709   6.341  17.972  0.00  0.00    +0.000 A 
ATOM     22  C   UNL     1      42.253   6.928  19.081  0.00  0.00    +0.000 A 
ATOM     23  C   UNL     1      41.494   7.162  20.198  0.00  0.00    +0.000 A 
ATOM     24  C   UNL     1      40.155   6.807  20.223  0.00  0.00    +0.000 A 
ATOM     25  C   UNL     1      39.617   6.225  19.125  0.00  0.00    +0.000 A 
ENDBRANCH  19  20
BRANCH  19  26
ATOM     26  C   UNL     1      39.719   6.143  15.613  0.00  0.00    +0.000 A 
ATOM     27  C   UNL     1      39.011   7.324  15.502  0.00  0.00    +0.000 A 
ATOM     28  C   UNL     1      39.105   7.986  14.289  0.00  0.00    +0.000 A 
ATOM     29  C   UNL     1      39.849   7.518  13.249  0.00  0.00    +0.000 A 
ATOM     30  C   UNL     1      40.551   6.343  13.358  0.00  0.00    +0.000 A 
ATOM     31  C   UNL     1      40.470   5.671  14.558  0.00  0.00    +0.000 A 
ENDBRANCH  19  26
ENDBRANCH  18  19
ENDBRANCH   1  18
TORSDOF 9
ENDMDL
MODEL 8
REMARK VINA RESULT:      -8.1      4.600      9.167
REMARK  Name = 
REMARK  9 active torsions:
REMARK  status: ('A' for Active; 'I' for Inactive)
REMARK    1  A    between atoms: C_6  and  C_7
REMARK    2  A    between atoms: C_10  and  N_11
REMARK    3  A    between atoms: C_12  and  C_14
REMARK    4  A    between atoms: C_14  and  O_15
REMARK    5  A    between atoms: O_15  and  C_16
REMARK    6  A    between atoms: C_16  and  C_18
REMARK    7  A    between atoms: C_18  and  C_19
REMARK    8  A    between atoms: C_19  and  C_20
REMARK    9  A    between atoms: C_19  and  C_26
REMARK                            x       y       z     vdW  Elec       q    Type
REMARK                         _______ _______ _______ _____ _____    ______ ____
ROOT
ATOM      1  C   UNL     1      38.435  -2.541  14.008  0.00  0.00    +0.000 C 
ATOM      2  O   UNL     1      38.312  -3.262  13.000  0.00  0.00    +0.000 OA
ENDROOT
BRANCH   1   3
ATOM      3  O   UNL     1      39.007  -1.281  13.804  0.00  0.00    +0.000 OA
BRANCH   3   4
ATOM      4  C   UNL     1      39.373  -0.403  14.814  0.00  0.00    +0.000 C 
BRANCH   4   6
ATOM      5  N   UNL     1      37.524   1.072  13.874  0.00  0.00    +0.000 NA
ATOM      6  C   UNL     1      38.803   0.934  14.531  0.00  0.00    +0.000 C 
ATOM      7  O   UNL     1      39.437   1.973  14.865  0.00  0.00    +0.000 OA
BRANCH   5  14
ATOM      8  C   UNL     1      38.201   2.393  11.490  0.00  0.00    +0.000 C 
ATOM      9  C   UNL     1      37.373   3.107  12.505  0.00  0.00    +0.000 A 
ATOM     10  C   UNL     1      36.944   4.398  12.280  0.00  0.00    +0.000 A 
ATOM     11  C   UNL     1      36.180   5.046  13.226  0.00  0.00    +0.000 A 
ATOM     12  C   UNL     1      35.876   4.352  14.378  0.00  0.00    +0.000 A 
ATOM     13  C   UNL     1      36.311   3.053  14.598  0.00  0.00    +0.000 A 
ATOM     14  C   UNL     1      37.076   2.401  13.655  0.00  0.00    +0.000 A 
BRANCH  13  15
ATOM     15  C   UNL     1      35.984   2.307  15.838  0.00  0.00    +0.000 C 
ATOM     16  C   UNL     1      34.491   2.217  16.061  0.00  0.00    +0.000 C 
ATOM     17  C   UNL     1      36.716   2.828  17.035  0.00  0.00    +0.000 C 
ENDBRANCH  13  15
ENDBRANCH   5  14
ENDBRANCH   4   6
ENDBRANCH   3   4
ENDBRANCH   1   3
BRANCH   1  18
ATOM     18  C   UNL     1      38.044  -2.879  15.381  0.00  0.00    +0.000 C 
BRANCH  18  19
ATOM     19  C   UNL     1      36.605  -2.701  15.701  0.00  0.00    +0.000 C 
BRANCH  19  20
ATOM     20  C   UNL     1      36.305  -1.915  16.900  0.00  0.00    +0.000 A 
ATOM     21  C   UNL     1      35.085  -1.321  17.139  0.00  0.00    +0.000 A 
ATOM     22  C   UNL     1      34.913  -0.607  18.294  0.00  0.00    +0.000 A 
ATOM     23  C   UNL     1      35.932  -0.481  19.202  0.00  0.00    +0.000 A 
ATOM     24  C   UNL     1      37.161  -1.077  18.966  0.00  0.00    +0.000 A 
ATOM     25  C   UNL     1      37.331  -1.782  17.824  0.00  0.00    +0.000 A 
ENDBRANCH  19  20
BRANCH  19  26
ATOM     26  C   UNL     1      35.778  -3.921  15.553  0.00  0.00    +0.000 A 
ATOM     27  C   UNL     1      36.092  -5.079  16.237  0.00  0.00    +0.000 A 
ATOM     28  C   UNL     1      35.256  -6.164  16.028  0.00  0.00    +0.000 A 
ATOM     29  C   UNL     1      34.177  -6.114  15.198  0.00  0.00    +0.000 A 
ATOM     30  C   UNL     1      33.865  -4.963  14.517  0.00  0.00    +0.000 A 
ATOM     31  C   UNL     1      34.686  -3.874  14.713  0.00  0.00    +0.000 A 
ENDBRANCH  19  26
ENDBRANCH  18  19
ENDBRANCH   1  18
TORSDOF 9
ENDMDL
MODEL 9
REMARK VINA RESULT:      -8.0      2.621      4.347
REMARK  Name = 
REMARK  9 active torsions:
REMARK  status: ('A' for Active; 'I' for Inactive)
REMARK    1  A    between atoms: C_6  and  C_7
REMARK    2  A    between atoms: C_10  and  N_11
REMARK    3  A    between atoms: C_12  and  C_14
REMARK    4  A    between atoms: C_14  and  O_15
REMARK    5  A    between atoms: O_15  and  C_16
REMARK    6  A    between atoms: C_16  and  C_18
REMARK    7  A    between atoms: C_18  and  C_19
REMARK    8  A    between atoms: C_19  and  C_20
REMARK    9  A    between atoms: C_19  and  C_26
REMARK                            x       y       z     vdW  Elec       q    Type
REMARK                         _______ _______ _______ _____ _____    ______ ____
ROOT
ATOM      1  C   UNL     1      36.057   2.705  16.510  0.00  0.00    +0.000 C 
ATOM      2  O   UNL     1      35.161   3.282  15.865  0.00  0.00    +0.000 OA
ENDROOT
BRANCH   1   3
ATOM      3  O   UNL     1      35.740   1.440  17.016  0.00  0.00    +0.000 OA
BRANCH   3   4
ATOM      4  C   UNL     1      35.297   0.369  16.252  0.00  0.00    +0.000 C 
BRANCH   4   6
ATOM      5  N   UNL     1      37.721  -0.378  16.467  0.00  0.00    +0.000 NA
ATOM      6  C   UNL     1      36.466  -0.393  15.754  0.00  0.00    +0.000 C 
ATOM      7  O   UNL     1      36.371  -1.067  14.692  0.00  0.00    +0.000 OA
BRANCH   5  14
ATOM      8  C   UNL     1      39.418   0.788  14.556  0.00  0.00    +0.000 C 
ATOM      9  C   UNL     1      39.640  -0.633  14.954  0.00  0.00    +0.000 A 
ATOM     10  C   UNL     1      40.664  -1.368  14.393  0.00  0.00    +0.000 A 
ATOM     11  C   UNL     1      40.858  -2.679  14.770  0.00  0.00    +0.000 A 
ATOM     12  C   UNL     1      39.998  -3.201  15.711  0.00  0.00    +0.000 A 
ATOM     13  C   UNL     1      38.970  -2.457  16.271  0.00  0.00    +0.000 A 
ATOM     14  C   UNL     1      38.771  -1.145  15.898  0.00  0.00    +0.000 A 
BRANCH  13  15
ATOM     15  C   UNL     1      38.044  -3.020  17.285  0.00  0.00    +0.000 C 
ATOM     16  C   UNL     1      38.755  -3.333  18.582  0.00  0.00    +0.000 C 
ATOM     17  C   UNL     1      37.257  -4.182  16.764  0.00  0.00    +0.000 C 
ENDBRANCH  13  15
ENDBRANCH   5  14
ENDBRANCH   4   6
ENDBRANCH   3   4
ENDBRANCH   1   3
BRANCH   1  18
ATOM     18  C   UNL     1      37.403   3.216  16.791  0.00  0.00    +0.000 C 
BRANCH  18  19
ATOM     19  C   UNL     1      37.725   4.539  16.198  0.00  0.00    +0.000 C 
BRANCH  19  20
ATOM     20  C   UNL     1      38.395   4.514  14.895  0.00  0.00    +0.000 A 
ATOM     21  C   UNL     1      39.750   4.332  14.736  0.00  0.00    +0.000 A 
ATOM     22  C   UNL     1      40.272   4.327  13.472  0.00  0.00    +0.000 A 
ATOM     23  C   UNL     1      39.467   4.500  12.376  0.00  0.00    +0.000 A 
ATOM     24  C   UNL     1      38.102   4.683  12.531  0.00  0.00    +0.000 A 
ATOM     25  C   UNL     1      37.586   4.688  13.782  0.00  0.00    +0.000 A 
ENDBRANCH  19  20
BRANCH  19  26
ATOM     26  C   UNL     1      38.283   5.528  17.148  0.00  0.00    +0.000 A 
ATOM     27  C   UNL     1      38.165   6.885  16.912  0.00  0.00    +0.000 A 
ATOM     28  C   UNL     1      38.723   7.725  17.862  0.00  0.00    +0.000 A 
ATOM     29  C   UNL     1      39.357   7.263  18.975  0.00  0.00    +0.000 A 
ATOM     30  C   UNL     1      39.475   5.915  19.209  0.00  0.00    +0.000 A 
ATOM     31  C   UNL     1      38.926   5.064  18.275  0.00  0.00    +0.000 A 
ENDBRANCH  19  26
ENDBRANCH  18  19
ENDBRANCH   1  18
TORSDOF 9
ENDMDL
MODEL 10
REMARK VINA RESULT:      -8.0      2.737      4.393
REMARK  Name = 
REMARK  9 active torsions:
REMARK  status: ('A' for Active; 'I' for Inactive)
REMARK    1  A    between atoms: C_6  and  C_7
REMARK    2  A    between atoms: C_10  and  N_11
REMARK    3  A    between atoms: C_12  and  C_14
REMARK    4  A    between atoms: C_14  and  O_15
REMARK    5  A    between atoms: O_15  and  C_16
REMARK    6  A    between atoms: C_16  and  C_18
REMARK    7  A    between atoms: C_18  and  C_19
REMARK    8  A    between atoms: C_19  and  C_20
REMARK    9  A    between atoms: C_19  and  C_26
REMARK                            x       y       z     vdW  Elec       q    Type
REMARK                         _______ _______ _______ _____ _____    ______ ____
ROOT
ATOM      1  C   UNL     1      40.027   2.671  13.790  0.00  0.00    +0.000 C 
ATOM      2  O   UNL     1      40.840   3.435  13.237  0.00  0.00    +0.000 OA
ENDROOT
BRANCH   1   3
ATOM      3  O   UNL     1      40.064   1.330  13.392  0.00  0.00    +0.000 OA
BRANCH   3   4
ATOM      4  C   UNL     1      40.477   0.276  14.195  0.00  0.00    +0.000 C 
BRANCH   4   6
ATOM      5  N   UNL     1      38.807  -0.533  15.937  0.00  0.00    +0.000 NA
ATOM      6  C   UNL     1      39.299  -0.535  14.579  0.00  0.00    +0.000 C 
ATOM      7  O   UNL     1      38.711  -1.241  13.714  0.00  0.00    +0.000 OA
BRANCH   5  14
ATOM      8  C   UNL     1      39.155  -3.242  16.591  0.00  0.00    +0.000 C 
ATOM      9  C   UNL     1      37.772  -2.686  16.516  0.00  0.00    +0.000 A 
ATOM     10  C   UNL     1      36.678  -3.487  16.763  0.00  0.00    +0.000 A 
ATOM     11  C   UNL     1      35.407  -2.960  16.691  0.00  0.00    +0.000 A 
ATOM     12  C   UNL     1      35.293  -1.625  16.366  0.00  0.00    +0.000 A 
ATOM     13  C   UNL     1      36.398  -0.825  16.119  0.00  0.00    +0.000 A 
ATOM     14  C   UNL     1      37.671  -1.347  16.190  0.00  0.00    +0.000 A 
BRANCH  13  15
ATOM     15  C   UNL     1      36.274   0.612  15.769  0.00  0.00    +0.000 C 
ATOM     16  C   UNL     1      35.321   1.334  16.694  0.00  0.00    +0.000 C 
ATOM     17  C   UNL     1      35.950   0.828  14.324  0.00  0.00    +0.000 C 
ENDBRANCH  13  15
ENDBRANCH   5  14
ENDBRANCH   4   6
ENDBRANCH   3   4
ENDBRANCH   1   3
BRANCH   1  18
ATOM     18  C   UNL     1      39.038   3.034  14.811  0.00  0.00    +0.000 C 
BRANCH  18  19
ATOM     19  C   UNL     1      38.837   4.490  15.021  0.00  0.00    +0.000 C 
BRANCH  19  20
ATOM     20  C   UNL     1      39.251   5.015  16.325  0.00  0.00    +0.000 A 
ATOM     21  C   UNL     1      38.587   4.750  17.502  0.00  0.00    +0.000 A 
ATOM     22  C   UNL     1      39.060   5.293  18.665  0.00  0.00    +0.000 A 
ATOM     23  C   UNL     1      40.177   6.089  18.667  0.00  0.00    +0.000 A 
ATOM     24  C   UNL     1      40.849   6.358  17.486  0.00  0.00    +0.000 A 
ATOM     25  C   UNL     1      40.380   5.821  16.335  0.00  0.00    +0.000 A 
ENDBRANCH  19  20
BRANCH  19  26
ATOM     26  C   UNL     1      37.538   5.016  14.541  0.00  0.00    +0.000 A 
ATOM     27  C   UNL     1      36.371   4.297  14.718  0.00  0.00    +0.000 A 
ATOM     28  C   UNL     1      35.211   4.877  14.232  0.00  0.00    +0.000 A 
ATOM     29  C   UNL     1      35.197   6.089  13.610  0.00  0.00    +0.000 A 
ATOM     30  C   UNL     1      36.357   6.803  13.433  0.00  0.00    +0.000 A 
ATOM     31  C   UNL     1      37.520   6.241  13.911  0.00  0.00    +0.000 A 
ENDBRANCH  19  26
ENDBRANCH  18  19
ENDBRANCH   1  18
TORSDOF 9
ENDMDL
