MODEL 1
REMARK VINA RESULT:      -8.8      0.000      0.000
REMARK  Name = 
REMARK  6 active torsions:
REMARK  status: ('A' for Active; 'I' for Inactive)
REMARK    1  A    between atoms: C_2  and  N_3
REMARK    2  A    between atoms: C_4  and  S_5
REMARK    3  A    between atoms: S_5  and  C_6
REMARK    4  A    between atoms: C_6  and  C_7
REMARK    5  A    between atoms: N_9  and  N_10
REMARK    6  A    between atoms: C_11  and  C_13
REMARK                            x       y       z     vdW  Elec       q    Type
REMARK                         _______ _______ _______ _____ _____    ______ ____
ROOT
ATOM      1  C   UNL     1      36.122   2.369  15.558  0.00  0.00    +0.000 C 
ATOM      2  O   UNL     1      35.141   2.934  16.150  0.00  0.00    +0.000 OA
ATOM      3  N   UNL     1      37.419   2.757  15.964  0.00  0.00    +0.000 NA
ENDROOT
BRANCH   3   4
ATOM      4  N   UNL     1      37.693   3.699  16.951  0.00  0.00    +0.000 NA
ATOM      5  C   UNL     1      38.509   4.678  16.855  0.00  0.00    +0.000 C 
ATOM      6  C   UNL     1      39.246   4.840  15.568  0.00  0.00    +0.000 C 
BRANCH   5   7
ATOM      7  C   UNL     1      38.752   5.650  17.895  0.00  0.00    +0.000 A 
ATOM      8  C   UNL     1      39.784   5.472  18.783  0.00  0.00    +0.000 A 
ATOM      9  C   UNL     1      40.034   6.403  19.793  0.00  0.00    +0.000 A 
ATOM     10  C   UNL     1      39.231   7.517  19.898  0.00  0.00    +0.000 A 
ATOM     11  C   UNL     1      39.467   8.440  20.890  0.00  0.00    +0.000 A 
ATOM     12  C   UNL     1      38.681   9.568  21.025  0.00  0.00    +0.000 A 
ATOM     13  C   UNL     1      37.653   9.747  20.141  0.00  0.00    +0.000 A 
ATOM     14  C   UNL     1      37.409   8.841  19.157  0.00  0.00    +0.000 A 
ATOM     15  C   UNL     1      38.195   7.718  19.026  0.00  0.00    +0.000 A 
ATOM     16  C   UNL     1      37.977   6.774  18.037  0.00  0.00    +0.000 A 
ENDBRANCH   5   7
ENDBRANCH   3   4
BRANCH   1  17
ATOM     17  C   UNL     1      35.933   1.379  14.511  0.00  0.00    +0.000 C 
BRANCH  17  18
ATOM     18  S   UNL     1      37.160   0.159  14.374  0.00  0.00    +0.000 S 
BRANCH  18  20
ATOM     19  N   UNL     1      38.177  -2.036  15.780  0.00  0.00    +0.000 N 
ATOM     20  C   UNL     1      37.572  -0.864  15.731  0.00  0.00    +0.000 A 
ATOM     21  N   UNL     1      37.241  -0.529  17.025  0.00  0.00    +0.000 NA
ATOM     22  C   UNL     1      37.632  -1.475  17.878  0.00  0.00    +0.000 A 
ATOM     23  C   UNL     1      37.551  -1.638  19.251  0.00  0.00    +0.000 A 
ATOM     24  C   UNL     1      38.055  -2.748  19.859  0.00  0.00    +0.000 A 
ATOM     25  C   UNL     1      38.652  -3.718  19.094  0.00  0.00    +0.000 A 
ATOM     26  C   UNL     1      38.731  -3.554  17.738  0.00  0.00    +0.000 A 
ATOM     27  C   UNL     1      38.228  -2.440  17.101  0.00  0.00    +0.000 A 
BRANCH  19  29
ATOM     28  C   UNL     1      37.775  -3.391  13.782  0.00  0.00    +0.000 C 
ATOM     29  C   UNL     1      38.785  -2.892  14.773  0.00  0.00    +0.000 C 
ENDBRANCH  19  29
ENDBRANCH  18  20
ENDBRANCH  17  18
ENDBRANCH   1  17
TORSDOF 6
ENDMDL
MODEL 2
REMARK VINA RESULT:      -8.7      2.416      3.847
REMARK  Name = 
REMARK  6 active torsions:
REMARK  status: ('A' for Active; 'I' for Inactive)
REMARK    1  A    between atoms: C_2  and  N_3
REMARK    2  A    between atoms: C_4  and  S_5
REMARK    3  A    between atoms: S_5  and  C_6
REMARK    4  A    between atoms: C_6  and  C_7
REMARK    5  A    between atoms: N_9  and  N_10
REMARK    6  A    between atoms: C_11  and  C_13
REMARK                            x       y       z     vdW  Elec       q    Type
REMARK                         _______ _______ _______ _____ _____    ______ ____
ROOT
ATOM      1  C   UNL     1      37.276   3.488  16.563  0.00  0.00    +0.000 C 
ATOM      2  O   UNL     1      38.189   3.242  15.704  0.00  0.00    +0.000 OA
ATOM      3  N   UNL     1      37.677   4.149  17.747  0.00  0.00    +0.000 NA
ENDROOT
BRANCH   3   4
ATOM      4  N   UNL     1      38.982   4.543  18.032  0.00  0.00    +0.000 NA
ATOM      5  C   UNL     1      39.370   5.732  18.300  0.00  0.00    +0.000 C 
ATOM      6  C   UNL     1      38.339   6.809  18.314  0.00  0.00    +0.000 C 
BRANCH   5   7
ATOM      7  C   UNL     1      40.731   6.100  18.611  0.00  0.00    +0.000 A 
ATOM      8  C   UNL     1      41.608   6.427  17.607  0.00  0.00    +0.000 A 
ATOM      9  C   UNL     1      42.926   6.787  17.892  0.00  0.00    +0.000 A 
ATOM     10  C   UNL     1      43.352   6.815  19.201  0.00  0.00    +0.000 A 
ATOM     11  C   UNL     1      44.649   7.167  19.493  0.00  0.00    +0.000 A 
ATOM     12  C   UNL     1      45.109   7.204  20.794  0.00  0.00    +0.000 A 
ATOM     13  C   UNL     1      44.237   6.879  21.796  0.00  0.00    +0.000 A 
ATOM     14  C   UNL     1      42.952   6.528  21.520  0.00  0.00    +0.000 A 
ATOM     15  C   UNL     1      42.498   6.493  20.221  0.00  0.00    +0.000 A 
ATOM     16  C   UNL     1      41.197   6.140  19.902  0.00  0.00    +0.000 A 
ENDBRANCH   5   7
ENDBRANCH   3   4
BRANCH   1  17
ATOM     17  C   UNL     1      35.888   3.109  16.355  0.00  0.00    +0.000 C 
BRANCH  17  18
ATOM     18  S   UNL     1      35.616   1.591  15.560  0.00  0.00    +0.000 S 
BRANCH  18  20
ATOM     19  N   UNL     1      36.515  -0.702  16.889  0.00  0.00    +0.000 N 
ATOM     20  C   UNL     1      36.602   0.193  15.922  0.00  0.00    +0.000 A 
ATOM     21  N   UNL     1      37.710  -0.134  15.173  0.00  0.00    +0.000 NA
ATOM     22  C   UNL     1      38.313  -1.218  15.659  0.00  0.00    +0.000 A 
ATOM     23  C   UNL     1      39.432  -1.950  15.298  0.00  0.00    +0.000 A 
ATOM     24  C   UNL     1      39.816  -3.046  16.011  0.00  0.00    +0.000 A 
ATOM     25  C   UNL     1      39.076  -3.428  17.102  0.00  0.00    +0.000 A 
ATOM     26  C   UNL     1      37.971  -2.702  17.455  0.00  0.00    +0.000 A 
ATOM     27  C   UNL     1      37.564  -1.590  16.750  0.00  0.00    +0.000 A 
BRANCH  19  29
ATOM     28  C   UNL     1      35.853  -0.052  19.154  0.00  0.00    +0.000 C 
ATOM     29  C   UNL     1      35.562  -0.922  17.966  0.00  0.00    +0.000 C 
ENDBRANCH  19  29
ENDBRANCH  18  20
ENDBRANCH  17  18
ENDBRANCH   1  17
TORSDOF 6
ENDMDL
MODEL 3
REMARK VINA RESULT:      -8.6      2.082      3.285
REMARK  Name = 
REMARK  6 active torsions:
REMARK  status: ('A' for Active; 'I' for Inactive)
REMARK    1  A    between atoms: C_2  and  N_3
REMARK    2  A    between atoms: C_4  and  S_5
REMARK    3  A    between atoms: S_5  and  C_6
REMARK    4  A    between atoms: C_6  and  C_7
REMARK    5  A    between atoms: N_9  and  N_10
REMARK    6  A    between atoms: C_11  and  C_13
REMARK                            x       y       z     vdW  Elec       q    Type
REMARK                         _______ _______ _______ _____ _____    ______ ____
ROOT
ATOM      1  C   UNL     1      38.386   2.386  14.586  0.00  0.00    +0.000 C 
ATOM      2  O   UNL     1      39.540   1.864  14.756  0.00  0.00    +0.000 OA
ATOM      3  N   UNL     1      38.054   3.480  15.417  0.00  0.00    +0.000 NA
ENDROOT
BRANCH   3   4
ATOM      4  N   UNL     1      38.889   4.017  16.392  0.00  0.00    +0.000 NA
ATOM      5  C   UNL     1      39.031   5.258  16.664  0.00  0.00    +0.000 C 
ATOM      6  C   UNL     1      38.233   6.235  15.869  0.00  0.00    +0.000 C 
BRANCH   5   7
ATOM      7  C   UNL     1      39.893   5.779  17.699  0.00  0.00    +0.000 A 
ATOM      8  C   UNL     1      39.417   5.957  18.974  0.00  0.00    +0.000 A 
ATOM      9  C   UNL     1      40.238   6.457  19.986  0.00  0.00    +0.000 A 
ATOM     10  C   UNL     1      41.547   6.774  19.699  0.00  0.00    +0.000 A 
ATOM     11  C   UNL     1      42.365   7.268  20.688  0.00  0.00    +0.000 A 
ATOM     12  C   UNL     1      43.682   7.597  20.435  0.00  0.00    +0.000 A 
ATOM     13  C   UNL     1      44.159   7.419  19.166  0.00  0.00    +0.000 A 
ATOM     14  C   UNL     1      43.360   6.932  18.178  0.00  0.00    +0.000 A 
ATOM     15  C   UNL     1      42.047   6.606  18.436  0.00  0.00    +0.000 A 
ATOM     16  C   UNL     1      41.204   6.108  17.457  0.00  0.00    +0.000 A 
ENDBRANCH   5   7
ENDBRANCH   3   4
BRANCH   1  17
ATOM     17  C   UNL     1      37.446   1.888  13.596  0.00  0.00    +0.000 C 
BRANCH  17  18
ATOM     18  S   UNL     1      36.633   0.404  13.984  0.00  0.00    +0.000 S 
BRANCH  18  20
ATOM     19  N   UNL     1      36.188  -0.293  16.658  0.00  0.00    +0.000 N 
ATOM     20  C   UNL     1      36.870  -0.378  15.530  0.00  0.00    +0.000 A 
ATOM     21  N   UNL     1      37.927  -1.229  15.764  0.00  0.00    +0.000 NA
ATOM     22  C   UNL     1      37.912  -1.675  17.019  0.00  0.00    +0.000 A 
ATOM     23  C   UNL     1      38.718  -2.528  17.756  0.00  0.00    +0.000 A 
ATOM     24  C   UNL     1      38.443  -2.802  19.062  0.00  0.00    +0.000 A 
ATOM     25  C   UNL     1      37.349  -2.221  19.652  0.00  0.00    +0.000 A 
ATOM     26  C   UNL     1      36.555  -1.380  18.921  0.00  0.00    +0.000 A 
ATOM     27  C   UNL     1      36.813  -1.088  17.599  0.00  0.00    +0.000 A 
BRANCH  19  29
ATOM     28  C   UNL     1      35.045   1.870  16.724  0.00  0.00    +0.000 C 
ATOM     29  C   UNL     1      34.971   0.406  17.040  0.00  0.00    +0.000 C 
ENDBRANCH  19  29
ENDBRANCH  18  20
ENDBRANCH  17  18
ENDBRANCH   1  17
TORSDOF 6
ENDMDL
MODEL 4
REMARK VINA RESULT:      -8.4      2.032      2.746
REMARK  Name = 
REMARK  6 active torsions:
REMARK  status: ('A' for Active; 'I' for Inactive)
REMARK    1  A    between atoms: C_2  and  N_3
REMARK    2  A    between atoms: C_4  and  S_5
REMARK    3  A    between atoms: S_5  and  C_6
REMARK    4  A    between atoms: C_6  and  C_7
REMARK    5  A    between atoms: N_9  and  N_10
REMARK    6  A    between atoms: C_11  and  C_13
REMARK                            x       y       z     vdW  Elec       q    Type
REMARK                         _______ _______ _______ _____ _____    ______ ____
ROOT
ATOM      1  C   UNL     1      38.172   2.786  14.378  0.00  0.00    +0.000 C 
ATOM      2  O   UNL     1      39.423   2.591  14.208  0.00  0.00    +0.000 OA
ATOM      3  N   UNL     1      37.792   3.515  15.529  0.00  0.00    +0.000 NA
ENDROOT
BRANCH   3   4
ATOM      4  N   UNL     1      38.679   4.025  16.473  0.00  0.00    +0.000 NA
ATOM      5  C   UNL     1      38.943   5.260  16.670  0.00  0.00    +0.000 C 
ATOM      6  C   UNL     1      38.243   6.261  15.816  0.00  0.00    +0.000 C 
BRANCH   5   7
ATOM      7  C   UNL     1      39.855   5.753  17.675  0.00  0.00    +0.000 A 
ATOM      8  C   UNL     1      39.442   5.898  18.976  0.00  0.00    +0.000 A 
ATOM      9  C   UNL     1      40.313   6.371  19.960  0.00  0.00    +0.000 A 
ATOM     10  C   UNL     1      41.606   6.697  19.617  0.00  0.00    +0.000 A 
ATOM     11  C   UNL     1      42.472   7.166  20.578  0.00  0.00    +0.000 A 
ATOM     12  C   UNL     1      43.775   7.503  20.269  0.00  0.00    +0.000 A 
ATOM     13  C   UNL     1      44.189   7.359  18.974  0.00  0.00    +0.000 A 
ATOM     14  C   UNL     1      43.342   6.898  18.014  0.00  0.00    +0.000 A 
ATOM     15  C   UNL     1      42.043   6.563  18.327  0.00  0.00    +0.000 A 
ATOM     16  C   UNL     1      41.153   6.091  17.378  0.00  0.00    +0.000 A 
ENDBRANCH   5   7
ENDBRANCH   3   4
BRANCH   1  17
ATOM     17  C   UNL     1      37.173   2.287  13.448  0.00  0.00    +0.000 C 
BRANCH  17  18
ATOM     18  S   UNL     1      36.345   0.834  13.915  0.00  0.00    +0.000 S 
BRANCH  18  20
ATOM     19  N   UNL     1      37.725  -1.122  15.365  0.00  0.00    +0.000 N 
ATOM     20  C   UNL     1      36.881  -0.109  15.286  0.00  0.00    +0.000 A 
ATOM     21  N   UNL     1      36.400   0.112  16.557  0.00  0.00    +0.000 NA
ATOM     22  C   UNL     1      36.931  -0.748  17.425  0.00  0.00    +0.000 A 
ATOM     23  C   UNL     1      36.797  -0.960  18.787  0.00  0.00    +0.000 A 
ATOM     24  C   UNL     1      37.491  -1.949  19.418  0.00  0.00    +0.000 A 
ATOM     25  C   UNL     1      38.336  -2.744  18.686  0.00  0.00    +0.000 A 
ATOM     26  C   UNL     1      38.467  -2.532  17.341  0.00  0.00    +0.000 A 
ATOM     27  C   UNL     1      37.775  -1.538  16.682  0.00  0.00    +0.000 A 
BRANCH  19  29
ATOM     28  C   UNL     1      37.831  -2.881  13.667  0.00  0.00    +0.000 C 
ATOM     29  C   UNL     1      38.571  -1.797  14.394  0.00  0.00    +0.000 C 
ENDBRANCH  19  29
ENDBRANCH  18  20
ENDBRANCH  17  18
ENDBRANCH   1  17
TORSDOF 6
ENDMDL
MODEL 5
REMARK VINA RESULT:      -8.2      3.201      9.631
REMARK  Name = 
REMARK  6 active torsions:
REMARK  status: ('A' for Active; 'I' for Inactive)
REMARK    1  A    between atoms: C_2  and  N_3
REMARK    2  A    between atoms: C_4  and  S_5
REMARK    3  A    between atoms: S_5  and  C_6
REMARK    4  A    between atoms: C_6  and  C_7
REMARK    5  A    between atoms: N_9  and  N_10
REMARK    6  A    between atoms: C_11  and  C_13
REMARK                            x       y       z     vdW  Elec       q    Type
REMARK                         _______ _______ _______ _____ _____    ______ ____
ROOT
ATOM      1  C   UNL     1      38.185   4.206  16.520  0.00  0.00    +0.000 C 
ATOM      2  O   UNL     1      38.964   3.535  15.760  0.00  0.00    +0.000 OA
ATOM      3  N   UNL     1      37.143   3.491  17.154  0.00  0.00    +0.000 NA
ENDROOT
BRANCH   3   4
ATOM      4  N   UNL     1      36.915   2.125  17.006  0.00  0.00    +0.000 NA
ATOM      5  C   UNL     1      35.867   1.585  16.512  0.00  0.00    +0.000 C 
ATOM      6  C   UNL     1      34.778   2.489  16.044  0.00  0.00    +0.000 C 
BRANCH   5   7
ATOM      7  C   UNL     1      35.673   0.162  16.356  0.00  0.00    +0.000 A 
ATOM      8  C   UNL     1      34.762  -0.504  17.138  0.00  0.00    +0.000 A 
ATOM      9  C   UNL     1      34.561  -1.878  16.998  0.00  0.00    +0.000 A 
ATOM     10  C   UNL     1      35.289  -2.575  16.060  0.00  0.00    +0.000 A 
ATOM     11  C   UNL     1      35.101  -3.930  15.914  0.00  0.00    +0.000 A 
ATOM     12  C   UNL     1      35.815  -4.659  14.984  0.00  0.00    +0.000 A 
ATOM     13  C   UNL     1      36.722  -3.998  14.204  0.00  0.00    +0.000 A 
ATOM     14  C   UNL     1      36.919  -2.659  14.339  0.00  0.00    +0.000 A 
ATOM     15  C   UNL     1      36.205  -1.935  15.268  0.00  0.00    +0.000 A 
ATOM     16  C   UNL     1      36.378  -0.571  15.434  0.00  0.00    +0.000 A 
ENDBRANCH   5   7
ENDBRANCH   3   4
BRANCH   1  17
ATOM     17  C   UNL     1      38.344   5.635  16.729  0.00  0.00    +0.000 C 
BRANCH  17  18
ATOM     18  S   UNL     1      38.753   6.137  18.339  0.00  0.00    +0.000 S 
BRANCH  18  20
ATOM     19  N   UNL     1      41.507   6.582  18.118  0.00  0.00    +0.000 N 
ATOM     20  C   UNL     1      40.421   6.334  18.826  0.00  0.00    +0.000 A 
ATOM     21  N   UNL     1      40.819   6.205  20.138  0.00  0.00    +0.000 NA
ATOM     22  C   UNL     1      42.135   6.369  20.256  0.00  0.00    +0.000 A 
ATOM     23  C   UNL     1      43.026   6.342  21.317  0.00  0.00    +0.000 A 
ATOM     24  C   UNL     1      44.358   6.550  21.123  0.00  0.00    +0.000 A 
ATOM     25  C   UNL     1      44.821   6.790  19.853  0.00  0.00    +0.000 A 
ATOM     26  C   UNL     1      43.938   6.816  18.808  0.00  0.00    +0.000 A 
ATOM     27  C   UNL     1      42.586   6.609  18.980  0.00  0.00    +0.000 A 
BRANCH  19  29
ATOM     28  C   UNL     1      41.362   8.249  16.332  0.00  0.00    +0.000 C 
ATOM     29  C   UNL     1      41.743   6.848  16.707  0.00  0.00    +0.000 C 
ENDBRANCH  19  29
ENDBRANCH  18  20
ENDBRANCH  17  18
ENDBRANCH   1  17
TORSDOF 6
ENDMDL
MODEL 6
REMARK VINA RESULT:      -8.1      2.359      3.416
REMARK  Name = 
REMARK  6 active torsions:
REMARK  status: ('A' for Active; 'I' for Inactive)
REMARK    1  A    between atoms: C_2  and  N_3
REMARK    2  A    between atoms: C_4  and  S_5
REMARK    3  A    between atoms: S_5  and  C_6
REMARK    4  A    between atoms: C_6  and  C_7
REMARK    5  A    between atoms: N_9  and  N_10
REMARK    6  A    between atoms: C_11  and  C_13
REMARK                            x       y       z     vdW  Elec       q    Type
REMARK                         _______ _______ _______ _____ _____    ______ ____
ROOT
ATOM      1  C   UNL     1      37.011   3.564  16.154  0.00  0.00    +0.000 C 
ATOM      2  O   UNL     1      37.058   3.030  17.314  0.00  0.00    +0.000 OA
ATOM      3  N   UNL     1      38.065   4.442  15.814  0.00  0.00    +0.000 NA
ENDROOT
BRANCH   3   4
ATOM      4  N   UNL     1      39.136   4.756  16.647  0.00  0.00    +0.000 NA
ATOM      5  C   UNL     1      39.287   5.843  17.303  0.00  0.00    +0.000 C 
ATOM      6  C   UNL     1      38.224   6.881  17.176  0.00  0.00    +0.000 C 
BRANCH   5   7
ATOM      7  C   UNL     1      40.402   6.126  18.175  0.00  0.00    +0.000 A 
ATOM      8  C   UNL     1      40.238   6.114  19.539  0.00  0.00    +0.000 A 
ATOM      9  C   UNL     1      41.307   6.383  20.395  0.00  0.00    +0.000 A 
ATOM     10  C   UNL     1      42.546   6.665  19.862  0.00  0.00    +0.000 A 
ATOM     11  C   UNL     1      43.605   6.934  20.697  0.00  0.00    +0.000 A 
ATOM     12  C   UNL     1      44.860   7.221  20.196  0.00  0.00    +0.000 A 
ATOM     13  C   UNL     1      45.026   7.233  18.839  0.00  0.00    +0.000 A 
ATOM     14  C   UNL     1      43.985   6.971  18.003  0.00  0.00    +0.000 A 
ATOM     15  C   UNL     1      42.736   6.685  18.507  0.00  0.00    +0.000 A 
ATOM     16  C   UNL     1      41.653   6.413  17.687  0.00  0.00    +0.000 A 
ENDBRANCH   5   7
ENDBRANCH   3   4
BRANCH   1  17
ATOM     17  C   UNL     1      35.930   3.299  15.220  0.00  0.00    +0.000 C 
BRANCH  17  18
ATOM     18  S   UNL     1      35.564   1.630  14.918  0.00  0.00    +0.000 S 
BRANCH  18  20
ATOM     19  N   UNL     1      37.776  -0.057  14.605  0.00  0.00    +0.000 N 
ATOM     20  C   UNL     1      36.724   0.372  15.279  0.00  0.00    +0.000 A 
ATOM     21  N   UNL     1      36.630  -0.405  16.412  0.00  0.00    +0.000 NA
ATOM     22  C   UNL     1      37.606  -1.311  16.452  0.00  0.00    +0.000 A 
ATOM     23  C   UNL     1      37.967  -2.311  17.340  0.00  0.00    +0.000 A 
ATOM     24  C   UNL     1      39.050  -3.104  17.106  0.00  0.00    +0.000 A 
ATOM     25  C   UNL     1      39.792  -2.904  15.968  0.00  0.00    +0.000 A 
ATOM     26  C   UNL     1      39.433  -1.916  15.094  0.00  0.00    +0.000 A 
ATOM     27  C   UNL     1      38.342  -1.101  15.310  0.00  0.00    +0.000 A 
BRANCH  19  29
ATOM     28  C   UNL     1      37.632  -0.061  12.162  0.00  0.00    +0.000 C 
ATOM     29  C   UNL     1      38.413   0.368  13.369  0.00  0.00    +0.000 C 
ENDBRANCH  19  29
ENDBRANCH  18  20
ENDBRANCH  17  18
ENDBRANCH   1  17
TORSDOF 6
ENDMDL
MODEL 7
REMARK VINA RESULT:      -8.1      3.157      9.673
REMARK  Name = 
REMARK  6 active torsions:
REMARK  status: ('A' for Active; 'I' for Inactive)
REMARK    1  A    between atoms: C_2  and  N_3
REMARK    2  A    between atoms: C_4  and  S_5
REMARK    3  A    between atoms: S_5  and  C_6
REMARK    4  A    between atoms: C_6  and  C_7
REMARK    5  A    between atoms: N_9  and  N_10
REMARK    6  A    between atoms: C_11  and  C_13
REMARK                            x       y       z     vdW  Elec       q    Type
REMARK                         _______ _______ _______ _____ _____    ______ ____
ROOT
ATOM      1  C   UNL     1      38.221   4.559  16.857  0.00  0.00    +0.000 C 
ATOM      2  O   UNL     1      38.274   3.980  17.995  0.00  0.00    +0.000 OA
ATOM      3  N   UNL     1      37.823   3.766  15.757  0.00  0.00    +0.000 NA
ENDROOT
BRANCH   3   4
ATOM      4  N   UNL     1      37.488   2.416  15.832  0.00  0.00    +0.000 NA
ATOM      5  C   UNL     1      36.306   1.932  15.849  0.00  0.00    +0.000 C 
ATOM      6  C   UNL     1      35.165   2.890  15.781  0.00  0.00    +0.000 C 
BRANCH   5   7
ATOM      7  C   UNL     1      35.997   0.522  15.906  0.00  0.00    +0.000 A 
ATOM      8  C   UNL     1      35.070   0.051  16.803  0.00  0.00    +0.000 A 
ATOM      9  C   UNL     1      34.759  -1.308  16.869  0.00  0.00    +0.000 A 
ATOM     10  C   UNL     1      35.393  -2.189  16.021  0.00  0.00    +0.000 A 
ATOM     11  C   UNL     1      35.096  -3.530  16.079  0.00  0.00    +0.000 A 
ATOM     12  C   UNL     1      35.713  -4.441  15.244  0.00  0.00    +0.000 A 
ATOM     13  C   UNL     1      36.636  -3.974  14.350  0.00  0.00    +0.000 A 
ATOM     14  C   UNL     1      36.940  -2.649  14.284  0.00  0.00    +0.000 A 
ATOM     15  C   UNL     1      36.322  -1.745  15.118  0.00  0.00    +0.000 A 
ATOM     16  C   UNL     1      36.606  -0.390  15.081  0.00  0.00    +0.000 A 
ENDBRANCH   5   7
ENDBRANCH   3   4
BRANCH   1  17
ATOM     17  C   UNL     1      38.557   5.962  16.683  0.00  0.00    +0.000 C 
BRANCH  17  18
ATOM     18  S   UNL     1      40.216   6.316  16.316  0.00  0.00    +0.000 S 
BRANCH  18  20
ATOM     19  N   UNL     1      41.286   6.440  18.899  0.00  0.00    +0.000 N 
ATOM     20  C   UNL     1      41.411   6.459  17.585  0.00  0.00    +0.000 A 
ATOM     21  N   UNL     1      42.746   6.658  17.312  0.00  0.00    +0.000 NA
ATOM     22  C   UNL     1      43.452   6.764  18.436  0.00  0.00    +0.000 A 
ATOM     23  C   UNL     1      44.792   6.965  18.726  0.00  0.00    +0.000 A 
ATOM     24  C   UNL     1      45.231   7.033  20.014  0.00  0.00    +0.000 A 
ATOM     25  C   UNL     1      44.327   6.899  21.038  0.00  0.00    +0.000 A 
ATOM     26  C   UNL     1      43.005   6.700  20.748  0.00  0.00    +0.000 A 
ATOM     27  C   UNL     1      42.537   6.628  19.453  0.00  0.00    +0.000 A 
BRANCH  19  29
ATOM     28  C   UNL     1      39.420   7.515  20.063  0.00  0.00    +0.000 C 
ATOM     29  C   UNL     1      40.157   6.236  19.794  0.00  0.00    +0.000 C 
ENDBRANCH  19  29
ENDBRANCH  18  20
ENDBRANCH  17  18
ENDBRANCH   1  17
TORSDOF 6
ENDMDL
MODEL 8
REMARK VINA RESULT:      -8.0      8.017     10.920
REMARK  Name = 
REMARK  6 active torsions:
REMARK  status: ('A' for Active; 'I' for Inactive)
REMARK    1  A    between atoms: C_2  and  N_3
REMARK    2  A    between atoms: C_4  and  S_5
REMARK    3  A    between atoms: S_5  and  C_6
REMARK    4  A    between atoms: C_6  and  C_7
REMARK    5  A    between atoms: N_9  and  N_10
REMARK    6  A    between atoms: C_11  and  C_13
REMARK                            x       y       z     vdW  Elec       q    Type
REMARK                         _______ _______ _______ _____ _____    ______ ____
ROOT
ATOM      1  C   UNL     1      45.283   5.380  23.777  0.00  0.00    +0.000 C 
ATOM      2  O   UNL     1      45.644   4.447  22.983  0.00  0.00    +0.000 OA
ATOM      3  N   UNL     1      44.185   6.173  23.370  0.00  0.00    +0.000 NA
ENDROOT
BRANCH   3   4
ATOM      4  N   UNL     1      43.483   6.005  22.179  0.00  0.00    +0.000 NA
ATOM      5  C   UNL     1      43.232   6.914  21.317  0.00  0.00    +0.000 C 
ATOM      6  C   UNL     1      43.731   8.290  21.597  0.00  0.00    +0.000 C 
BRANCH   5   7
ATOM      7  C   UNL     1      42.517   6.697  20.081  0.00  0.00    +0.000 A 
ATOM      8  C   UNL     1      43.147   6.874  18.874  0.00  0.00    +0.000 A 
ATOM      9  C   UNL     1      42.471   6.666  17.671  0.00  0.00    +0.000 A 
ATOM     10  C   UNL     1      41.150   6.276  17.697  0.00  0.00    +0.000 A 
ATOM     11  C   UNL     1      40.474   6.070  16.517  0.00  0.00    +0.000 A 
ATOM     12  C   UNL     1      39.149   5.680  16.507  0.00  0.00    +0.000 A 
ATOM     13  C   UNL     1      38.519   5.503  17.707  0.00  0.00    +0.000 A 
ATOM     14  C   UNL     1      39.177   5.705  18.881  0.00  0.00    +0.000 A 
ATOM     15  C   UNL     1      40.498   6.093  18.886  0.00  0.00    +0.000 A 
ATOM     16  C   UNL     1      41.200   6.309  20.060  0.00  0.00    +0.000 A 
ENDBRANCH   5   7
ENDBRANCH   3   4
BRANCH   1  17
ATOM     17  C   UNL     1      45.959   5.634  25.038  0.00  0.00    +0.000 C 
BRANCH  17  18
ATOM     18  S   UNL     1      45.742   4.444  26.281  0.00  0.00    +0.000 S 
BRANCH  18  20
ATOM     19  N   UNL     1      44.006   3.734  28.358  0.00  0.00    +0.000 N 
ATOM     20  C   UNL     1      44.303   4.426  27.274  0.00  0.00    +0.000 A 
ATOM     21  N   UNL     1      43.200   5.193  26.974  0.00  0.00    +0.000 NA
ATOM     22  C   UNL     1      42.222   4.988  27.855  0.00  0.00    +0.000 A 
ATOM     23  C   UNL     1      40.939   5.487  28.015  0.00  0.00    +0.000 A 
ATOM     24  C   UNL     1      40.147   5.075  29.045  0.00  0.00    +0.000 A 
ATOM     25  C   UNL     1      40.634   4.151  29.935  0.00  0.00    +0.000 A 
ATOM     26  C   UNL     1      41.901   3.662  29.774  0.00  0.00    +0.000 A 
ATOM     27  C   UNL     1      42.720   4.063  28.741  0.00  0.00    +0.000 A 
BRANCH  19  29
ATOM     28  C   UNL     1      44.962   1.484  28.470  0.00  0.00    +0.000 C 
ATOM     29  C   UNL     1      44.750   2.790  29.177  0.00  0.00    +0.000 C 
ENDBRANCH  19  29
ENDBRANCH  18  20
ENDBRANCH  17  18
ENDBRANCH   1  17
TORSDOF 6
ENDMDL
MODEL 9
REMARK VINA RESULT:      -7.9      2.542      3.386
REMARK  Name = 
REMARK  6 active torsions:
REMARK  status: ('A' for Active; 'I' for Inactive)
REMARK    1  A    between atoms: C_2  and  N_3
REMARK    2  A    between atoms: C_4  and  S_5
REMARK    3  A    between atoms: S_5  and  C_6
REMARK    4  A    between atoms: C_6  and  C_7
REMARK    5  A    between atoms: N_9  and  N_10
REMARK    6  A    between atoms: C_11  and  C_13
REMARK                            x       y       z     vdW  Elec       q    Type
REMARK                         _______ _______ _______ _____ _____    ______ ____
ROOT
ATOM      1  C   UNL     1      38.500   3.043  12.738  0.00  0.00    +0.000 C 
ATOM      2  O   UNL     1      39.773   2.997  12.636  0.00  0.00    +0.000 OA
ATOM      3  N   UNL     1      37.975   3.759  13.838  0.00  0.00    +0.000 NA
ENDROOT
BRANCH   3   4
ATOM      4  N   UNL     1      38.742   4.408  14.802  0.00  0.00    +0.000 NA
ATOM      5  C   UNL     1      38.486   4.472  16.053  0.00  0.00    +0.000 C 
ATOM      6  C   UNL     1      37.253   3.792  16.541  0.00  0.00    +0.000 C 
BRANCH   5   7
ATOM      7  C   UNL     1      39.318   5.138  17.027  0.00  0.00    +0.000 A 
ATOM      8  C   UNL     1      38.901   5.258  18.330  0.00  0.00    +0.000 A 
ATOM      9  C   UNL     1      39.695   5.896  19.284  0.00  0.00    +0.000 A 
ATOM     10  C   UNL     1      40.916   6.413  18.912  0.00  0.00    +0.000 A 
ATOM     11  C   UNL     1      41.705   7.046  19.843  0.00  0.00    +0.000 A 
ATOM     12  C   UNL     1      42.934   7.576  19.504  0.00  0.00    +0.000 A 
ATOM     13  C   UNL     1      43.352   7.457  18.208  0.00  0.00    +0.000 A 
ATOM     14  C   UNL     1      42.580   6.834  17.276  0.00  0.00    +0.000 A 
ATOM     15  C   UNL     1      41.355   6.307  17.619  0.00  0.00    +0.000 A 
ATOM     16  C   UNL     1      40.542   5.668  16.699  0.00  0.00    +0.000 A 
ENDBRANCH   5   7
ENDBRANCH   3   4
BRANCH   1  17
ATOM     17  C   UNL     1      37.619   2.391  11.783  0.00  0.00    +0.000 C 
BRANCH  17  18
ATOM     18  S   UNL     1      36.996   0.839  12.246  0.00  0.00    +0.000 S 
BRANCH  18  20
ATOM     19  N   UNL     1      37.530  -0.387  14.705  0.00  0.00    +0.000 N 
ATOM     20  C   UNL     1      36.812   0.405  13.930  0.00  0.00    +0.000 A 
ATOM     21  N   UNL     1      35.766   0.872  14.694  0.00  0.00    +0.000 NA
ATOM     22  C   UNL     1      35.822   0.381  15.931  0.00  0.00    +0.000 A 
ATOM     23  C   UNL     1      35.043   0.522  17.068  0.00  0.00    +0.000 A 
ATOM     24  C   UNL     1      35.360  -0.125  18.224  0.00  0.00    +0.000 A 
ATOM     25  C   UNL     1      36.473  -0.929  18.257  0.00  0.00    +0.000 A 
ATOM     26  C   UNL     1      37.240  -1.065  17.133  0.00  0.00    +0.000 A 
ATOM     27  C   UNL     1      36.939  -0.420  15.953  0.00  0.00    +0.000 A 
BRANCH  19  29
ATOM     28  C   UNL     1      39.972  -0.265  14.597  0.00  0.00    +0.000 C 
ATOM     29  C   UNL     1      38.758  -1.140  14.501  0.00  0.00    +0.000 C 
ENDBRANCH  19  29
ENDBRANCH  18  20
ENDBRANCH  17  18
ENDBRANCH   1  17
TORSDOF 6
ENDMDL
MODEL 10
REMARK VINA RESULT:      -7.6     24.543     27.898
REMARK  Name = 
REMARK  6 active torsions:
REMARK  status: ('A' for Active; 'I' for Inactive)
REMARK    1  A    between atoms: C_2  and  N_3
REMARK    2  A    between atoms: C_4  and  S_5
REMARK    3  A    between atoms: S_5  and  C_6
REMARK    4  A    between atoms: C_6  and  C_7
REMARK    5  A    between atoms: N_9  and  N_10
REMARK    6  A    between atoms: C_11  and  C_13
REMARK                            x       y       z     vdW  Elec       q    Type
REMARK                         _______ _______ _______ _____ _____    ______ ____
ROOT
ATOM      1  C   UNL     1      24.659  15.354  40.125  0.00  0.00    +0.000 C 
ATOM      2  O   UNL     1      23.879  14.750  40.937  0.00  0.00    +0.000 OA
ATOM      3  N   UNL     1      25.888  14.720  39.832  0.00  0.00    +0.000 NA
ENDROOT
BRANCH   3   4
ATOM      4  N   UNL     1      26.297  13.499  40.362  0.00  0.00    +0.000 NA
ATOM      5  C   UNL     1      27.504  13.127  40.556  0.00  0.00    +0.000 C 
ATOM      6  C   UNL     1      28.589  14.081  40.186  0.00  0.00    +0.000 C 
BRANCH   5   7
ATOM      7  C   UNL     1      27.890  11.859  41.128  0.00  0.00    +0.000 A 
ATOM      8  C   UNL     1      29.132  11.700  41.691  0.00  0.00    +0.000 A 
ATOM      9  C   UNL     1      29.519  10.482  42.250  0.00  0.00    +0.000 A 
ATOM     10  C   UNL     1      28.640   9.422  42.236  0.00  0.00    +0.000 A 
ATOM     11  C   UNL     1      29.012   8.216  42.783  0.00  0.00    +0.000 A 
ATOM     12  C   UNL     1      28.155   7.133  42.785  0.00  0.00    +0.000 A 
ATOM     13  C   UNL     1      26.917   7.288  42.226  0.00  0.00    +0.000 A 
ATOM     14  C   UNL     1      26.538   8.475  41.680  0.00  0.00    +0.000 A 
ATOM     15  C   UNL     1      27.396   9.553  41.681  0.00  0.00    +0.000 A 
ATOM     16  C   UNL     1      27.046  10.776  41.135  0.00  0.00    +0.000 A 
ENDBRANCH   5   7
ENDBRANCH   3   4
BRANCH   1  17
ATOM     17  C   UNL     1      24.319  16.634  39.528  0.00  0.00    +0.000 C 
BRANCH  17  18
ATOM     18  S   UNL     1      25.453  17.274  38.380  0.00  0.00    +0.000 S 
BRANCH  18  20
ATOM     19  N   UNL     1      25.027  17.496  35.623  0.00  0.00    +0.000 N 
ATOM     20  C   UNL     1      25.388  16.814  36.694  0.00  0.00    +0.000 A 
ATOM     21  N   UNL     1      25.713  15.545  36.270  0.00  0.00    +0.000 NA
ATOM     22  C   UNL     1      25.559  15.428  34.952  0.00  0.00    +0.000 A 
ATOM     23  C   UNL     1      25.740  14.400  34.041  0.00  0.00    +0.000 A 
ATOM     24  C   UNL     1      25.491  14.584  32.715  0.00  0.00    +0.000 A 
ATOM     25  C   UNL     1      25.055  15.810  32.278  0.00  0.00    +0.000 A 
ATOM     26  C   UNL     1      24.878  16.822  33.181  0.00  0.00    +0.000 A 
ATOM     27  C   UNL     1      25.123  16.660  34.528  0.00  0.00    +0.000 A 
BRANCH  19  29
ATOM     28  C   UNL     1      25.664  19.848  35.855  0.00  0.00    +0.000 C 
ATOM     29  C   UNL     1      24.614  18.874  35.407  0.00  0.00    +0.000 C 
ENDBRANCH  19  29
ENDBRANCH  18  20
ENDBRANCH  17  18
ENDBRANCH   1  17
TORSDOF 6
ENDMDL
