MODEL 1
REMARK VINA RESULT:      -8.2      0.000      0.000
REMARK  Name = 
REMARK  3 active torsions:
REMARK  status: ('A' for Active; 'I' for Inactive)
REMARK    1  A    between atoms: C_11  and  C_13
REMARK    2  A    between atoms: C_13  and  C_14
REMARK    3  A    between atoms: C_14  and  C_15
REMARK                            x       y       z     vdW  Elec       q    Type
REMARK                         _______ _______ _______ _____ _____    ______ ____
ROOT
ATOM      1  O   UNL     1      16.411  13.659  29.744  0.00  0.00    +0.000 OA
ATOM      2  C   UNL     1      15.540  13.276  30.522  0.00  0.00    +0.000 C 
ATOM      3  C   UNL     1      14.284  13.932  30.598  0.00  0.00    +0.000 C 
ATOM      4  C   UNL     1      13.729  13.934  31.959  0.00  0.00    +0.000 C 
ATOM      5  C   UNL     1      14.290  13.176  32.995  0.00  0.00    +0.000 C 
ATOM      6  C   UNL     1      15.841  12.836  32.886  0.00  0.00    +0.000 C 
ATOM      7  C   UNL     1      15.920  12.025  31.412  0.00  0.00    +0.000 C 
ATOM      8  C   UNL     1      14.481  11.305  31.389  0.00  0.00    +0.000 C 
ATOM      9  C   UNL     1      14.675  10.053  32.211  0.00  0.00    +0.000 C 
ATOM     10  C   UNL     1      15.857  10.281  33.123  0.00  0.00    +0.000 C 
ATOM     11  C   UNL     1      15.829  11.562  33.850  0.00  0.00    +0.000 C 
ATOM     12  O   UNL     1      17.102  11.677  34.460  0.00  0.00    +0.000 OA
ENDROOT
BRANCH  11  13
ATOM     13  C   UNL     1      14.760  11.581  34.822  0.00  0.00    +0.000 C 
BRANCH  13  14
ATOM     14  C   UNL     1      14.918  12.153  36.155  0.00  0.00    +0.000 C 
BRANCH  14  15
ATOM     15  C   UNL     1      13.906  11.593  37.075  0.00  0.00    +0.000 A 
ATOM     16  C   UNL     1      14.261  11.060  38.291  0.00  0.00    +0.000 A 
ATOM     17  C   UNL     1      13.346  10.533  39.164  0.00  0.00    +0.000 A 
ATOM     18  C   UNL     1      12.012  10.527  38.830  0.00  0.00    +0.000 A 
ATOM     19  C   UNL     1      11.661  11.062  37.613  0.00  0.00    +0.000 A 
ATOM     20  C   UNL     1      12.566  11.586  36.742  0.00  0.00    +0.000 A 
ENDBRANCH  14  15
ENDBRANCH  13  14
ENDBRANCH  11  13
TORSDOF 3
ENDMDL
MODEL 2
REMARK VINA RESULT:      -6.5     18.504     20.688
REMARK  Name = 
REMARK  3 active torsions:
REMARK  status: ('A' for Active; 'I' for Inactive)
REMARK    1  A    between atoms: C_11  and  C_13
REMARK    2  A    between atoms: C_13  and  C_14
REMARK    3  A    between atoms: C_14  and  C_15
REMARK                            x       y       z     vdW  Elec       q    Type
REMARK                         _______ _______ _______ _____ _____    ______ ____
ROOT
ATOM      1  O   UNL     1      24.783  26.832  26.008  0.00  0.00    +0.000 OA
ATOM      2  C   UNL     1      25.187  25.673  25.940  0.00  0.00    +0.000 C 
ATOM      3  C   UNL     1      24.996  24.765  27.015  0.00  0.00    +0.000 C 
ATOM      4  C   UNL     1      26.108  23.814  27.154  0.00  0.00    +0.000 C 
ATOM      5  C   UNL     1      27.117  23.698  26.189  0.00  0.00    +0.000 C 
ATOM      6  C   UNL     1      27.419  24.983  25.299  0.00  0.00    +0.000 C 
ATOM      7  C   UNL     1      25.919  25.282  24.594  0.00  0.00    +0.000 C 
ATOM      8  C   UNL     1      25.343  23.785  24.468  0.00  0.00    +0.000 C 
ATOM      9  C   UNL     1      25.956  23.253  23.194  0.00  0.00    +0.000 C 
ATOM     10  C   UNL     1      27.204  24.056  22.915  0.00  0.00    +0.000 C 
ATOM     11  C   UNL     1      28.100  24.213  24.074  0.00  0.00    +0.000 C 
ATOM     12  O   UNL     1      29.073  25.162  23.672  0.00  0.00    +0.000 OA
ENDROOT
BRANCH  11  13
ATOM     13  C   UNL     1      28.696  22.950  24.442  0.00  0.00    +0.000 C 
BRANCH  13  14
ATOM     14  C   UNL     1      30.131  22.698  24.347  0.00  0.00    +0.000 C 
BRANCH  14  15
ATOM     15  C   UNL     1      30.767  22.860  25.671  0.00  0.00    +0.000 A 
ATOM     16  C   UNL     1      31.745  23.803  25.884  0.00  0.00    +0.000 A 
ATOM     17  C   UNL     1      32.353  23.976  27.099  0.00  0.00    +0.000 A 
ATOM     18  C   UNL     1      31.986  23.186  28.163  0.00  0.00    +0.000 A 
ATOM     19  C   UNL     1      31.007  22.244  27.946  0.00  0.00    +0.000 A 
ATOM     20  C   UNL     1      30.400  22.069  26.741  0.00  0.00    +0.000 A 
ENDBRANCH  14  15
ENDBRANCH  13  14
ENDBRANCH  11  13
TORSDOF 3
ENDMDL
MODEL 3
REMARK VINA RESULT:      -6.5     21.014     22.700
REMARK  Name = 
REMARK  3 active torsions:
REMARK  status: ('A' for Active; 'I' for Inactive)
REMARK    1  A    between atoms: C_11  and  C_13
REMARK    2  A    between atoms: C_13  and  C_14
REMARK    3  A    between atoms: C_14  and  C_15
REMARK                            x       y       z     vdW  Elec       q    Type
REMARK                         _______ _______ _______ _____ _____    ______ ____
ROOT
ATOM      1  O   UNL     1      26.440  27.690  20.787  0.00  0.00    +0.000 OA
ATOM      2  C   UNL     1      27.465  27.165  21.220  0.00  0.00    +0.000 C 
ATOM      3  C   UNL     1      28.706  27.318  20.550  0.00  0.00    +0.000 C 
ATOM      4  C   UNL     1      29.555  26.123  20.656  0.00  0.00    +0.000 C 
ATOM      5  C   UNL     1      29.243  25.058  21.510  0.00  0.00    +0.000 C 
ATOM      6  C   UNL     1      27.706  24.843  21.866  0.00  0.00    +0.000 C 
ATOM      7  C   UNL     1      27.294  26.325  22.549  0.00  0.00    +0.000 C 
ATOM      8  C   UNL     1      28.688  26.736  23.239  0.00  0.00    +0.000 C 
ATOM      9  C   UNL     1      28.683  26.005  24.560  0.00  0.00    +0.000 C 
ATOM     10  C   UNL     1      27.739  24.833  24.432  0.00  0.00    +0.000 C 
ATOM     11  C   UNL     1      27.934  24.021  23.218  0.00  0.00    +0.000 C 
ATOM     12  O   UNL     1      26.833  23.132  23.178  0.00  0.00    +0.000 OA
ENDROOT
BRANCH  11  13
ATOM     13  C   UNL     1      29.195  23.318  23.263  0.00  0.00    +0.000 C 
BRANCH  13  14
ATOM     14  C   UNL     1      29.610  22.516  24.410  0.00  0.00    +0.000 C 
BRANCH  14  15
ATOM     15  C   UNL     1      30.762  23.147  25.086  0.00  0.00    +0.000 A 
ATOM     16  C   UNL     1      30.892  23.118  26.454  0.00  0.00    +0.000 A 
ATOM     17  C   UNL     1      31.948  23.695  27.110  0.00  0.00    +0.000 A 
ATOM     18  C   UNL     1      32.929  24.335  26.389  0.00  0.00    +0.000 A 
ATOM     19  C   UNL     1      32.795  24.361  25.020  0.00  0.00    +0.000 A 
ATOM     20  C   UNL     1      31.748  23.789  24.365  0.00  0.00    +0.000 A 
ENDBRANCH  14  15
ENDBRANCH  13  14
ENDBRANCH  11  13
TORSDOF 3
ENDMDL
MODEL 4
REMARK VINA RESULT:      -6.5     17.211     19.571
REMARK  Name = 
REMARK  3 active torsions:
REMARK  status: ('A' for Active; 'I' for Inactive)
REMARK    1  A    between atoms: C_11  and  C_13
REMARK    2  A    between atoms: C_13  and  C_14
REMARK    3  A    between atoms: C_14  and  C_15
REMARK                            x       y       z     vdW  Elec       q    Type
REMARK                         _______ _______ _______ _____ _____    ______ ____
ROOT
ATOM      1  O   UNL     1      24.684  25.691  31.880  0.00  0.00    +0.000 OA
ATOM      2  C   UNL     1      25.262  25.567  30.801  0.00  0.00    +0.000 C 
ATOM      3  C   UNL     1      24.730  26.133  29.614  0.00  0.00    +0.000 C 
ATOM      4  C   UNL     1      25.005  25.313  28.426  0.00  0.00    +0.000 C 
ATOM      5  C   UNL     1      25.883  24.222  28.458  0.00  0.00    +0.000 C 
ATOM      6  C   UNL     1      26.075  23.488  29.858  0.00  0.00    +0.000 C 
ATOM      7  C   UNL     1      26.613  24.745  30.841  0.00  0.00    +0.000 C 
ATOM      8  C   UNL     1      27.430  25.631  29.775  0.00  0.00    +0.000 C 
ATOM      9  C   UNL     1      28.785  24.968  29.697  0.00  0.00    +0.000 C 
ATOM     10  C   UNL     1      28.623  23.538  30.153  0.00  0.00    +0.000 C 
ATOM     11  C   UNL     1      27.492  22.824  29.535  0.00  0.00    +0.000 C 
ATOM     12  O   UNL     1      27.383  21.604  30.247  0.00  0.00    +0.000 OA
ENDROOT
BRANCH  11  13
ATOM     13  C   UNL     1      27.724  22.608  28.126  0.00  0.00    +0.000 C 
BRANCH  13  14
ATOM     14  C   UNL     1      28.973  22.060  27.607  0.00  0.00    +0.000 C 
BRANCH  14  15
ATOM     15  C   UNL     1      29.194  22.515  26.220  0.00  0.00    +0.000 A 
ATOM     16  C   UNL     1      28.147  22.909  25.420  0.00  0.00    +0.000 A 
ATOM     17  C   UNL     1      28.321  23.336  24.130  0.00  0.00    +0.000 A 
ATOM     18  C   UNL     1      29.586  23.380  23.592  0.00  0.00    +0.000 A 
ATOM     19  C   UNL     1      30.631  22.986  24.395  0.00  0.00    +0.000 A 
ATOM     20  C   UNL     1      30.463  22.561  25.677  0.00  0.00    +0.000 A 
ENDBRANCH  14  15
ENDBRANCH  13  14
ENDBRANCH  11  13
TORSDOF 3
ENDMDL
MODEL 5
REMARK VINA RESULT:      -6.3     19.668     21.884
REMARK  Name = 
REMARK  3 active torsions:
REMARK  status: ('A' for Active; 'I' for Inactive)
REMARK    1  A    between atoms: C_11  and  C_13
REMARK    2  A    between atoms: C_13  and  C_14
REMARK    3  A    between atoms: C_14  and  C_15
REMARK                            x       y       z     vdW  Elec       q    Type
REMARK                         _______ _______ _______ _____ _____    ______ ____
ROOT
ATOM      1  O   UNL     1      26.882  28.468  21.216  0.00  0.00    +0.000 OA
ATOM      2  C   UNL     1      27.251  27.797  22.178  0.00  0.00    +0.000 C 
ATOM      3  C   UNL     1      27.591  28.410  23.412  0.00  0.00    +0.000 C 
ATOM      4  C   UNL     1      28.678  27.708  24.109  0.00  0.00    +0.000 C 
ATOM      5  C   UNL     1      29.152  26.459  23.689  0.00  0.00    +0.000 C 
ATOM      6  C   UNL     1      28.982  26.102  22.146  0.00  0.00    +0.000 C 
ATOM      7  C   UNL     1      27.317  26.236  21.937  0.00  0.00    +0.000 C 
ATOM      8  C   UNL     1      26.794  25.776  23.388  0.00  0.00    +0.000 C 
ATOM      9  C   UNL     1      26.790  24.268  23.325  0.00  0.00    +0.000 C 
ATOM     10  C   UNL     1      27.755  23.851  22.241  0.00  0.00    +0.000 C 
ATOM     11  C   UNL     1      29.069  24.514  22.305  0.00  0.00    +0.000 C 
ATOM     12  O   UNL     1      29.727  24.162  21.101  0.00  0.00    +0.000 OA
ENDROOT
BRANCH  11  13
ATOM     13  C   UNL     1      29.808  24.087  23.470  0.00  0.00    +0.000 C 
BRANCH  13  14
ATOM     14  C   UNL     1      29.773  22.715  23.966  0.00  0.00    +0.000 C 
BRANCH  14  15
ATOM     15  C   UNL     1      29.664  22.707  25.439  0.00  0.00    +0.000 A 
ATOM     16  C   UNL     1      30.754  22.448  26.236  0.00  0.00    +0.000 A 
ATOM     17  C   UNL     1      30.685  22.433  27.604  0.00  0.00    +0.000 A 
ATOM     18  C   UNL     1      29.485  22.685  28.227  0.00  0.00    +0.000 A 
ATOM     19  C   UNL     1      28.397  22.946  27.427  0.00  0.00    +0.000 A 
ATOM     20  C   UNL     1      28.461  22.961  26.068  0.00  0.00    +0.000 A 
ENDBRANCH  14  15
ENDBRANCH  13  14
ENDBRANCH  11  13
TORSDOF 3
ENDMDL
MODEL 6
REMARK VINA RESULT:      -6.3     20.334     22.535
REMARK  Name = 
REMARK  3 active torsions:
REMARK  status: ('A' for Active; 'I' for Inactive)
REMARK    1  A    between atoms: C_11  and  C_13
REMARK    2  A    between atoms: C_13  and  C_14
REMARK    3  A    between atoms: C_14  and  C_15
REMARK                            x       y       z     vdW  Elec       q    Type
REMARK                         _______ _______ _______ _____ _____    ______ ____
ROOT
ATOM      1  O   UNL     1      29.372   7.674  13.663  0.00  0.00    +0.000 OA
ATOM      2  C   UNL     1      29.356   6.980  14.678  0.00  0.00    +0.000 C 
ATOM      3  C   UNL     1      30.423   6.094  14.979  0.00  0.00    +0.000 C 
ATOM      4  C   UNL     1      29.967   4.872  15.656  0.00  0.00    +0.000 C 
ATOM      5  C   UNL     1      28.659   4.726  16.134  0.00  0.00    +0.000 C 
ATOM      6  C   UNL     1      27.524   5.572  15.406  0.00  0.00    +0.000 C 
ATOM      7  C   UNL     1      28.082   7.149  15.600  0.00  0.00    +0.000 C 
ATOM      8  C   UNL     1      28.831   7.029  17.020  0.00  0.00    +0.000 C 
ATOM      9  C   UNL     1      27.728   7.179  18.040  0.00  0.00    +0.000 C 
ATOM     10  C   UNL     1      26.427   6.812  17.367  0.00  0.00    +0.000 C 
ATOM     11  C   UNL     1      26.468   5.551  16.605  0.00  0.00    +0.000 C 
ATOM     12  O   UNL     1      25.248   5.506  15.886  0.00  0.00    +0.000 OA
ENDROOT
BRANCH  11  13
ATOM     13  C   UNL     1      26.616   4.418  17.489  0.00  0.00    +0.000 C 
BRANCH  13  14
ATOM     14  C   UNL     1      25.785   4.228  18.674  0.00  0.00    +0.000 C 
BRANCH  14  15
ATOM     15  C   UNL     1      24.646   3.340  18.362  0.00  0.00    +0.000 A 
ATOM     16  C   UNL     1      24.831   2.002  18.107  0.00  0.00    +0.000 A 
ATOM     17  C   UNL     1      23.795   1.154  17.815  0.00  0.00    +0.000 A 
ATOM     18  C   UNL     1      22.510   1.641  17.770  0.00  0.00    +0.000 A 
ATOM     19  C   UNL     1      22.329   2.980  18.028  0.00  0.00    +0.000 A 
ATOM     20  C   UNL     1      23.355   3.826  18.318  0.00  0.00    +0.000 A 
ENDBRANCH  14  15
ENDBRANCH  13  14
ENDBRANCH  11  13
TORSDOF 3
ENDMDL
MODEL 7
REMARK VINA RESULT:      -6.2     20.284     22.101
REMARK  Name = 
REMARK  3 active torsions:
REMARK  status: ('A' for Active; 'I' for Inactive)
REMARK    1  A    between atoms: C_11  and  C_13
REMARK    2  A    between atoms: C_13  and  C_14
REMARK    3  A    between atoms: C_14  and  C_15
REMARK                            x       y       z     vdW  Elec       q    Type
REMARK                         _______ _______ _______ _____ _____    ______ ____
ROOT
ATOM      1  O   UNL     1      33.886   2.782  33.257  0.00  0.00    +0.000 OA
ATOM      2  C   UNL     1      33.685   3.676  34.077  0.00  0.00    +0.000 C 
ATOM      3  C   UNL     1      32.663   4.639  33.875  0.00  0.00    +0.000 C 
ATOM      4  C   UNL     1      33.024   5.964  34.400  0.00  0.00    +0.000 C 
ATOM      5  C   UNL     1      34.157   6.168  35.198  0.00  0.00    +0.000 C 
ATOM      6  C   UNL     1      35.367   5.149  35.011  0.00  0.00    +0.000 C 
ATOM      7  C   UNL     1      34.634   3.670  35.342  0.00  0.00    +0.000 C 
ATOM      8  C   UNL     1      33.536   4.115  36.431  0.00  0.00    +0.000 C 
ATOM      9  C   UNL     1      34.296   4.153  37.735  0.00  0.00    +0.000 C 
ATOM     10  C   UNL     1      35.761   4.326  37.409  0.00  0.00    +0.000 C 
ATOM     11  C   UNL     1      36.048   5.394  36.436  0.00  0.00    +0.000 C 
ATOM     12  O   UNL     1      37.417   5.245  36.106  0.00  0.00    +0.000 OA
ENDROOT
BRANCH  11  13
ATOM     13  C   UNL     1      35.766   6.694  36.998  0.00  0.00    +0.000 C 
BRANCH  13  14
ATOM     14  C   UNL     1      36.803   7.549  37.566  0.00  0.00    +0.000 C 
BRANCH  14  15
ATOM     15  C   UNL     1      36.826   8.854  36.874  0.00  0.00    +0.000 A 
ATOM     16  C   UNL     1      37.608   9.891  37.326  0.00  0.00    +0.000 A 
ATOM     17  C   UNL     1      37.650  11.112  36.706  0.00  0.00    +0.000 A 
ATOM     18  C   UNL     1      36.886  11.332  35.584  0.00  0.00    +0.000 A 
ATOM     19  C   UNL     1      36.106  10.292  35.134  0.00  0.00    +0.000 A 
ATOM     20  C   UNL     1      36.061   9.077  35.746  0.00  0.00    +0.000 A 
ENDBRANCH  14  15
ENDBRANCH  13  14
ENDBRANCH  11  13
TORSDOF 3
ENDMDL
MODEL 8
REMARK VINA RESULT:      -6.1     17.581     20.897
REMARK  Name = 
REMARK  3 active torsions:
REMARK  status: ('A' for Active; 'I' for Inactive)
REMARK    1  A    between atoms: C_11  and  C_13
REMARK    2  A    between atoms: C_13  and  C_14
REMARK    3  A    between atoms: C_14  and  C_15
REMARK                            x       y       z     vdW  Elec       q    Type
REMARK                         _______ _______ _______ _____ _____    ______ ____
ROOT
ATOM      1  O   UNL     1      26.012  22.216  30.715  0.00  0.00    +0.000 OA
ATOM      2  C   UNL     1      26.767  22.983  30.121  0.00  0.00    +0.000 C 
ATOM      3  C   UNL     1      26.969  24.312  30.577  0.00  0.00    +0.000 C 
ATOM      4  C   UNL     1      27.180  25.260  29.474  0.00  0.00    +0.000 C 
ATOM      5  C   UNL     1      27.375  24.838  28.152  0.00  0.00    +0.000 C 
ATOM      6  C   UNL     1      26.747  23.434  27.741  0.00  0.00    +0.000 C 
ATOM      7  C   UNL     1      27.476  22.388  28.839  0.00  0.00    +0.000 C 
ATOM      8  C   UNL     1      28.903  23.106  29.036  0.00  0.00    +0.000 C 
ATOM      9  C   UNL     1      29.728  22.626  27.866  0.00  0.00    +0.000 C 
ATOM     10  C   UNL     1      28.775  22.191  26.778  0.00  0.00    +0.000 C 
ATOM     11  C   UNL     1      27.699  23.156  26.488  0.00  0.00    +0.000 C 
ATOM     12  O   UNL     1      26.808  22.476  25.622  0.00  0.00    +0.000 OA
ENDROOT
BRANCH  11  13
ATOM     13  C   UNL     1      28.230  24.356  25.885  0.00  0.00    +0.000 C 
BRANCH  13  14
ATOM     14  C   UNL     1      28.876  24.362  24.577  0.00  0.00    +0.000 C 
BRANCH  14  15
ATOM     15  C   UNL     1      30.326  24.605  24.723  0.00  0.00    +0.000 A 
ATOM     16  C   UNL     1      31.247  23.613  24.481  0.00  0.00    +0.000 A 
ATOM     17  C   UNL     1      32.596  23.808  24.609  0.00  0.00    +0.000 A 
ATOM     18  C   UNL     1      33.072  25.040  24.994  0.00  0.00    +0.000 A 
ATOM     19  C   UNL     1      32.148  26.030  25.234  0.00  0.00    +0.000 A 
ATOM     20  C   UNL     1      30.806  25.841  25.108  0.00  0.00    +0.000 A 
ENDBRANCH  14  15
ENDBRANCH  13  14
ENDBRANCH  11  13
TORSDOF 3
ENDMDL
MODEL 9
REMARK VINA RESULT:      -6.1      7.782      9.190
REMARK  Name = 
REMARK  3 active torsions:
REMARK  status: ('A' for Active; 'I' for Inactive)
REMARK    1  A    between atoms: C_11  and  C_13
REMARK    2  A    between atoms: C_13  and  C_14
REMARK    3  A    between atoms: C_14  and  C_15
REMARK                            x       y       z     vdW  Elec       q    Type
REMARK                         _______ _______ _______ _____ _____    ______ ____
ROOT
ATOM      1  O   UNL     1      26.854  11.462  39.067  0.00  0.00    +0.000 OA
ATOM      2  C   UNL     1      25.843  11.745  38.428  0.00  0.00    +0.000 C 
ATOM      3  C   UNL     1      25.455  13.096  38.230  0.00  0.00    +0.000 C 
ATOM      4  C   UNL     1      23.996  13.265  38.201  0.00  0.00    +0.000 C 
ATOM      5  C   UNL     1      23.118  12.174  38.155  0.00  0.00    +0.000 C 
ATOM      6  C   UNL     1      23.638  10.800  38.766  0.00  0.00    +0.000 C 
ATOM      7  C   UNL     1      25.027  10.516  37.858  0.00  0.00    +0.000 C 
ATOM      8  C   UNL     1      24.607  11.175  36.451  0.00  0.00    +0.000 C 
ATOM      9  C   UNL     1      23.804  10.100  35.759  0.00  0.00    +0.000 C 
ATOM     10  C   UNL     1      23.274   9.166  36.820  0.00  0.00    +0.000 C 
ATOM     11  C   UNL     1      22.639   9.842  37.966  0.00  0.00    +0.000 C 
ATOM     12  O   UNL     1      22.418   8.825  38.927  0.00  0.00    +0.000 OA
ENDROOT
BRANCH  11  13
ATOM     13  C   UNL     1      21.410  10.488  37.569  0.00  0.00    +0.000 C 
BRANCH  13  14
ATOM     14  C   UNL     1      20.367   9.801  36.813  0.00  0.00    +0.000 C 
BRANCH  14  15
ATOM     15  C   UNL     1      19.065   9.941  37.496  0.00  0.00    +0.000 A 
ATOM     16  C   UNL     1      18.891   9.531  38.797  0.00  0.00    +0.000 A 
ATOM     17  C   UNL     1      17.696   9.647  39.456  0.00  0.00    +0.000 A 
ATOM     18  C   UNL     1      16.611  10.192  38.809  0.00  0.00    +0.000 A 
ATOM     19  C   UNL     1      16.790  10.602  37.508  0.00  0.00    +0.000 A 
ATOM     20  C   UNL     1      17.975  10.489  36.849  0.00  0.00    +0.000 A 
ENDBRANCH  14  15
ENDBRANCH  13  14
ENDBRANCH  11  13
TORSDOF 3
ENDMDL
MODEL 10
REMARK VINA RESULT:      -6.1     20.592     23.173
REMARK  Name = 
REMARK  3 active torsions:
REMARK  status: ('A' for Active; 'I' for Inactive)
REMARK    1  A    between atoms: C_11  and  C_13
REMARK    2  A    between atoms: C_13  and  C_14
REMARK    3  A    between atoms: C_14  and  C_15
REMARK                            x       y       z     vdW  Elec       q    Type
REMARK                         _______ _______ _______ _____ _____    ______ ____
ROOT
ATOM      1  O   UNL     1      18.206 -13.381  32.396  0.00  0.00    +0.000 OA
ATOM      2  C   UNL     1      18.073 -12.195  32.100  0.00  0.00    +0.000 C 
ATOM      3  C   UNL     1      17.211 -11.346  32.841  0.00  0.00    +0.000 C 
ATOM      4  C   UNL     1      16.563 -10.328  32.002  0.00  0.00    +0.000 C 
ATOM      5  C   UNL     1      16.942 -10.105  30.672  0.00  0.00    +0.000 C 
ATOM      6  C   UNL     1      17.591 -11.329  29.889  0.00  0.00    +0.000 C 
ATOM      7  C   UNL     1      18.917 -11.702  30.857  0.00  0.00    +0.000 C 
ATOM      8  C   UNL     1      19.295 -10.243  31.423  0.00  0.00    +0.000 C 
ATOM      9  C   UNL     1      20.130  -9.621  30.330  0.00  0.00    +0.000 C 
ATOM     10  C   UNL     1      19.794 -10.325  29.037  0.00  0.00    +0.000 C 
ATOM     11  C   UNL     1      18.350 -10.468  28.777  0.00  0.00    +0.000 C 
ATOM     12  O   UNL     1      18.252 -11.331  27.658  0.00  0.00    +0.000 OA
ENDROOT
BRANCH  11  13
ATOM     13  C   UNL     1      17.742  -9.182  28.524  0.00  0.00    +0.000 C 
BRANCH  13  14
ATOM     14  C   UNL     1      17.360  -8.741  27.186  0.00  0.00    +0.000 C 
BRANCH  14  15
ATOM     15  C   UNL     1      18.194  -7.595  26.769  0.00  0.00    +0.000 A 
ATOM     16  C   UNL     1      17.857  -6.305  27.105  0.00  0.00    +0.000 A 
ATOM     17  C   UNL     1      18.610  -5.223  26.732  0.00  0.00    +0.000 A 
ATOM     18  C   UNL     1      19.753  -5.411  25.991  0.00  0.00    +0.000 A 
ATOM     19  C   UNL     1      20.087  -6.704  25.658  0.00  0.00    +0.000 A 
ATOM     20  C   UNL     1      19.342  -7.782  26.026  0.00  0.00    +0.000 A 
ENDBRANCH  14  15
ENDBRANCH  13  14
ENDBRANCH  11  13
TORSDOF 3
ENDMDL
