MODEL 1
REMARK VINA RESULT:      -6.1      0.000      0.000
REMARK  Name = 
REMARK  3 active torsions:
REMARK  status: ('A' for Active; 'I' for Inactive)
REMARK    1  A    between atoms: C_4  and  N_5
REMARK    2  A    between atoms: C_6  and  C_8
REMARK    3  A    between atoms: C_15  and  C_16
REMARK                            x       y       z     vdW  Elec       q    Type
REMARK                         _______ _______ _______ _____ _____    ______ ____
ROOT
ATOM      1  C   UNL     1      27.358  25.763  21.228  0.00  0.00    +0.000 C 
ATOM      2  C   UNL     1      28.048  25.222  22.447  0.00  0.00    +0.000 A 
ATOM      3  C   UNL     1      27.517  25.390  23.711  0.00  0.00    +0.000 A 
ATOM      4  C   UNL     1      28.187  24.874  24.821  0.00  0.00    +0.000 A 
ATOM      5  C   UNL     1      29.372  24.203  24.616  0.00  0.00    +0.000 A 
ATOM      6  C   UNL     1      29.900  24.039  23.331  0.00  0.00    +0.000 A 
ATOM      7  C   UNL     1      29.234  24.552  22.237  0.00  0.00    +0.000 A 
ATOM      8  O   UNL     1      29.737  24.404  20.940  0.00  0.00    +0.000 OA
ENDROOT
BRANCH   4   9
ATOM      9  N   UNL     1      27.698  25.011  26.134  0.00  0.00    +0.000 NA
ATOM     10  C   UNL     1      26.687  24.237  26.716  0.00  0.00    +0.000 C 
ATOM     11  O   UNL     1      26.158  23.328  26.006  0.00  0.00    +0.000 OA
BRANCH  10  12
ATOM     12  C   UNL     1      26.292  24.500  28.081  0.00  0.00    +0.000 A 
ATOM     13  C   UNL     1      25.488  25.563  28.415  0.00  0.00    +0.000 A 
ATOM     14  C   UNL     1      25.127  25.784  29.751  0.00  0.00    +0.000 A 
ATOM     15  C   UNL     1      25.574  24.943  30.742  0.00  0.00    +0.000 A 
ATOM     16  C   UNL     1      26.376  23.882  30.416  0.00  0.00    +0.000 A 
ATOM     17  C   UNL     1      26.714  23.687  29.098  0.00  0.00    +0.000 A 
ATOM     18 CL   UNL     1      27.745  22.318  28.712  0.00  0.00    +0.000 Cl
ENDBRANCH  10  12
ENDBRANCH   4   9
BRANCH   5  19
ATOM     19  C   UNL     1      30.086  23.651  25.809  0.00  0.00    +0.000 C 
ATOM     20  C   UNL     1      29.995  22.167  25.893  0.00  0.00    +0.000 C 
ATOM     21  C   UNL     1      31.483  24.188  25.922  0.00  0.00    +0.000 C 
ENDBRANCH   5  19
TORSDOF 3
ENDMDL
MODEL 2
REMARK VINA RESULT:      -6.0     32.081     33.652
REMARK  Name = 
REMARK  3 active torsions:
REMARK  status: ('A' for Active; 'I' for Inactive)
REMARK    1  A    between atoms: C_4  and  N_5
REMARK    2  A    between atoms: C_6  and  C_8
REMARK    3  A    between atoms: C_15  and  C_16
REMARK                            x       y       z     vdW  Elec       q    Type
REMARK                         _______ _______ _______ _____ _____    ______ ____
ROOT
ATOM      1  C   UNL     1      24.761 -12.608  26.035  0.00  0.00    +0.000 C 
ATOM      2  C   UNL     1      24.457 -11.276  25.413  0.00  0.00    +0.000 A 
ATOM      3  C   UNL     1      23.470 -10.452  25.918  0.00  0.00    +0.000 A 
ATOM      4  C   UNL     1      23.216  -9.220  25.312  0.00  0.00    +0.000 A 
ATOM      5  C   UNL     1      23.968  -8.862  24.215  0.00  0.00    +0.000 A 
ATOM      6  C   UNL     1      24.965  -9.706  23.713  0.00  0.00    +0.000 A 
ATOM      7  C   UNL     1      25.212 -10.923  24.315  0.00  0.00    +0.000 A 
ATOM      8  O   UNL     1      26.202 -11.788  23.835  0.00  0.00    +0.000 OA
ENDROOT
BRANCH   4   9
ATOM      9  N   UNL     1      22.225  -8.335  25.778  0.00  0.00    +0.000 NA
ATOM     10  C   UNL     1      20.904  -8.273  25.321  0.00  0.00    +0.000 C 
ATOM     11  O   UNL     1      20.558  -9.081  24.405  0.00  0.00    +0.000 OA
BRANCH  10  12
ATOM     12  C   UNL     1      20.000  -7.305  25.900  0.00  0.00    +0.000 A 
ATOM     13  C   UNL     1      20.104  -5.960  25.635  0.00  0.00    +0.000 A 
ATOM     14  C   UNL     1      19.208  -5.054  26.217  0.00  0.00    +0.000 A 
ATOM     15  C   UNL     1      18.217  -5.498  27.059  0.00  0.00    +0.000 A 
ATOM     16  C   UNL     1      18.108  -6.836  27.328  0.00  0.00    +0.000 A 
ATOM     17  C   UNL     1      18.999  -7.704  26.744  0.00  0.00    +0.000 A 
ATOM     18 CL   UNL     1      18.834  -9.415  27.108  0.00  0.00    +0.000 Cl
ENDBRANCH  10  12
ENDBRANCH   4   9
BRANCH   5  19
ATOM     19  C   UNL     1      23.692  -7.542  23.570  0.00  0.00    +0.000 C 
ATOM     20  C   UNL     1      24.837  -6.598  23.688  0.00  0.00    +0.000 C 
ATOM     21  C   UNL     1      23.169  -7.702  22.172  0.00  0.00    +0.000 C 
ENDBRANCH   5  19
TORSDOF 3
ENDMDL
MODEL 3
REMARK VINA RESULT:      -5.9      3.764      6.225
REMARK  Name = 
REMARK  3 active torsions:
REMARK  status: ('A' for Active; 'I' for Inactive)
REMARK    1  A    between atoms: C_4  and  N_5
REMARK    2  A    between atoms: C_6  and  C_8
REMARK    3  A    between atoms: C_15  and  C_16
REMARK                            x       y       z     vdW  Elec       q    Type
REMARK                         _______ _______ _______ _____ _____    ______ ____
ROOT
ATOM      1  C   UNL     1      30.797  21.367  33.330  0.00  0.00    +0.000 C 
ATOM      2  C   UNL     1      30.754  21.817  31.898  0.00  0.00    +0.000 A 
ATOM      3  C   UNL     1      29.669  22.503  31.389  0.00  0.00    +0.000 A 
ATOM      4  C   UNL     1      29.665  22.904  30.052  0.00  0.00    +0.000 A 
ATOM      5  C   UNL     1      30.760  22.600  29.274  0.00  0.00    +0.000 A 
ATOM      6  C   UNL     1      31.853  21.905  29.801  0.00  0.00    +0.000 A 
ATOM      7  C   UNL     1      31.852  21.509  31.123  0.00  0.00    +0.000 A 
ATOM      8  O   UNL     1      32.932  20.813  31.678  0.00  0.00    +0.000 OA
ENDROOT
BRANCH   4   9
ATOM      9  N   UNL     1      28.590  23.606  29.474  0.00  0.00    +0.000 NA
ATOM     10  C   UNL     1      27.328  23.074  29.184  0.00  0.00    +0.000 C 
ATOM     11  O   UNL     1      27.124  21.853  29.463  0.00  0.00    +0.000 OA
BRANCH  10  12
ATOM     12  C   UNL     1      26.323  23.924  28.587  0.00  0.00    +0.000 A 
ATOM     13  C   UNL     1      26.021  23.866  27.247  0.00  0.00    +0.000 A 
ATOM     14  C   UNL     1      25.040  24.707  26.706  0.00  0.00    +0.000 A 
ATOM     15  C   UNL     1      24.369  25.599  27.508  0.00  0.00    +0.000 A 
ATOM     16  C   UNL     1      24.664  25.662  28.843  0.00  0.00    +0.000 A 
ATOM     17  C   UNL     1      25.630  24.826  29.348  0.00  0.00    +0.000 A 
ATOM     18 CL   UNL     1      25.987  24.930  31.066  0.00  0.00    +0.000 Cl
ENDBRANCH  10  12
ENDBRANCH   4   9
BRANCH   5  19
ATOM     19  C   UNL     1      30.750  23.033  27.842  0.00  0.00    +0.000 C 
ATOM     20  C   UNL     1      32.014  23.711  27.443  0.00  0.00    +0.000 C 
ATOM     21  C   UNL     1      30.334  21.920  26.925  0.00  0.00    +0.000 C 
ENDBRANCH   5  19
TORSDOF 3
ENDMDL
MODEL 4
REMARK VINA RESULT:      -5.9      3.312      6.602
REMARK  Name = 
REMARK  3 active torsions:
REMARK  status: ('A' for Active; 'I' for Inactive)
REMARK    1  A    between atoms: C_4  and  N_5
REMARK    2  A    between atoms: C_6  and  C_8
REMARK    3  A    between atoms: C_15  and  C_16
REMARK                            x       y       z     vdW  Elec       q    Type
REMARK                         _______ _______ _______ _____ _____    ______ ____
ROOT
ATOM      1  C   UNL     1      32.654  22.657  30.017  0.00  0.00    +0.000 C 
ATOM      2  C   UNL     1      31.159  22.637  29.886  0.00  0.00    +0.000 A 
ATOM      3  C   UNL     1      30.542  22.653  28.650  0.00  0.00    +0.000 A 
ATOM      4  C   UNL     1      29.149  22.633  28.567  0.00  0.00    +0.000 A 
ATOM      5  C   UNL     1      28.424  22.599  29.738  0.00  0.00    +0.000 A 
ATOM      6  C   UNL     1      29.060  22.583  30.984  0.00  0.00    +0.000 A 
ATOM      7  C   UNL     1      30.437  22.603  31.060  0.00  0.00    +0.000 A 
ATOM      8  O   UNL     1      31.101  22.588  32.292  0.00  0.00    +0.000 OA
ENDROOT
BRANCH   4   9
ATOM      9  N   UNL     1      28.461  22.648  27.338  0.00  0.00    +0.000 NA
ATOM     10  C   UNL     1      28.149  23.788  26.590  0.00  0.00    +0.000 C 
ATOM     11  O   UNL     1      28.513  24.914  27.049  0.00  0.00    +0.000 OA
BRANCH  10  12
ATOM     12  C   UNL     1      27.435  23.641  25.342  0.00  0.00    +0.000 A 
ATOM     13  C   UNL     1      26.066  23.525  25.294  0.00  0.00    +0.000 A 
ATOM     14  C   UNL     1      25.410  23.383  24.064  0.00  0.00    +0.000 A 
ATOM     15  C   UNL     1      26.127  23.358  22.892  0.00  0.00    +0.000 A 
ATOM     16  C   UNL     1      27.491  23.472  22.932  0.00  0.00    +0.000 A 
ATOM     17  C   UNL     1      28.109  23.611  24.151  0.00  0.00    +0.000 A 
ATOM     18 CL   UNL     1      29.860  23.755  24.170  0.00  0.00    +0.000 Cl
ENDBRANCH  10  12
ENDBRANCH   4   9
BRANCH   5  19
ATOM     19  C   UNL     1      26.932  22.578  29.643  0.00  0.00    +0.000 C 
ATOM     20  C   UNL     1      26.325  21.479  30.443  0.00  0.00    +0.000 C 
ATOM     21  C   UNL     1      26.337  23.931  29.908  0.00  0.00    +0.000 C 
ENDBRANCH   5  19
TORSDOF 3
ENDMDL
MODEL 5
REMARK VINA RESULT:      -5.9      3.209      5.372
REMARK  Name = 
REMARK  3 active torsions:
REMARK  status: ('A' for Active; 'I' for Inactive)
REMARK    1  A    between atoms: C_4  and  N_5
REMARK    2  A    between atoms: C_6  and  C_8
REMARK    3  A    between atoms: C_15  and  C_16
REMARK                            x       y       z     vdW  Elec       q    Type
REMARK                         _______ _______ _______ _____ _____    ______ ____
ROOT
ATOM      1  C   UNL     1      35.261  25.024  24.421  0.00  0.00    +0.000 C 
ATOM      2  C   UNL     1      34.131  24.709  25.358  0.00  0.00    +0.000 A 
ATOM      3  C   UNL     1      32.824  24.639  24.915  0.00  0.00    +0.000 A 
ATOM      4  C   UNL     1      31.800  24.343  25.816  0.00  0.00    +0.000 A 
ATOM      5  C   UNL     1      32.131  24.127  27.136  0.00  0.00    +0.000 A 
ATOM      6  C   UNL     1      33.458  24.201  27.572  0.00  0.00    +0.000 A 
ATOM      7  C   UNL     1      34.467  24.494  26.678  0.00  0.00    +0.000 A 
ATOM      8  O   UNL     1      35.803  24.575  27.084  0.00  0.00    +0.000 OA
ENDROOT
BRANCH   4   9
ATOM      9  N   UNL     1      30.449  24.257  25.428  0.00  0.00    +0.000 NA
ATOM     10  C   UNL     1      29.834  23.139  24.852  0.00  0.00    +0.000 C 
ATOM     11  O   UNL     1      30.546  22.107  24.658  0.00  0.00    +0.000 OA
BRANCH  10  12
ATOM     12  C   UNL     1      28.432  23.205  24.506  0.00  0.00    +0.000 A 
ATOM     13  C   UNL     1      28.004  23.638  23.273  0.00  0.00    +0.000 A 
ATOM     14  C   UNL     1      26.636  23.687  22.977  0.00  0.00    +0.000 A 
ATOM     15  C   UNL     1      25.706  23.304  23.913  0.00  0.00    +0.000 A 
ATOM     16  C   UNL     1      26.125  22.871  25.143  0.00  0.00    +0.000 A 
ATOM     17  C   UNL     1      27.472  22.832  25.408  0.00  0.00    +0.000 A 
ATOM     18 CL   UNL     1      27.979  22.273  26.995  0.00  0.00    +0.000 Cl
ENDBRANCH  10  12
ENDBRANCH   4   9
BRANCH   5  19
ATOM     19  C   UNL     1      31.029  23.811  28.097  0.00  0.00    +0.000 C 
ATOM     20  C   UNL     1      31.116  22.422  28.627  0.00  0.00    +0.000 C 
ATOM     21  C   UNL     1      30.892  24.865  29.156  0.00  0.00    +0.000 C 
ENDBRANCH   5  19
TORSDOF 3
ENDMDL
MODEL 6
REMARK VINA RESULT:      -5.8      2.588      4.173
REMARK  Name = 
REMARK  3 active torsions:
REMARK  status: ('A' for Active; 'I' for Inactive)
REMARK    1  A    between atoms: C_4  and  N_5
REMARK    2  A    between atoms: C_6  and  C_8
REMARK    3  A    between atoms: C_15  and  C_16
REMARK                            x       y       z     vdW  Elec       q    Type
REMARK                         _______ _______ _______ _____ _____    ______ ____
ROOT
ATOM      1  C   UNL     1      30.491  22.291  26.803  0.00  0.00    +0.000 C 
ATOM      2  C   UNL     1      29.588  22.938  25.793  0.00  0.00    +0.000 A 
ATOM      3  C   UNL     1      28.315  23.357  26.126  0.00  0.00    +0.000 A 
ATOM      4  C   UNL     1      27.504  23.954  25.159  0.00  0.00    +0.000 A 
ATOM      5  C   UNL     1      28.009  24.109  23.887  0.00  0.00    +0.000 A 
ATOM      6  C   UNL     1      29.300  23.682  23.562  0.00  0.00    +0.000 A 
ATOM      7  C   UNL     1      30.097  23.091  24.521  0.00  0.00    +0.000 A 
ATOM      8  O   UNL     1      31.393  22.653  24.225  0.00  0.00    +0.000 OA
ENDROOT
BRANCH   4   9
ATOM      9  N   UNL     1      26.198  24.402  25.435  0.00  0.00    +0.000 NA
ATOM     10  C   UNL     1      25.847  25.690  25.854  0.00  0.00    +0.000 C 
ATOM     11  O   UNL     1      26.780  26.538  26.002  0.00  0.00    +0.000 OA
BRANCH  10  12
ATOM     12  C   UNL     1      24.457  25.999  26.099  0.00  0.00    +0.000 A 
ATOM     13  C   UNL     1      23.617  26.428  25.099  0.00  0.00    +0.000 A 
ATOM     14  C   UNL     1      22.275  26.718  25.378  0.00  0.00    +0.000 A 
ATOM     15  C   UNL     1      21.782  26.577  26.653  0.00  0.00    +0.000 A 
ATOM     16  C   UNL     1      22.613  26.149  27.654  0.00  0.00    +0.000 A 
ATOM     17  C   UNL     1      23.925  25.872  27.354  0.00  0.00    +0.000 A 
ATOM     18 CL   UNL     1      24.966  25.326  28.660  0.00  0.00    +0.000 Cl
ENDBRANCH  10  12
ENDBRANCH   4   9
BRANCH   5  19
ATOM     19  C   UNL     1      27.136  24.750  22.855  0.00  0.00    +0.000 C 
ATOM     20  C   UNL     1      27.636  26.088  22.435  0.00  0.00    +0.000 C 
ATOM     21  C   UNL     1      26.843  23.819  21.715  0.00  0.00    +0.000 C 
ENDBRANCH   5  19
TORSDOF 3
ENDMDL
MODEL 7
REMARK VINA RESULT:      -5.6      2.217      5.954
REMARK  Name = 
REMARK  3 active torsions:
REMARK  status: ('A' for Active; 'I' for Inactive)
REMARK    1  A    between atoms: C_4  and  N_5
REMARK    2  A    between atoms: C_6  and  C_8
REMARK    3  A    between atoms: C_15  and  C_16
REMARK                            x       y       z     vdW  Elec       q    Type
REMARK                         _______ _______ _______ _____ _____    ______ ____
ROOT
ATOM      1  C   UNL     1      22.317  26.811  25.233  0.00  0.00    +0.000 C 
ATOM      2  C   UNL     1      23.392  26.345  26.173  0.00  0.00    +0.000 A 
ATOM      3  C   UNL     1      24.623  25.923  25.710  0.00  0.00    +0.000 A 
ATOM      4  C   UNL     1      25.597  25.497  26.614  0.00  0.00    +0.000 A 
ATOM      5  C   UNL     1      25.294  25.510  27.957  0.00  0.00    +0.000 A 
ATOM      6  C   UNL     1      24.043  25.939  28.414  0.00  0.00    +0.000 A 
ATOM      7  C   UNL     1      23.083  26.359  27.517  0.00  0.00    +0.000 A 
ATOM      8  O   UNL     1      21.824  26.794  27.944  0.00  0.00    +0.000 OA
ENDROOT
BRANCH   4   9
ATOM      9  N   UNL     1      26.870  25.056  26.205  0.00  0.00    +0.000 NA
ATOM     10  C   UNL     1      27.169  23.792  25.683  0.00  0.00    +0.000 C 
ATOM     11  O   UNL     1      26.216  22.962  25.564  0.00  0.00    +0.000 OA
BRANCH  10  12
ATOM     12  C   UNL     1      28.531  23.487  25.308  0.00  0.00    +0.000 A 
ATOM     13  C   UNL     1      29.075  23.916  24.121  0.00  0.00    +0.000 A 
ATOM     14  C   UNL     1      30.400  23.598  23.795  0.00  0.00    +0.000 A 
ATOM     15  C   UNL     1      31.170  22.855  24.656  0.00  0.00    +0.000 A 
ATOM     16  C   UNL     1      30.635  22.424  25.840  0.00  0.00    +0.000 A 
ATOM     17  C   UNL     1      29.334  22.749  26.136  0.00  0.00    +0.000 A 
ATOM     18 CL   UNL     1      28.675  22.181  27.663  0.00  0.00    +0.000 Cl
ENDBRANCH  10  12
ENDBRANCH   4   9
BRANCH   5  19
ATOM     19  C   UNL     1      26.341  25.051  28.921  0.00  0.00    +0.000 C 
ATOM     20  C   UNL     1      26.749  26.122  29.873  0.00  0.00    +0.000 C 
ATOM     21  C   UNL     1      25.966  23.755  29.579  0.00  0.00    +0.000 C 
ENDBRANCH   5  19
TORSDOF 3
ENDMDL
MODEL 8
REMARK VINA RESULT:      -5.5      2.040      6.265
REMARK  Name = 
REMARK  3 active torsions:
REMARK  status: ('A' for Active; 'I' for Inactive)
REMARK    1  A    between atoms: C_4  and  N_5
REMARK    2  A    between atoms: C_6  and  C_8
REMARK    3  A    between atoms: C_15  and  C_16
REMARK                            x       y       z     vdW  Elec       q    Type
REMARK                         _______ _______ _______ _____ _____    ______ ____
ROOT
ATOM      1  C   UNL     1      24.329  26.141  29.560  0.00  0.00    +0.000 C 
ATOM      2  C   UNL     1      25.538  25.471  28.973  0.00  0.00    +0.000 A 
ATOM      3  C   UNL     1      25.970  25.754  27.692  0.00  0.00    +0.000 A 
ATOM      4  C   UNL     1      27.098  25.111  27.181  0.00  0.00    +0.000 A 
ATOM      5  C   UNL     1      27.753  24.202  27.982  0.00  0.00    +0.000 A 
ATOM      6  C   UNL     1      27.306  23.924  29.278  0.00  0.00    +0.000 A 
ATOM      7  C   UNL     1      26.190  24.561  29.779  0.00  0.00    +0.000 A 
ATOM      8  O   UNL     1      25.719  24.304  31.071  0.00  0.00    +0.000 OA
ENDROOT
BRANCH   4   9
ATOM      9  N   UNL     1      27.589  25.356  25.884  0.00  0.00    +0.000 NA
ATOM     10  C   UNL     1      27.107  24.776  24.705  0.00  0.00    +0.000 C 
ATOM     11  O   UNL     1      26.144  23.955  24.801  0.00  0.00    +0.000 OA
BRANCH  10  12
ATOM     12  C   UNL     1      27.718  25.129  23.443  0.00  0.00    +0.000 A 
ATOM     13  C   UNL     1      27.359  26.260  22.750  0.00  0.00    +0.000 A 
ATOM     14  C   UNL     1      27.975  26.566  21.529  0.00  0.00    +0.000 A 
ATOM     15  C   UNL     1      28.944  25.741  21.011  0.00  0.00    +0.000 A 
ATOM     16  C   UNL     1      29.307  24.612  21.697  0.00  0.00    +0.000 A 
ATOM     17  C   UNL     1      28.687  24.335  22.891  0.00  0.00    +0.000 A 
ATOM     18 CL   UNL     1      29.174  22.879  23.747  0.00  0.00    +0.000 Cl
ENDBRANCH  10  12
ENDBRANCH   4   9
BRANCH   5  19
ATOM     19  C   UNL     1      28.961  23.516  27.429  0.00  0.00    +0.000 C 
ATOM     20  C   UNL     1      30.188  23.787  28.229  0.00  0.00    +0.000 C 
ATOM     21  C   UNL     1      28.707  22.060  27.169  0.00  0.00    +0.000 C 
ENDBRANCH   5  19
TORSDOF 3
ENDMDL
MODEL 9
REMARK VINA RESULT:      -5.4     28.718     31.209
REMARK  Name = 
REMARK  3 active torsions:
REMARK  status: ('A' for Active; 'I' for Inactive)
REMARK    1  A    between atoms: C_4  and  N_5
REMARK    2  A    between atoms: C_6  and  C_8
REMARK    3  A    between atoms: C_15  and  C_16
REMARK                            x       y       z     vdW  Elec       q    Type
REMARK                         _______ _______ _______ _____ _____    ______ ____
ROOT
ATOM      1  C   UNL     1      33.985  -0.294  34.739  0.00  0.00    +0.000 C 
ATOM      2  C   UNL     1      33.582  -1.740  34.686  0.00  0.00    +0.000 A 
ATOM      3  C   UNL     1      33.560  -2.439  33.495  0.00  0.00    +0.000 A 
ATOM      4  C   UNL     1      33.180  -3.782  33.485  0.00  0.00    +0.000 A 
ATOM      5  C   UNL     1      32.834  -4.374  34.680  0.00  0.00    +0.000 A 
ATOM      6  C   UNL     1      32.860  -3.654  35.879  0.00  0.00    +0.000 A 
ATOM      7  C   UNL     1      33.236  -2.327  35.884  0.00  0.00    +0.000 A 
ATOM      8  O   UNL     1      33.272  -1.582  37.068  0.00  0.00    +0.000 OA
ENDROOT
BRANCH   4   9
ATOM      9  N   UNL     1      33.137  -4.550  32.305  0.00  0.00    +0.000 NA
ATOM     10  C   UNL     1      34.168  -5.365  31.823  0.00  0.00    +0.000 C 
ATOM     11  O   UNL     1      35.240  -5.424  32.499  0.00  0.00    +0.000 OA
BRANCH  10  12
ATOM     12  C   UNL     1      33.974  -6.094  30.590  0.00  0.00    +0.000 A 
ATOM     13  C   UNL     1      34.128  -5.502  29.359  0.00  0.00    +0.000 A 
ATOM     14  C   UNL     1      33.930  -6.244  28.188  0.00  0.00    +0.000 A 
ATOM     15  C   UNL     1      33.580  -7.571  28.254  0.00  0.00    +0.000 A 
ATOM     16  C   UNL     1      33.424  -8.167  29.477  0.00  0.00    +0.000 A 
ATOM     17  C   UNL     1      33.624  -7.418  30.611  0.00  0.00    +0.000 A 
ATOM     18 CL   UNL     1      33.417  -8.211  32.165  0.00  0.00    +0.000 Cl
ENDBRANCH  10  12
ENDBRANCH   4   9
BRANCH   5  19
ATOM     19  C   UNL     1      32.427  -5.813  34.663  0.00  0.00    +0.000 C 
ATOM     20  C   UNL     1      33.341  -6.674  35.463  0.00  0.00    +0.000 C 
ATOM     21  C   UNL     1      30.973  -5.986  34.994  0.00  0.00    +0.000 C 
ENDBRANCH   5  19
TORSDOF 3
ENDMDL
MODEL 10
REMARK VINA RESULT:      -5.3      3.424      6.049
REMARK  Name = 
REMARK  3 active torsions:
REMARK  status: ('A' for Active; 'I' for Inactive)
REMARK    1  A    between atoms: C_4  and  N_5
REMARK    2  A    between atoms: C_6  and  C_8
REMARK    3  A    between atoms: C_15  and  C_16
REMARK                            x       y       z     vdW  Elec       q    Type
REMARK                         _______ _______ _______ _____ _____    ______ ____
ROOT
ATOM      1  C   UNL     1      32.314  21.389  30.442  0.00  0.00    +0.000 C 
ATOM      2  C   UNL     1      32.236  22.238  29.207  0.00  0.00    +0.000 A 
ATOM      3  C   UNL     1      31.158  22.164  28.347  0.00  0.00    +0.000 A 
ATOM      4  C   UNL     1      31.120  22.969  27.208  0.00  0.00    +0.000 A 
ATOM      5  C   UNL     1      32.175  23.824  26.975  0.00  0.00    +0.000 A 
ATOM      6  C   UNL     1      33.262  23.890  27.853  0.00  0.00    +0.000 A 
ATOM      7  C   UNL     1      33.295  23.092  28.978  0.00  0.00    +0.000 A 
ATOM      8  O   UNL     1      34.368  23.136  29.875  0.00  0.00    +0.000 OA
ENDROOT
BRANCH   4   9
ATOM      9  N   UNL     1      30.050  22.941  26.293  0.00  0.00    +0.000 NA
ATOM     10  C   UNL     1      28.904  23.742  26.351  0.00  0.00    +0.000 C 
ATOM     11  O   UNL     1      28.810  24.570  27.308  0.00  0.00    +0.000 OA
BRANCH  10  12
ATOM     12  C   UNL     1      27.887  23.595  25.334  0.00  0.00    +0.000 A 
ATOM     13  C   UNL     1      26.653  23.055  25.608  0.00  0.00    +0.000 A 
ATOM     14  C   UNL     1      25.695  22.929  24.594  0.00  0.00    +0.000 A 
ATOM     15  C   UNL     1      25.977  23.343  23.314  0.00  0.00    +0.000 A 
ATOM     16  C   UNL     1      27.204  23.882  23.034  0.00  0.00    +0.000 A 
ATOM     17  C   UNL     1      28.126  23.994  24.046  0.00  0.00    +0.000 A 
ATOM     18 CL   UNL     1      29.692  24.689  23.655  0.00  0.00    +0.000 Cl
ENDBRANCH  10  12
ENDBRANCH   4   9
BRANCH   5  19
ATOM     19  C   UNL     1      32.130  24.684  25.753  0.00  0.00    +0.000 C 
ATOM     20  C   UNL     1      32.079  26.137  26.078  0.00  0.00    +0.000 C 
ATOM     21  C   UNL     1      33.200  24.313  24.768  0.00  0.00    +0.000 C 
ENDBRANCH   5  19
TORSDOF 3
ENDMDL
