MODEL 1
REMARK VINA RESULT:      -8.2      0.000      0.000
REMARK  Name = 
REMARK  7 active torsions:
REMARK  status: ('A' for Active; 'I' for Inactive)
REMARK    1  A    between atoms: C_2  and  C_3
REMARK    2  A    between atoms: C_6  and  O_7
REMARK    3  A    between atoms: O_7  and  C_8
REMARK    4  A    between atoms: C_8  and  C_9
REMARK    5  A    between atoms: C_12  and  C_13
REMARK    6  A    between atoms: N_15  and  C_16
REMARK    7  A    between atoms: C_28  and  O_29
REMARK                            x       y       z     vdW  Elec       q    Type
REMARK                         _______ _______ _______ _____ _____    ______ ____
ROOT
ATOM      1  C   UNL     1      38.143   0.005  14.959  0.00  0.00    +0.000 C 
ATOM      2  O   UNL     1      38.711  -0.871  14.260  0.00  0.00    +0.000 OA
ATOM      3  N   UNL     1      37.105  -0.400  15.839  0.00  0.00    +0.000 NA
ENDROOT
BRANCH   3   4
ATOM      4  C   UNL     1      36.714  -1.754  15.931  0.00  0.00    +0.000 A 
ATOM      5  C   UNL     1      35.836  -2.283  14.998  0.00  0.00    +0.000 A 
ATOM      6  C   UNL     1      35.416  -3.596  15.032  0.00  0.00    +0.000 A 
ATOM      7  O   UNL     1      34.604  -4.331  14.281  0.00  0.00    +0.000 OA
ATOM      8  C   UNL     1      34.528  -5.542  14.731  0.00  0.00    +0.000 A 
ATOM      9  C   UNL     1      33.824  -6.646  14.292  0.00  0.00    +0.000 A 
ATOM     10  C   UNL     1      33.940  -7.841  14.991  0.00  0.00    +0.000 A 
ATOM     11  C   UNL     1      34.748  -7.939  16.117  0.00  0.00    +0.000 A 
ATOM     12  C   UNL     1      35.438  -6.819  16.530  0.00  0.00    +0.000 A 
ATOM     13  C   UNL     1      35.337  -5.631  15.855  0.00  0.00    +0.000 A 
ATOM     14  C   UNL     1      35.906  -4.389  16.051  0.00  0.00    +0.000 A 
ATOM     15  C   UNL     1      36.788  -3.858  16.989  0.00  0.00    +0.000 A 
ATOM     16  C   UNL     1      37.197  -2.548  16.942  0.00  0.00    +0.000 A 
BRANCH  16  17
ATOM     17  O   UNL     1      38.073  -1.977  17.853  0.00  0.00    +0.000 OA
ATOM     18  C   UNL     1      37.715  -1.761  19.206  0.00  0.00    +0.000 C 
ENDBRANCH  16  17
ENDBRANCH   3   4
BRANCH   1  22
ATOM     19  C   UNL     1      38.778   3.493  15.315  0.00  0.00    +0.000 A 
ATOM     20  C   UNL     1      39.487   3.291  14.163  0.00  0.00    +0.000 A 
ATOM     21  C   UNL     1      39.350   1.951  13.865  0.00  0.00    +0.000 A 
ATOM     22  C   UNL     1      38.562   1.398  14.849  0.00  0.00    +0.000 A 
ATOM     23  O   UNL     1      38.260   2.362  15.671  0.00  0.00    +0.000 OA
BRANCH  19  24
ATOM     24  C   UNL     1      38.591   4.753  16.073  0.00  0.00    +0.000 C 
BRANCH  24  25
ATOM     25  O   UNL     1      39.707   5.605  15.985  0.00  0.00    +0.000 OA
BRANCH  25  29
ATOM     26  C   UNL     1      41.773   6.674  19.438  0.00  0.00    +0.000 A 
ATOM     27  C   UNL     1      40.482   6.183  19.524  0.00  0.00    +0.000 A 
ATOM     28  C   UNL     1      39.841   5.844  18.352  0.00  0.00    +0.000 A 
ATOM     29  C   UNL     1      40.418   5.968  17.108  0.00  0.00    +0.000 A 
ATOM     30  C   UNL     1      41.704   6.458  17.063  0.00  0.00    +0.000 A 
ATOM     31  C   UNL     1      42.379   6.809  18.211  0.00  0.00    +0.000 A 
BRANCH  26  33
ATOM     32  C   UNL     1      43.176   5.820  21.291  0.00  0.00    +0.000 C 
ATOM     33  C   UNL     1      42.448   7.034  20.713  0.00  0.00    +0.000 C 
ENDBRANCH  26  33
ENDBRANCH  25  29
ENDBRANCH  24  25
ENDBRANCH  19  24
ENDBRANCH   1  22
TORSDOF 7
ENDMDL
MODEL 2
REMARK VINA RESULT:      -8.0     26.299     30.282
REMARK  Name = 
REMARK  7 active torsions:
REMARK  status: ('A' for Active; 'I' for Inactive)
REMARK    1  A    between atoms: C_2  and  C_3
REMARK    2  A    between atoms: C_6  and  O_7
REMARK    3  A    between atoms: O_7  and  C_8
REMARK    4  A    between atoms: C_8  and  C_9
REMARK    5  A    between atoms: C_12  and  C_13
REMARK    6  A    between atoms: N_15  and  C_16
REMARK    7  A    between atoms: C_28  and  O_29
REMARK                            x       y       z     vdW  Elec       q    Type
REMARK                         _______ _______ _______ _____ _____    ______ ____
ROOT
ATOM      1  C   UNL     1      25.631  15.604  37.705  0.00  0.00    +0.000 C 
ATOM      2  O   UNL     1      24.377  15.686  37.709  0.00  0.00    +0.000 OA
ATOM      3  N   UNL     1      26.350  16.297  36.696  0.00  0.00    +0.000 NA
ENDROOT
BRANCH   3   4
ATOM      4  C   UNL     1      25.681  17.061  35.716  0.00  0.00    +0.000 A 
ATOM      5  C   UNL     1      25.342  18.378  35.982  0.00  0.00    +0.000 A 
ATOM      6  C   UNL     1      24.689  19.178  35.067  0.00  0.00    +0.000 A 
ATOM      7  O   UNL     1      24.261  20.435  35.071  0.00  0.00    +0.000 OA
ATOM      8  C   UNL     1      23.691  20.734  33.948  0.00  0.00    +0.000 A 
ATOM      9  C   UNL     1      23.105  21.897  33.493  0.00  0.00    +0.000 A 
ATOM     10  C   UNL     1      22.563  21.924  32.214  0.00  0.00    +0.000 A 
ATOM     11  C   UNL     1      22.604  20.803  31.394  0.00  0.00    +0.000 A 
ATOM     12  C   UNL     1      23.197  19.656  31.877  0.00  0.00    +0.000 A 
ATOM     13  C   UNL     1      23.736  19.609  33.135  0.00  0.00    +0.000 A 
ATOM     14  C   UNL     1      24.373  18.613  33.847  0.00  0.00    +0.000 A 
ATOM     15  C   UNL     1      24.713  17.289  33.579  0.00  0.00    +0.000 A 
ATOM     16  C   UNL     1      25.364  16.506  34.500  0.00  0.00    +0.000 A 
BRANCH  16  17
ATOM     17  O   UNL     1      25.722  15.184  34.278  0.00  0.00    +0.000 OA
ATOM     18  C   UNL     1      25.323  14.482  33.115  0.00  0.00    +0.000 C 
ENDBRANCH  16  17
ENDBRANCH   3   4
BRANCH   1  22
ATOM     19  C   UNL     1      26.616  13.330  40.265  0.00  0.00    +0.000 A 
ATOM     20  C   UNL     1      27.814  13.971  40.114  0.00  0.00    +0.000 A 
ATOM     21  C   UNL     1      27.615  14.917  39.131  0.00  0.00    +0.000 A 
ATOM     22  C   UNL     1      26.304  14.810  38.727  0.00  0.00    +0.000 A 
ATOM     23  O   UNL     1      25.772  13.856  39.436  0.00  0.00    +0.000 OA
BRANCH  19  24
ATOM     24  C   UNL     1      26.272  12.225  41.190  0.00  0.00    +0.000 C 
BRANCH  24  25
ATOM     25  O   UNL     1      26.574  10.960  40.654  0.00  0.00    +0.000 OA
BRANCH  25  29
ATOM     26  C   UNL     1      27.786   7.865  43.162  0.00  0.00    +0.000 A 
ATOM     27  C   UNL     1      28.279   9.144  43.349  0.00  0.00    +0.000 A 
ATOM     28  C   UNL     1      27.847  10.134  42.492  0.00  0.00    +0.000 A 
ATOM     29  C   UNL     1      26.955   9.914  41.466  0.00  0.00    +0.000 A 
ATOM     30  C   UNL     1      26.486   8.628  41.312  0.00  0.00    +0.000 A 
ATOM     31  C   UNL     1      26.893   7.611  42.147  0.00  0.00    +0.000 A 
BRANCH  26  33
ATOM     32  C   UNL     1      29.094   7.434  45.220  0.00  0.00    +0.000 C 
ATOM     33  C   UNL     1      28.264   6.811  44.096  0.00  0.00    +0.000 C 
ENDBRANCH  26  33
ENDBRANCH  25  29
ENDBRANCH  24  25
ENDBRANCH  19  24
ENDBRANCH   1  22
TORSDOF 7
ENDMDL
MODEL 3
REMARK VINA RESULT:      -8.0      8.419     14.005
REMARK  Name = 
REMARK  7 active torsions:
REMARK  status: ('A' for Active; 'I' for Inactive)
REMARK    1  A    between atoms: C_2  and  C_3
REMARK    2  A    between atoms: C_6  and  O_7
REMARK    3  A    between atoms: O_7  and  C_8
REMARK    4  A    between atoms: C_8  and  C_9
REMARK    5  A    between atoms: C_12  and  C_13
REMARK    6  A    between atoms: N_15  and  C_16
REMARK    7  A    between atoms: C_28  and  O_29
REMARK                            x       y       z     vdW  Elec       q    Type
REMARK                         _______ _______ _______ _____ _____    ______ ____
ROOT
ATOM      1  C   UNL     1      43.813   5.691  26.581  0.00  0.00    +0.000 C 
ATOM      2  O   UNL     1      44.307   6.242  27.598  0.00  0.00    +0.000 OA
ATOM      3  N   UNL     1      43.048   4.508  26.759  0.00  0.00    +0.000 NA
ENDROOT
BRANCH   3   4
ATOM      4  C   UNL     1      42.841   3.958  28.042  0.00  0.00    +0.000 A 
ATOM      5  C   UNL     1      43.779   3.089  28.578  0.00  0.00    +0.000 A 
ATOM      6  C   UNL     1      43.636   2.518  29.826  0.00  0.00    +0.000 A 
ATOM      7  O   UNL     1      44.366   1.678  30.551  0.00  0.00    +0.000 OA
ATOM      8  C   UNL     1      43.796   1.433  31.687  0.00  0.00    +0.000 A 
ATOM      9  C   UNL     1      44.168   0.637  32.752  0.00  0.00    +0.000 A 
ATOM     10  C   UNL     1      43.337   0.567  33.864  0.00  0.00    +0.000 A 
ATOM     11  C   UNL     1      42.147   1.282  33.917  0.00  0.00    +0.000 A 
ATOM     12  C   UNL     1      41.803   2.068  32.837  0.00  0.00    +0.000 A 
ATOM     13  C   UNL     1      42.608   2.150  31.732  0.00  0.00    +0.000 A 
ATOM     14  C   UNL     1      42.503   2.845  30.544  0.00  0.00    +0.000 A 
ATOM     15  C   UNL     1      41.561   3.718  30.005  0.00  0.00    +0.000 A 
ATOM     16  C   UNL     1      41.717   4.279  28.762  0.00  0.00    +0.000 A 
BRANCH  16  17
ATOM     17  O   UNL     1      40.806   5.152  28.186  0.00  0.00    +0.000 OA
ATOM     18  C   UNL     1      40.704   6.505  28.589  0.00  0.00    +0.000 C 
ENDBRANCH  16  17
ENDBRANCH   3   4
BRANCH   1  22
ATOM     19  C   UNL     1      44.294   6.420  23.127  0.00  0.00    +0.000 A 
ATOM     20  C   UNL     1      44.413   7.695  23.605  0.00  0.00    +0.000 A 
ATOM     21  C   UNL     1      44.249   7.604  24.971  0.00  0.00    +0.000 A 
ATOM     22  C   UNL     1      44.038   6.275  25.264  0.00  0.00    +0.000 A 
ATOM     23  O   UNL     1      44.077   5.634  24.132  0.00  0.00    +0.000 OA
BRANCH  19  24
ATOM     24  C   UNL     1      44.386   5.949  21.725  0.00  0.00    +0.000 C 
BRANCH  24  25
ATOM     25  O   UNL     1      43.954   6.919  20.802  0.00  0.00    +0.000 OA
BRANCH  25  29
ATOM     26  C   UNL     1      40.506   6.310  18.550  0.00  0.00    +0.000 A 
ATOM     27  C   UNL     1      40.430   6.387  19.930  0.00  0.00    +0.000 A 
ATOM     28  C   UNL     1      41.601   6.589  20.630  0.00  0.00    +0.000 A 
ATOM     29  C   UNL     1      42.832   6.718  20.028  0.00  0.00    +0.000 A 
ATOM     30  C   UNL     1      42.867   6.638  18.653  0.00  0.00    +0.000 A 
ATOM     31  C   UNL     1      41.720   6.436  17.917  0.00  0.00    +0.000 A 
BRANCH  26  33
ATOM     32  C   UNL     1      38.705   4.679  18.070  0.00  0.00    +0.000 C 
ATOM     33  C   UNL     1      39.233   6.092  17.813  0.00  0.00    +0.000 C 
ENDBRANCH  26  33
ENDBRANCH  25  29
ENDBRANCH  24  25
ENDBRANCH  19  24
ENDBRANCH   1  22
TORSDOF 7
ENDMDL
MODEL 4
REMARK VINA RESULT:      -7.9      5.772      8.891
REMARK  Name = 
REMARK  7 active torsions:
REMARK  status: ('A' for Active; 'I' for Inactive)
REMARK    1  A    between atoms: C_2  and  C_3
REMARK    2  A    between atoms: C_6  and  O_7
REMARK    3  A    between atoms: O_7  and  C_8
REMARK    4  A    between atoms: C_8  and  C_9
REMARK    5  A    between atoms: C_12  and  C_13
REMARK    6  A    between atoms: N_15  and  C_16
REMARK    7  A    between atoms: C_28  and  O_29
REMARK                            x       y       z     vdW  Elec       q    Type
REMARK                         _______ _______ _______ _____ _____    ______ ____
ROOT
ATOM      1  C   UNL     1      35.667   4.515  14.241  0.00  0.00    +0.000 C 
ATOM      2  O   UNL     1      36.734   4.690  14.883  0.00  0.00    +0.000 OA
ATOM      3  N   UNL     1      35.082   3.222  14.242  0.00  0.00    +0.000 NA
ENDROOT
BRANCH   3   4
ATOM      4  C   UNL     1      35.678   2.151  14.943  0.00  0.00    +0.000 A 
ATOM      5  C   UNL     1      35.350   1.930  16.271  0.00  0.00    +0.000 A 
ATOM      6  C   UNL     1      35.896   0.901  17.011  0.00  0.00    +0.000 A 
ATOM      7  O   UNL     1      35.755   0.483  18.263  0.00  0.00    +0.000 OA
ATOM      8  C   UNL     1      36.501  -0.551  18.492  0.00  0.00    +0.000 A 
ATOM      9  C   UNL     1      36.688  -1.319  19.623  0.00  0.00    +0.000 A 
ATOM     10  C   UNL     1      37.571  -2.391  19.571  0.00  0.00    +0.000 A 
ATOM     11  C   UNL     1      38.262  -2.696  18.405  0.00  0.00    +0.000 A 
ATOM     12  C   UNL     1      38.052  -1.909  17.291  0.00  0.00    +0.000 A 
ATOM     13  C   UNL     1      37.187  -0.848  17.322  0.00  0.00    +0.000 A 
ATOM     14  C   UNL     1      36.802   0.077  16.374  0.00  0.00    +0.000 A 
ATOM     15  C   UNL     1      37.132   0.299  15.039  0.00  0.00    +0.000 A 
ATOM     16  C   UNL     1      36.581   1.328  14.315  0.00  0.00    +0.000 A 
BRANCH  16  17
ATOM     17  O   UNL     1      36.879   1.587  12.985  0.00  0.00    +0.000 OA
ATOM     18  C   UNL     1      36.874   0.568  12.002  0.00  0.00    +0.000 C 
ENDBRANCH  16  17
ENDBRANCH   3   4
BRANCH   1  22
ATOM     19  C   UNL     1      34.700   7.080  11.966  0.00  0.00    +0.000 A 
ATOM     20  C   UNL     1      33.797   7.358  12.954  0.00  0.00    +0.000 A 
ATOM     21  C   UNL     1      34.032   6.434  13.951  0.00  0.00    +0.000 A 
ATOM     22  C   UNL     1      35.068   5.635  13.524  0.00  0.00    +0.000 A 
ATOM     23  O   UNL     1      35.414   6.070  12.347  0.00  0.00    +0.000 OA
BRANCH  19  24
ATOM     24  C   UNL     1      34.884   7.769  10.667  0.00  0.00    +0.000 C 
BRANCH  24  25
ATOM     25  O   UNL     1      33.867   7.462   9.745  0.00  0.00    +0.000 OA
BRANCH  25  29
ATOM     26  C   UNL     1      34.616   5.387   6.214  0.00  0.00    +0.000 A 
ATOM     27  C   UNL     1      33.688   6.414   6.233  0.00  0.00    +0.000 A 
ATOM     28  C   UNL     1      33.476   7.070   7.427  0.00  0.00    +0.000 A 
ATOM     29  C   UNL     1      34.137   6.756   8.593  0.00  0.00    +0.000 A 
ATOM     30  C   UNL     1      35.054   5.729   8.534  0.00  0.00    +0.000 A 
ATOM     31  C   UNL     1      35.294   5.048   7.361  0.00  0.00    +0.000 A 
BRANCH  26  33
ATOM     32  C   UNL     1      35.284   3.250   5.155  0.00  0.00    +0.000 C 
ATOM     33  C   UNL     1      34.830   4.692   4.917  0.00  0.00    +0.000 C 
ENDBRANCH  26  33
ENDBRANCH  25  29
ENDBRANCH  24  25
ENDBRANCH  19  24
ENDBRANCH   1  22
TORSDOF 7
ENDMDL
MODEL 5
REMARK VINA RESULT:      -7.8      2.818     12.294
REMARK  Name = 
REMARK  7 active torsions:
REMARK  status: ('A' for Active; 'I' for Inactive)
REMARK    1  A    between atoms: C_2  and  C_3
REMARK    2  A    between atoms: C_6  and  O_7
REMARK    3  A    between atoms: O_7  and  C_8
REMARK    4  A    between atoms: C_8  and  C_9
REMARK    5  A    between atoms: C_12  and  C_13
REMARK    6  A    between atoms: N_15  and  C_16
REMARK    7  A    between atoms: C_28  and  O_29
REMARK                            x       y       z     vdW  Elec       q    Type
REMARK                         _______ _______ _______ _____ _____    ______ ____
ROOT
ATOM      1  C   UNL     1      38.968   5.198  17.182  0.00  0.00    +0.000 C 
ATOM      2  O   UNL     1      39.731   5.921  16.493  0.00  0.00    +0.000 OA
ATOM      3  N   UNL     1      38.886   5.440  18.578  0.00  0.00    +0.000 NA
ENDROOT
BRANCH   3   4
ATOM      4  C   UNL     1      39.641   6.466  19.187  0.00  0.00    +0.000 A 
ATOM      5  C   UNL     1      40.930   6.205  19.625  0.00  0.00    +0.000 A 
ATOM      6  C   UNL     1      41.720   7.163  20.227  0.00  0.00    +0.000 A 
ATOM      7  O   UNL     1      42.951   7.173  20.724  0.00  0.00    +0.000 OA
ATOM      8  C   UNL     1      43.251   8.342  21.193  0.00  0.00    +0.000 A 
ATOM      9  C   UNL     1      44.394   8.827  21.795  0.00  0.00    +0.000 A 
ATOM     10  C   UNL     1      44.429  10.154  22.205  0.00  0.00    +0.000 A 
ATOM     11  C   UNL     1      43.337  10.992  22.018  0.00  0.00    +0.000 A 
ATOM     12  C   UNL     1      42.209  10.478  21.412  0.00  0.00    +0.000 A 
ATOM     13  C   UNL     1      42.155   9.172  21.002  0.00  0.00    +0.000 A 
ATOM     14  C   UNL     1      41.174   8.422  20.385  0.00  0.00    +0.000 A 
ATOM     15  C   UNL     1      39.879   8.685  19.944  0.00  0.00    +0.000 A 
ATOM     16  C   UNL     1      39.106   7.720  19.347  0.00  0.00    +0.000 A 
BRANCH  16  17
ATOM     17  O   UNL     1      37.812   7.936  18.893  0.00  0.00    +0.000 OA
ATOM     18  C   UNL     1      36.881   8.714  19.621  0.00  0.00    +0.000 C 
ENDBRANCH  16  17
ENDBRANCH   3   4
BRANCH   1  22
ATOM     19  C   UNL     1      36.586   2.765  16.132  0.00  0.00    +0.000 A 
ATOM     20  C   UNL     1      37.526   2.536  15.165  0.00  0.00    +0.000 A 
ATOM     21  C   UNL     1      38.555   3.417  15.422  0.00  0.00    +0.000 A 
ATOM     22  C   UNL     1      38.196   4.144  16.534  0.00  0.00    +0.000 A 
ATOM     23  O   UNL     1      37.025   3.708  16.901  0.00  0.00    +0.000 OA
BRANCH  19  24
ATOM     24  C   UNL     1      35.280   2.093  16.324  0.00  0.00    +0.000 C 
BRANCH  24  25
ATOM     25  O   UNL     1      35.360   1.002  17.209  0.00  0.00    +0.000 OA
BRANCH  25  29
ATOM     26  C   UNL     1      35.001  -2.935  15.902  0.00  0.00    +0.000 A 
ATOM     27  C   UNL     1      34.227  -2.479  16.955  0.00  0.00    +0.000 A 
ATOM     28  C   UNL     1      34.384  -1.167  17.350  0.00  0.00    +0.000 A 
ATOM     29  C   UNL     1      35.266  -0.294  16.753  0.00  0.00    +0.000 A 
ATOM     30  C   UNL     1      36.017  -0.785  15.708  0.00  0.00    +0.000 A 
ATOM     31  C   UNL     1      35.891  -2.089  15.283  0.00  0.00    +0.000 A 
BRANCH  26  33
ATOM     32  C   UNL     1      33.680  -4.467  14.474  0.00  0.00    +0.000 C 
ATOM     33  C   UNL     1      34.817  -4.352  15.491  0.00  0.00    +0.000 C 
ENDBRANCH  26  33
ENDBRANCH  25  29
ENDBRANCH  24  25
ENDBRANCH  19  24
ENDBRANCH   1  22
TORSDOF 7
ENDMDL
MODEL 6
REMARK VINA RESULT:      -7.7      7.510     10.209
REMARK  Name = 
REMARK  7 active torsions:
REMARK  status: ('A' for Active; 'I' for Inactive)
REMARK    1  A    between atoms: C_2  and  C_3
REMARK    2  A    between atoms: C_6  and  O_7
REMARK    3  A    between atoms: O_7  and  C_8
REMARK    4  A    between atoms: C_8  and  C_9
REMARK    5  A    between atoms: C_12  and  C_13
REMARK    6  A    between atoms: N_15  and  C_16
REMARK    7  A    between atoms: C_28  and  O_29
REMARK                            x       y       z     vdW  Elec       q    Type
REMARK                         _______ _______ _______ _____ _____    ______ ____
ROOT
ATOM      1  C   UNL     1      34.971   8.666  13.139  0.00  0.00    +0.000 C 
ATOM      2  O   UNL     1      35.391   9.475  12.273  0.00  0.00    +0.000 OA
ATOM      3  N   UNL     1      34.640   7.348  12.729  0.00  0.00    +0.000 NA
ENDROOT
BRANCH   3   4
ATOM      4  C   UNL     1      34.776   6.947  11.382  0.00  0.00    +0.000 A 
ATOM      5  C   UNL     1      33.831   7.341  10.447  0.00  0.00    +0.000 A 
ATOM      6  C   UNL     1      33.906   6.983   9.117  0.00  0.00    +0.000 A 
ATOM      7  O   UNL     1      33.155   7.221   8.049  0.00  0.00    +0.000 OA
ATOM      8  C   UNL     1      33.654   6.653   6.997  0.00  0.00    +0.000 A 
ATOM      9  C   UNL     1      33.235   6.619   5.682  0.00  0.00    +0.000 A 
ATOM     10  C   UNL     1      33.989   5.914   4.752  0.00  0.00    +0.000 A 
ATOM     11  C   UNL     1      35.150   5.249   5.126  0.00  0.00    +0.000 A 
ATOM     12  C   UNL     1      35.543   5.303   6.448  0.00  0.00    +0.000 A 
ATOM     13  C   UNL     1      34.813   5.992   7.379  0.00  0.00    +0.000 A 
ATOM     14  C   UNL     1      34.977   6.200   8.734  0.00  0.00    +0.000 A 
ATOM     15  C   UNL     1      35.927   5.804   9.673  0.00  0.00    +0.000 A 
ATOM     16  C   UNL     1      35.838   6.168  10.994  0.00  0.00    +0.000 A 
BRANCH  16  17
ATOM     17  O   UNL     1      36.759   5.797  11.963  0.00  0.00    +0.000 OA
ATOM     18  C   UNL     1      36.900   4.456  12.391  0.00  0.00    +0.000 C 
ENDBRANCH  16  17
ENDBRANCH   3   4
BRANCH   1  22
ATOM     19  C   UNL     1      35.387   9.678  16.530  0.00  0.00    +0.000 A 
ATOM     20  C   UNL     1      34.023   9.755  16.478  0.00  0.00    +0.000 A 
ATOM     21  C   UNL     1      33.672   9.386  15.197  0.00  0.00    +0.000 A 
ATOM     22  C   UNL     1      34.839   9.100  14.526  0.00  0.00    +0.000 A 
ATOM     23  O   UNL     1      35.811   9.292  15.370  0.00  0.00    +0.000 OA
BRANCH  19  24
ATOM     24  C   UNL     1      36.284   9.967  17.674  0.00  0.00    +0.000 C 
BRANCH  24  25
ATOM     25  O   UNL     1      36.239   8.966  18.661  0.00  0.00    +0.000 OA
BRANCH  25  29
ATOM     26  C   UNL     1      39.701   6.971  19.833  0.00  0.00    +0.000 A 
ATOM     27  C   UNL     1      39.099   6.668  18.623  0.00  0.00    +0.000 A 
ATOM     28  C   UNL     1      37.954   7.356  18.282  0.00  0.00    +0.000 A 
ATOM     29  C   UNL     1      37.384   8.324  19.078  0.00  0.00    +0.000 A 
ATOM     30  C   UNL     1      38.012   8.599  20.273  0.00  0.00    +0.000 A 
ATOM     31  C   UNL     1      39.158   7.933  20.651  0.00  0.00    +0.000 A 
BRANCH  26  33
ATOM     32  C   UNL     1      42.077   6.601  19.243  0.00  0.00    +0.000 C 
ATOM     33  C   UNL     1      40.934   6.218  20.184  0.00  0.00    +0.000 C 
ENDBRANCH  26  33
ENDBRANCH  25  29
ENDBRANCH  24  25
ENDBRANCH  19  24
ENDBRANCH   1  22
TORSDOF 7
ENDMDL
MODEL 7
REMARK VINA RESULT:      -7.7      1.836      2.604
REMARK  Name = 
REMARK  7 active torsions:
REMARK  status: ('A' for Active; 'I' for Inactive)
REMARK    1  A    between atoms: C_2  and  C_3
REMARK    2  A    between atoms: C_6  and  O_7
REMARK    3  A    between atoms: O_7  and  C_8
REMARK    4  A    between atoms: C_8  and  C_9
REMARK    5  A    between atoms: C_12  and  C_13
REMARK    6  A    between atoms: N_15  and  C_16
REMARK    7  A    between atoms: C_28  and  O_29
REMARK                            x       y       z     vdW  Elec       q    Type
REMARK                         _______ _______ _______ _____ _____    ______ ____
ROOT
ATOM      1  C   UNL     1      38.180   2.141  14.231  0.00  0.00    +0.000 C 
ATOM      2  O   UNL     1      37.275   2.010  13.368  0.00  0.00    +0.000 OA
ATOM      3  N   UNL     1      38.237   1.206  15.298  0.00  0.00    +0.000 NA
ENDROOT
BRANCH   3   4
ATOM      4  C   UNL     1      37.304   0.151  15.395  0.00  0.00    +0.000 A 
ATOM      5  C   UNL     1      37.559  -1.055  14.761  0.00  0.00    +0.000 A 
ATOM      6  C   UNL     1      36.689  -2.124  14.818  0.00  0.00    +0.000 A 
ATOM      7  O   UNL     1      36.695  -3.353  14.315  0.00  0.00    +0.000 OA
ATOM      8  C   UNL     1      35.626  -3.998  14.656  0.00  0.00    +0.000 A 
ATOM      9  C   UNL     1      35.194  -5.279  14.379  0.00  0.00    +0.000 A 
ATOM     10  C   UNL     1      33.976  -5.707  14.892  0.00  0.00    +0.000 A 
ATOM     11  C   UNL     1      33.193  -4.866  15.674  0.00  0.00    +0.000 A 
ATOM     12  C   UNL     1      33.651  -3.592  15.934  0.00  0.00    +0.000 A 
ATOM     13  C   UNL     1      34.849  -3.152  15.436  0.00  0.00    +0.000 A 
ATOM     14  C   UNL     1      35.526  -1.954  15.542  0.00  0.00    +0.000 A 
ATOM     15  C   UNL     1      35.269  -0.742  16.179  0.00  0.00    +0.000 A 
ATOM     16  C   UNL     1      36.145   0.314  16.113  0.00  0.00    +0.000 A 
BRANCH  16  17
ATOM     17  O   UNL     1      35.931   1.537  16.731  0.00  0.00    +0.000 OA
ATOM     18  C   UNL     1      34.875   2.398  16.347  0.00  0.00    +0.000 C 
ENDBRANCH  16  17
ENDBRANCH   3   4
BRANCH   1  22
ATOM     19  C   UNL     1      40.293   4.982  14.633  0.00  0.00    +0.000 A 
ATOM     20  C   UNL     1      40.668   4.648  13.361  0.00  0.00    +0.000 A 
ATOM     21  C   UNL     1      39.928   3.533  13.028  0.00  0.00    +0.000 A 
ATOM     22  C   UNL     1      39.134   3.238  14.113  0.00  0.00    +0.000 A 
ATOM     23  O   UNL     1      39.399   4.131  15.023  0.00  0.00    +0.000 OA
BRANCH  19  24
ATOM     24  C   UNL     1      40.779   6.101  15.473  0.00  0.00    +0.000 C 
BRANCH  24  25
ATOM     25  O   UNL     1      40.106   6.182  16.705  0.00  0.00    +0.000 OA
BRANCH  25  29
ATOM     26  C   UNL     1      42.289   6.484  20.238  0.00  0.00    +0.000 A 
ATOM     27  C   UNL     1      42.926   6.599  19.014  0.00  0.00    +0.000 A 
ATOM     28  C   UNL     1      42.159   6.491  17.874  0.00  0.00    +0.000 A 
ATOM     29  C   UNL     1      40.799   6.277  17.892  0.00  0.00    +0.000 A 
ATOM     30  C   UNL     1      40.200   6.169  19.128  0.00  0.00    +0.000 A 
ATOM     31  C   UNL     1      40.931   6.271  20.291  0.00  0.00    +0.000 A 
BRANCH  26  33
ATOM     32  C   UNL     1      44.530   6.039  21.191  0.00  0.00    +0.000 C 
ATOM     33  C   UNL     1      43.133   6.603  21.456  0.00  0.00    +0.000 C 
ENDBRANCH  26  33
ENDBRANCH  25  29
ENDBRANCH  24  25
ENDBRANCH  19  24
ENDBRANCH   1  22
TORSDOF 7
ENDMDL
MODEL 8
REMARK VINA RESULT:      -7.7      6.787     11.258
REMARK  Name = 
REMARK  7 active torsions:
REMARK  status: ('A' for Active; 'I' for Inactive)
REMARK    1  A    between atoms: C_2  and  C_3
REMARK    2  A    between atoms: C_6  and  O_7
REMARK    3  A    between atoms: O_7  and  C_8
REMARK    4  A    between atoms: C_8  and  C_9
REMARK    5  A    between atoms: C_12  and  C_13
REMARK    6  A    between atoms: N_15  and  C_16
REMARK    7  A    between atoms: C_28  and  O_29
REMARK                            x       y       z     vdW  Elec       q    Type
REMARK                         _______ _______ _______ _____ _____    ______ ____
ROOT
ATOM      1  C   UNL     1      43.247   6.582  21.707  0.00  0.00    +0.000 C 
ATOM      2  O   UNL     1      43.395   5.377  21.378  0.00  0.00    +0.000 OA
ATOM      3  N   UNL     1      42.434   7.410  20.890  0.00  0.00    +0.000 NA
ENDROOT
BRANCH   3   4
ATOM      4  C   UNL     1      41.803   6.903  19.734  0.00  0.00    +0.000 A 
ATOM      5  C   UNL     1      40.593   6.236  19.847  0.00  0.00    +0.000 A 
ATOM      6  C   UNL     1      39.925   5.717  18.756  0.00  0.00    +0.000 A 
ATOM      7  O   UNL     1      38.786   5.054  18.595  0.00  0.00    +0.000 OA
ATOM      8  C   UNL     1      38.585   4.777  17.347  0.00  0.00    +0.000 A 
ATOM      9  C   UNL     1      37.559   4.115  16.703  0.00  0.00    +0.000 A 
ATOM     10  C   UNL     1      37.613   3.965  15.323  0.00  0.00    +0.000 A 
ATOM     11  C   UNL     1      38.680   4.469  14.589  0.00  0.00    +0.000 A 
ATOM     12  C   UNL     1      39.689   5.126  15.260  0.00  0.00    +0.000 A 
ATOM     13  C   UNL     1      39.654   5.284  16.620  0.00  0.00    +0.000 A 
ATOM     14  C   UNL     1      40.512   5.885  17.518  0.00  0.00    +0.000 A 
ATOM     15  C   UNL     1      41.728   6.555  17.405  0.00  0.00    +0.000 A 
ATOM     16  C   UNL     1      42.381   7.066  18.500  0.00  0.00    +0.000 A 
BRANCH  16  17
ATOM     17  O   UNL     1      43.592   7.740  18.434  0.00  0.00    +0.000 OA
ATOM     18  C   UNL     1      44.826   7.058  18.306  0.00  0.00    +0.000 C 
ENDBRANCH  16  17
ENDBRANCH   3   4
BRANCH   1  22
ATOM     19  C   UNL     1      44.618   7.185  24.940  0.00  0.00    +0.000 A 
ATOM     20  C   UNL     1      45.049   8.334  24.337  0.00  0.00    +0.000 A 
ATOM     21  C   UNL     1      44.596   8.272  23.036  0.00  0.00    +0.000 A 
ATOM     22  C   UNL     1      43.908   7.087  22.905  0.00  0.00    +0.000 A 
ATOM     23  O   UNL     1      43.960   6.495  24.064  0.00  0.00    +0.000 OA
BRANCH  19  24
ATOM     24  C   UNL     1      44.830   6.743  26.338  0.00  0.00    +0.000 C 
BRANCH  24  25
ATOM     25  O   UNL     1      44.045   7.466  27.256  0.00  0.00    +0.000 OA
BRANCH  25  29
ATOM     26  C   UNL     1      40.629   5.875  29.028  0.00  0.00    +0.000 A 
ATOM     27  C   UNL     1      41.064   7.144  29.370  0.00  0.00    +0.000 A 
ATOM     28  C   UNL     1      42.201   7.625  28.756  0.00  0.00    +0.000 A 
ATOM     29  C   UNL     1      42.920   6.911  27.824  0.00  0.00    +0.000 A 
ATOM     30  C   UNL     1      42.456   5.653  27.508  0.00  0.00    +0.000 A 
ATOM     31  C   UNL     1      41.324   5.135  28.100  0.00  0.00    +0.000 A 
BRANCH  26  33
ATOM     32  C   UNL     1      38.580   6.544  30.246  0.00  0.00    +0.000 C 
ATOM     33  C   UNL     1      39.402   5.375  29.701  0.00  0.00    +0.000 C 
ENDBRANCH  26  33
ENDBRANCH  25  29
ENDBRANCH  24  25
ENDBRANCH  19  24
ENDBRANCH   1  22
TORSDOF 7
ENDMDL
MODEL 9
REMARK VINA RESULT:      -7.6      4.896      6.664
REMARK  Name = 
REMARK  7 active torsions:
REMARK  status: ('A' for Active; 'I' for Inactive)
REMARK    1  A    between atoms: C_2  and  C_3
REMARK    2  A    between atoms: C_6  and  O_7
REMARK    3  A    between atoms: O_7  and  C_8
REMARK    4  A    between atoms: C_8  and  C_9
REMARK    5  A    between atoms: C_12  and  C_13
REMARK    6  A    between atoms: N_15  and  C_16
REMARK    7  A    between atoms: C_28  and  O_29
REMARK                            x       y       z     vdW  Elec       q    Type
REMARK                         _______ _______ _______ _____ _____    ______ ____
ROOT
ATOM      1  C   UNL     1      36.455   3.341  14.216  0.00  0.00    +0.000 C 
ATOM      2  O   UNL     1      37.602   3.399  14.728  0.00  0.00    +0.000 OA
ATOM      3  N   UNL     1      35.739   2.119  14.300  0.00  0.00    +0.000 NA
ENDROOT
BRANCH   3   4
ATOM      4  C   UNL     1      36.293   0.989  14.940  0.00  0.00    +0.000 A 
ATOM      5  C   UNL     1      36.283   0.907  16.324  0.00  0.00    +0.000 A 
ATOM      6  C   UNL     1      36.808  -0.169  17.009  0.00  0.00    +0.000 A 
ATOM      7  O   UNL     1      36.922  -0.484  18.294  0.00  0.00    +0.000 OA
ATOM      8  C   UNL     1      37.504  -1.631  18.438  0.00  0.00    +0.000 A 
ATOM      9  C   UNL     1      37.836  -2.362  19.562  0.00  0.00    +0.000 A 
ATOM     10  C   UNL     1      38.469  -3.588  19.406  0.00  0.00    +0.000 A 
ATOM     11  C   UNL     1      38.771  -4.085  18.144  0.00  0.00    +0.000 A 
ATOM     12  C   UNL     1      38.427  -3.332  17.041  0.00  0.00    +0.000 A 
ATOM     13  C   UNL     1      37.802  -2.120  17.174  0.00  0.00    +0.000 A 
ATOM     14  C   UNL     1      37.359  -1.188  16.258  0.00  0.00    +0.000 A 
ATOM     15  C   UNL     1      37.369  -1.106  14.867  0.00  0.00    +0.000 A 
ATOM     16  C   UNL     1      36.842  -0.028  14.199  0.00  0.00    +0.000 A 
BRANCH  16  17
ATOM     17  O   UNL     1      36.830   0.096  12.817  0.00  0.00    +0.000 OA
ATOM     18  C   UNL     1      38.012   0.326  12.073  0.00  0.00    +0.000 C 
ENDBRANCH  16  17
ENDBRANCH   3   4
BRANCH   1  22
ATOM     19  C   UNL     1      34.653   6.244  13.204  0.00  0.00    +0.000 A 
ATOM     20  C   UNL     1      35.496   6.163  12.130  0.00  0.00    +0.000 A 
ATOM     21  C   UNL     1      36.293   5.061  12.357  0.00  0.00    +0.000 A 
ATOM     22  C   UNL     1      35.900   4.519  13.559  0.00  0.00    +0.000 A 
ATOM     23  O   UNL     1      34.930   5.265  14.004  0.00  0.00    +0.000 OA
BRANCH  19  24
ATOM     24  C   UNL     1      33.592   7.243  13.469  0.00  0.00    +0.000 C 
BRANCH  24  25
ATOM     25  O   UNL     1      33.448   7.525  14.840  0.00  0.00    +0.000 OA
BRANCH  25  29
ATOM     26  C   UNL     1      33.902  11.431  16.205  0.00  0.00    +0.000 A 
ATOM     27  C   UNL     1      34.168  11.122  14.883  0.00  0.00    +0.000 A 
ATOM     28  C   UNL     1      34.003   9.813  14.480  0.00  0.00    +0.000 A 
ATOM     29  C   UNL     1      33.589   8.807  15.323  0.00  0.00    +0.000 A 
ATOM     30  C   UNL     1      33.333   9.154  16.631  0.00  0.00    +0.000 A 
ATOM     31  C   UNL     1      33.486  10.450  17.074  0.00  0.00    +0.000 A 
BRANCH  26  33
ATOM     32  C   UNL     1      33.558  13.791  15.539  0.00  0.00    +0.000 C 
ATOM     33  C   UNL     1      34.087  12.848  16.620  0.00  0.00    +0.000 C 
ENDBRANCH  26  33
ENDBRANCH  25  29
ENDBRANCH  24  25
ENDBRANCH  19  24
ENDBRANCH   1  22
TORSDOF 7
ENDMDL
MODEL 10
REMARK VINA RESULT:      -7.6      4.269     10.241
REMARK  Name = 
REMARK  7 active torsions:
REMARK  status: ('A' for Active; 'I' for Inactive)
REMARK    1  A    between atoms: C_2  and  C_3
REMARK    2  A    between atoms: C_6  and  O_7
REMARK    3  A    between atoms: O_7  and  C_8
REMARK    4  A    between atoms: C_8  and  C_9
REMARK    5  A    between atoms: C_12  and  C_13
REMARK    6  A    between atoms: N_15  and  C_16
REMARK    7  A    between atoms: C_28  and  O_29
REMARK                            x       y       z     vdW  Elec       q    Type
REMARK                         _______ _______ _______ _____ _____    ______ ____
ROOT
ATOM      1  C   UNL     1      38.765   1.020  14.560  0.00  0.00    +0.000 C 
ATOM      2  O   UNL     1      39.304   2.043  15.054  0.00  0.00    +0.000 OA
ATOM      3  N   UNL     1      37.651   1.194  13.698  0.00  0.00    +0.000 NA
ENDROOT
BRANCH   3   4
ATOM      4  C   UNL     1      37.153   2.480  13.397  0.00  0.00    +0.000 A 
ATOM      5  C   UNL     1      36.163   3.038  14.190  0.00  0.00    +0.000 A 
ATOM      6  C   UNL     1      35.635   4.290  13.950  0.00  0.00    +0.000 A 
ATOM      7  O   UNL     1      34.706   5.034  14.539  0.00  0.00    +0.000 OA
ATOM      8  C   UNL     1      34.562   6.165  13.925  0.00  0.00    +0.000 A 
ATOM      9  C   UNL     1      33.734   7.244  14.163  0.00  0.00    +0.000 A 
ATOM     10  C   UNL     1      33.801   8.345  13.319  0.00  0.00    +0.000 A 
ATOM     11  C   UNL     1      34.685   8.374  12.246  0.00  0.00    +0.000 A 
ATOM     12  C   UNL     1      35.499   7.281  12.035  0.00  0.00    +0.000 A 
ATOM     13  C   UNL     1      35.447   6.186  12.856  0.00  0.00    +0.000 A 
ATOM     14  C   UNL     1      36.135   4.989  12.869  0.00  0.00    +0.000 A 
ATOM     15  C   UNL     1      37.131   4.428  12.072  0.00  0.00    +0.000 A 
ATOM     16  C   UNL     1      37.646   3.181  12.324  0.00  0.00    +0.000 A 
BRANCH  16  17
ATOM     17  O   UNL     1      38.637   2.583  11.558  0.00  0.00    +0.000 OA
ATOM     18  C   UNL     1      39.809   3.277  11.172  0.00  0.00    +0.000 C 
ENDBRANCH  16  17
ENDBRANCH   3   4
BRANCH   1  22
ATOM     19  C   UNL     1      39.547  -2.193  15.886  0.00  0.00    +0.000 A 
ATOM     20  C   UNL     1      40.474  -2.175  14.881  0.00  0.00    +0.000 A 
ATOM     21  C   UNL     1      40.313  -0.966  14.239  0.00  0.00    +0.000 A 
ATOM     22  C   UNL     1      39.294  -0.300  14.883  0.00  0.00    +0.000 A 
ATOM     23  O   UNL     1      38.888  -1.080  15.843  0.00  0.00    +0.000 OA
BRANCH  19  24
ATOM     24  C   UNL     1      39.288  -3.260  16.882  0.00  0.00    +0.000 C 
BRANCH  24  25
ATOM     25  O   UNL     1      38.042  -3.111  17.518  0.00  0.00    +0.000 OA
BRANCH  25  29
ATOM     26  C   UNL     1      34.529  -4.071  15.501  0.00  0.00    +0.000 A 
ATOM     27  C   UNL     1      35.595  -4.953  15.499  0.00  0.00    +0.000 A 
ATOM     28  C   UNL     1      36.737  -4.589  16.181  0.00  0.00    +0.000 A 
ATOM     29  C   UNL     1      36.867  -3.398  16.861  0.00  0.00    +0.000 A 
ATOM     30  C   UNL     1      35.784  -2.547  16.841  0.00  0.00    +0.000 A 
ATOM     31  C   UNL     1      34.626  -2.874  16.171  0.00  0.00    +0.000 A 
BRANCH  26  33
ATOM     32  C   UNL     1      32.088  -4.445  15.682  0.00  0.00    +0.000 C 
ATOM     33  C   UNL     1      33.307  -4.482  14.759  0.00  0.00    +0.000 C 
ENDBRANCH  26  33
ENDBRANCH  25  29
ENDBRANCH  24  25
ENDBRANCH  19  24
ENDBRANCH   1  22
TORSDOF 7
ENDMDL
