MODEL 1
REMARK VINA RESULT:      -8.2      0.000      0.000
REMARK  Name = 
REMARK  8 active torsions:
REMARK  status: ('A' for Active; 'I' for Inactive)
REMARK    1  A    between atoms: C_2  and  N_3
REMARK    2  A    between atoms: N_3  and  C_4
REMARK    3  A    between atoms: N_3  and  C_31
REMARK    4  A    between atoms: C_7  and  N_8
REMARK    5  A    between atoms: C_9  and  C_11
REMARK    6  A    between atoms: C_11  and  O_12
REMARK    7  A    between atoms: O_12  and  C_13
REMARK    8  A    between atoms: C_13  and  C_15
REMARK                            x       y       z     vdW  Elec       q    Type
REMARK                         _______ _______ _______ _____ _____    ______ ____
ROOT
ATOM      1  O   UNL     1      37.819   2.070  14.440  0.00  0.00    +0.000 OA
ENDROOT
BRANCH   1   2
ATOM      2  C   UNL     1      37.268   0.808  14.390  0.00  0.00    +0.000 C 
ATOM      3  O   UNL     1      36.409   0.537  13.536  0.00  0.00    +0.000 OA
BRANCH   2   4
ATOM      4  C   UNL     1      37.685  -0.237  15.344  0.00  0.00    +0.000 A 
ATOM      5  C   UNL     1      37.017  -0.368  16.548  0.00  0.00    +0.000 A 
ATOM      6  C   UNL     1      35.953   0.460  16.901  0.00  0.00    +0.000 A 
ATOM      7  C   UNL     1      35.277   0.343  18.095  0.00  0.00    +0.000 A 
ATOM      8  C   UNL     1      35.646  -0.620  18.991  0.00  0.00    +0.000 A 
ATOM      9  C   UNL     1      36.710  -1.468  18.668  0.00  0.00    +0.000 A 
ATOM     10  C   UNL     1      37.375  -1.335  17.468  0.00  0.00    +0.000 A 
ATOM     11  C   UNL     1      38.414  -2.192  17.195  0.00  0.00    +0.000 A 
ATOM     12  C   UNL     1      39.105  -2.089  16.000  0.00  0.00    +0.000 A 
ATOM     13  C   UNL     1      40.153  -2.957  15.729  0.00  0.00    +0.000 A 
ATOM     14  C   UNL     1      40.807  -2.812  14.523  0.00  0.00    +0.000 A 
ATOM     15  C   UNL     1      40.441  -1.846  13.620  0.00  0.00    +0.000 A 
ATOM     16  C   UNL     1      39.405  -0.994  13.896  0.00  0.00    +0.000 A 
ATOM     17  C   UNL     1      38.719  -1.103  15.095  0.00  0.00    +0.000 A 
ENDBRANCH   2   4
ENDBRANCH   1   2
BRANCH   1  18
ATOM     18  C   UNL     1      37.025   3.232  14.509  0.00  0.00    +0.000 C 
BRANCH  18  20
ATOM     19  N   UNL     1      38.676   3.940  16.285  0.00  0.00    +0.000 NA
ATOM     20  C   UNL     1      37.634   4.274  15.380  0.00  0.00    +0.000 C 
ATOM     21  O   UNL     1      37.205   5.457  15.296  0.00  0.00    +0.000 OA
BRANCH  19  25
ATOM     22  C   UNL     1      40.447   6.849  18.742  0.00  0.00    +0.000 A 
ATOM     23  C   UNL     1      39.419   6.062  19.221  0.00  0.00    +0.000 A 
ATOM     24  C   UNL     1      38.823   5.091  18.411  0.00  0.00    +0.000 A 
ATOM     25  C   UNL     1      39.267   4.916  17.119  0.00  0.00    +0.000 A 
ATOM     26  C   UNL     1      40.287   5.689  16.628  0.00  0.00    +0.000 A 
ATOM     27  C   UNL     1      40.866   6.649  17.453  0.00  0.00    +0.000 A 
BRANCH  22  28
ATOM     28  N   UNL     1      41.057   7.827  19.548  0.00  0.00    +0.000 N 
BRANCH  28  29
ATOM     29  C   UNL     1      40.353   8.963  20.073  0.00  0.00    +0.000 C 
ATOM     30  C   UNL     1      41.313   9.902  20.724  0.00  0.00    +0.000 C 
ATOM     31  C   UNL     1      39.761   9.696  18.860  0.00  0.00    +0.000 C 
ENDBRANCH  28  29
BRANCH  28  33
ATOM     32  C   UNL     1      42.610   6.456  20.742  0.00  0.00    +0.000 C 
ATOM     33  C   UNL     1      42.464   7.684  19.869  0.00  0.00    +0.000 C 
ENDBRANCH  28  33
ENDBRANCH  22  28
ENDBRANCH  19  25
ENDBRANCH  18  20
ENDBRANCH   1  18
TORSDOF 8
ENDMDL
MODEL 2
REMARK VINA RESULT:      -8.2      0.132      3.223
REMARK  Name = 
REMARK  8 active torsions:
REMARK  status: ('A' for Active; 'I' for Inactive)
REMARK    1  A    between atoms: C_2  and  N_3
REMARK    2  A    between atoms: N_3  and  C_4
REMARK    3  A    between atoms: N_3  and  C_31
REMARK    4  A    between atoms: C_7  and  N_8
REMARK    5  A    between atoms: C_9  and  C_11
REMARK    6  A    between atoms: C_11  and  O_12
REMARK    7  A    between atoms: O_12  and  C_13
REMARK    8  A    between atoms: C_13  and  C_15
REMARK                            x       y       z     vdW  Elec       q    Type
REMARK                         _______ _______ _______ _____ _____    ______ ____
ROOT
ATOM      1  O   UNL     1      37.851   2.004  14.351  0.00  0.00    +0.000 OA
ENDROOT
BRANCH   1   2
ATOM      2  C   UNL     1      37.273   0.753  14.348  0.00  0.00    +0.000 C 
ATOM      3  O   UNL     1      36.416   0.464  13.498  0.00  0.00    +0.000 OA
BRANCH   2   4
ATOM      4  C   UNL     1      37.660  -0.260  15.349  0.00  0.00    +0.000 A 
ATOM      5  C   UNL     1      38.714  -1.115  15.083  0.00  0.00    +0.000 A 
ATOM      6  C   UNL     1      39.433  -1.059  13.891  0.00  0.00    +0.000 A 
ATOM      7  C   UNL     1      40.485  -1.903  13.611  0.00  0.00    +0.000 A 
ATOM      8  C   UNL     1      40.861  -2.844  14.526  0.00  0.00    +0.000 A 
ATOM      9  C   UNL     1      40.160  -2.926  15.734  0.00  0.00    +0.000 A 
ATOM     10  C   UNL     1      39.110  -2.074  15.996  0.00  0.00    +0.000 A 
ATOM     11  C   UNL     1      38.452  -2.193  17.197  0.00  0.00    +0.000 A 
ATOM     12  C   UNL     1      37.392  -1.354  17.495  0.00  0.00    +0.000 A 
ATOM     13  C   UNL     1      36.732  -1.478  18.710  0.00  0.00    +0.000 A 
ATOM     14  C   UNL     1      35.684  -0.616  18.957  0.00  0.00    +0.000 A 
ATOM     15  C   UNL     1      35.302   0.332  18.041  0.00  0.00    +0.000 A 
ATOM     16  C   UNL     1      35.960   0.447  16.845  0.00  0.00    +0.000 A 
ATOM     17  C   UNL     1      37.019  -0.398  16.553  0.00  0.00    +0.000 A 
ENDBRANCH   2   4
ENDBRANCH   1   2
BRANCH   1  18
ATOM     18  C   UNL     1      37.081   3.184  14.345  0.00  0.00    +0.000 C 
BRANCH  18  20
ATOM     19  N   UNL     1      38.701   3.916  16.140  0.00  0.00    +0.000 NA
ATOM     20  C   UNL     1      37.662   4.234  15.226  0.00  0.00    +0.000 C 
ATOM     21  O   UNL     1      37.212   5.409  15.142  0.00  0.00    +0.000 OA
BRANCH  19  25
ATOM     22  C   UNL     1      40.365   6.826  18.669  0.00  0.00    +0.000 A 
ATOM     23  C   UNL     1      40.794   6.708  17.362  0.00  0.00    +0.000 A 
ATOM     24  C   UNL     1      40.247   5.743  16.513  0.00  0.00    +0.000 A 
ATOM     25  C   UNL     1      39.266   4.899  16.984  0.00  0.00    +0.000 A 
ATOM     26  C   UNL     1      38.827   5.003  18.278  0.00  0.00    +0.000 A 
ATOM     27  C   UNL     1      39.387   5.973  19.106  0.00  0.00    +0.000 A 
BRANCH  22  28
ATOM     28  N   UNL     1      40.906   7.796  19.532  0.00  0.00    +0.000 N 
BRANCH  28  29
ATOM     29  C   UNL     1      40.133   8.872  20.087  0.00  0.00    +0.000 C 
ATOM     30  C   UNL     1      41.036   9.861  20.746  0.00  0.00    +0.000 C 
ATOM     31  C   UNL     1      39.477   9.586  18.896  0.00  0.00    +0.000 C 
ENDBRANCH  28  29
BRANCH  28  33
ATOM     32  C   UNL     1      42.504   6.432  20.672  0.00  0.00    +0.000 C 
ATOM     33  C   UNL     1      42.310   7.709  19.883  0.00  0.00    +0.000 C 
ENDBRANCH  28  33
ENDBRANCH  22  28
ENDBRANCH  19  25
ENDBRANCH  18  20
ENDBRANCH   1  18
TORSDOF 8
ENDMDL
MODEL 3
REMARK VINA RESULT:      -8.2      1.653      3.767
REMARK  Name = 
REMARK  8 active torsions:
REMARK  status: ('A' for Active; 'I' for Inactive)
REMARK    1  A    between atoms: C_2  and  N_3
REMARK    2  A    between atoms: N_3  and  C_4
REMARK    3  A    between atoms: N_3  and  C_31
REMARK    4  A    between atoms: C_7  and  N_8
REMARK    5  A    between atoms: C_9  and  C_11
REMARK    6  A    between atoms: C_11  and  O_12
REMARK    7  A    between atoms: O_12  and  C_13
REMARK    8  A    between atoms: C_13  and  C_15
REMARK                            x       y       z     vdW  Elec       q    Type
REMARK                         _______ _______ _______ _____ _____    ______ ____
ROOT
ATOM      1  O   UNL     1      38.845   1.335  12.445  0.00  0.00    +0.000 OA
ENDROOT
BRANCH   1   2
ATOM      2  C   UNL     1      37.776   0.528  12.768  0.00  0.00    +0.000 C 
ATOM      3  O   UNL     1      37.062   0.052  11.872  0.00  0.00    +0.000 OA
BRANCH   2   4
ATOM      4  C   UNL     1      37.462   0.218  14.176  0.00  0.00    +0.000 A 
ATOM      5  C   UNL     1      38.130  -0.812  14.814  0.00  0.00    +0.000 A 
ATOM      6  C   UNL     1      39.097  -1.580  14.170  0.00  0.00    +0.000 A 
ATOM      7  C   UNL     1      39.771  -2.609  14.791  0.00  0.00    +0.000 A 
ATOM      8  C   UNL     1      39.498  -2.909  16.095  0.00  0.00    +0.000 A 
ATOM      9  C   UNL     1      38.531  -2.156  16.771  0.00  0.00    +0.000 A 
ATOM     10  C   UNL     1      37.867  -1.131  16.132  0.00  0.00    +0.000 A 
ATOM     11  C   UNL     1      36.926  -0.420  16.838  0.00  0.00    +0.000 A 
ATOM     12  C   UNL     1      36.239   0.617  16.231  0.00  0.00    +0.000 A 
ATOM     13  C   UNL     1      35.291   1.332  16.948  0.00  0.00    +0.000 A 
ATOM     14  C   UNL     1      34.636   2.357  16.295  0.00  0.00    +0.000 A 
ATOM     15  C   UNL     1      34.906   2.662  14.985  0.00  0.00    +0.000 A 
ATOM     16  C   UNL     1      35.845   1.950  14.286  0.00  0.00    +0.000 A 
ATOM     17  C   UNL     1      36.527   0.913  14.901  0.00  0.00    +0.000 A 
ENDBRANCH   2   4
ENDBRANCH   1   2
BRANCH   1  18
ATOM     18  C   UNL     1      38.675   2.652  11.974  0.00  0.00    +0.000 C 
BRANCH  18  20
ATOM     19  N   UNL     1      39.360   3.454  14.269  0.00  0.00    +0.000 NA
ATOM     20  C   UNL     1      38.596   3.637  13.086  0.00  0.00    +0.000 C 
ATOM     21  O   UNL     1      37.836   4.636  12.955  0.00  0.00    +0.000 OA
BRANCH  19  25
ATOM     22  C   UNL     1      39.196   6.221  17.424  0.00  0.00    +0.000 A 
ATOM     23  C   UNL     1      38.366   5.118  17.418  0.00  0.00    +0.000 A 
ATOM     24  C   UNL     1      38.413   4.191  16.373  0.00  0.00    +0.000 A 
ATOM     25  C   UNL     1      39.299   4.380  15.335  0.00  0.00    +0.000 A 
ATOM     26  C   UNL     1      40.130   5.469  15.326  0.00  0.00    +0.000 A 
ATOM     27  C   UNL     1      40.065   6.379  16.378  0.00  0.00    +0.000 A 
BRANCH  22  28
ATOM     28  N   UNL     1      39.160   7.159  18.472  0.00  0.00    +0.000 N 
BRANCH  28  29
ATOM     29  C   UNL     1      39.382   6.808  19.847  0.00  0.00    +0.000 C 
ATOM     30  C   UNL     1      40.838   6.585  20.087  0.00  0.00    +0.000 C 
ATOM     31  C   UNL     1      38.973   8.037  20.672  0.00  0.00    +0.000 C 
ENDBRANCH  28  29
BRANCH  28  33
ATOM     32  C   UNL     1      37.550   8.598  17.446  0.00  0.00    +0.000 C 
ATOM     33  C   UNL     1      38.888   8.546  18.153  0.00  0.00    +0.000 C 
ENDBRANCH  28  33
ENDBRANCH  22  28
ENDBRANCH  19  25
ENDBRANCH  18  20
ENDBRANCH   1  18
TORSDOF 8
ENDMDL
MODEL 4
REMARK VINA RESULT:      -8.1      1.146      1.969
REMARK  Name = 
REMARK  8 active torsions:
REMARK  status: ('A' for Active; 'I' for Inactive)
REMARK    1  A    between atoms: C_2  and  N_3
REMARK    2  A    between atoms: N_3  and  C_4
REMARK    3  A    between atoms: N_3  and  C_31
REMARK    4  A    between atoms: C_7  and  N_8
REMARK    5  A    between atoms: C_9  and  C_11
REMARK    6  A    between atoms: C_11  and  O_12
REMARK    7  A    between atoms: O_12  and  C_13
REMARK    8  A    between atoms: C_13  and  C_15
REMARK                            x       y       z     vdW  Elec       q    Type
REMARK                         _______ _______ _______ _____ _____    ______ ____
ROOT
ATOM      1  O   UNL     1      38.080   2.558  15.608  0.00  0.00    +0.000 OA
ENDROOT
BRANCH   1   2
ATOM      2  C   UNL     1      37.766   1.487  14.801  0.00  0.00    +0.000 C 
ATOM      3  O   UNL     1      37.350   1.677  13.647  0.00  0.00    +0.000 OA
BRANCH   2   4
ATOM      4  C   UNL     1      37.916   0.103  15.291  0.00  0.00    +0.000 A 
ATOM      5  C   UNL     1      36.881  -0.487  15.994  0.00  0.00    +0.000 A 
ATOM      6  C   UNL     1      35.690   0.182  16.265  0.00  0.00    +0.000 A 
ATOM      7  C   UNL     1      34.651  -0.392  16.964  0.00  0.00    +0.000 A 
ATOM      8  C   UNL     1      34.768  -1.673  17.423  0.00  0.00    +0.000 A 
ATOM      9  C   UNL     1      35.952  -2.373  17.168  0.00  0.00    +0.000 A 
ATOM     10  C   UNL     1      36.980  -1.782  16.467  0.00  0.00    +0.000 A 
ATOM     11  C   UNL     1      38.124  -2.511  16.242  0.00  0.00    +0.000 A 
ATOM     12  C   UNL     1      39.178  -1.951  15.541  0.00  0.00    +0.000 A 
ATOM     13  C   UNL     1      40.330  -2.691  15.316  0.00  0.00    +0.000 A 
ATOM     14  C   UNL     1      41.350  -2.086  14.611  0.00  0.00    +0.000 A 
ATOM     15  C   UNL     1      41.238  -0.799  14.148  0.00  0.00    +0.000 A 
ATOM     16  C   UNL     1      40.097  -0.076  14.376  0.00  0.00    +0.000 A 
ATOM     17  C   UNL     1      39.046  -0.644  15.079  0.00  0.00    +0.000 A 
ENDBRANCH   2   4
ENDBRANCH   1   2
BRANCH   1  18
ATOM     18  C   UNL     1      37.421   3.798  15.498  0.00  0.00    +0.000 C 
BRANCH  18  20
ATOM     19  N   UNL     1      39.100   4.547  17.231  0.00  0.00    +0.000 NA
ATOM     20  C   UNL     1      38.120   4.872  16.256  0.00  0.00    +0.000 C 
ATOM     21  O   UNL     1      37.824   6.074  16.012  0.00  0.00    +0.000 OA
BRANCH  19  25
ATOM     22  C   UNL     1      41.088   7.530  19.418  0.00  0.00    +0.000 A 
ATOM     23  C   UNL     1      41.589   7.101  18.206  0.00  0.00    +0.000 A 
ATOM     24  C   UNL     1      40.935   6.109  17.470  0.00  0.00    +0.000 A 
ATOM     25  C   UNL     1      39.775   5.552  17.960  0.00  0.00    +0.000 A 
ATOM     26  C   UNL     1      39.263   5.967  19.162  0.00  0.00    +0.000 A 
ATOM     27  C   UNL     1      39.932   6.957  19.877  0.00  0.00    +0.000 A 
BRANCH  22  28
ATOM     28  N   UNL     1      41.735   8.530  20.166  0.00  0.00    +0.000 N 
BRANCH  28  29
ATOM     29  C   UNL     1      43.103   8.430  20.592  0.00  0.00    +0.000 C 
ATOM     30  C   UNL     1      43.418   9.526  21.554  0.00  0.00    +0.000 C 
ATOM     31  C   UNL     1      43.215   7.108  21.365  0.00  0.00    +0.000 C 
ENDBRANCH  28  29
BRANCH  28  33
ATOM     32  C   UNL     1      40.725  10.494  19.250  0.00  0.00    +0.000 C 
ATOM     33  C   UNL     1      40.990   9.721  20.525  0.00  0.00    +0.000 C 
ENDBRANCH  28  33
ENDBRANCH  22  28
ENDBRANCH  19  25
ENDBRANCH  18  20
ENDBRANCH   1  18
TORSDOF 8
ENDMDL
MODEL 5
REMARK VINA RESULT:      -8.1      1.723      3.841
REMARK  Name = 
REMARK  8 active torsions:
REMARK  status: ('A' for Active; 'I' for Inactive)
REMARK    1  A    between atoms: C_2  and  N_3
REMARK    2  A    between atoms: N_3  and  C_4
REMARK    3  A    between atoms: N_3  and  C_31
REMARK    4  A    between atoms: C_7  and  N_8
REMARK    5  A    between atoms: C_9  and  C_11
REMARK    6  A    between atoms: C_11  and  O_12
REMARK    7  A    between atoms: O_12  and  C_13
REMARK    8  A    between atoms: C_13  and  C_15
REMARK                            x       y       z     vdW  Elec       q    Type
REMARK                         _______ _______ _______ _____ _____    ______ ____
ROOT
ATOM      1  O   UNL     1      37.231   2.867  16.422  0.00  0.00    +0.000 OA
ENDROOT
BRANCH   1   2
ATOM      2  C   UNL     1      37.049   1.993  15.372  0.00  0.00    +0.000 C 
ATOM      3  O   UNL     1      36.555   2.393  14.306  0.00  0.00    +0.000 OA
BRANCH   2   4
ATOM      4  C   UNL     1      37.434   0.574  15.496  0.00  0.00    +0.000 A 
ATOM      5  C   UNL     1      38.679   0.163  15.055  0.00  0.00    +0.000 A 
ATOM      6  C   UNL     1      39.595   1.047  14.488  0.00  0.00    +0.000 A 
ATOM      7  C   UNL     1      40.838   0.655  14.044  0.00  0.00    +0.000 A 
ATOM      8  C   UNL     1      41.215  -0.654  14.153  0.00  0.00    +0.000 A 
ATOM      9  C   UNL     1      40.318  -1.567  14.718  0.00  0.00    +0.000 A 
ATOM     10  C   UNL     1      39.079  -1.156  15.156  0.00  0.00    +0.000 A 
ATOM     11  C   UNL     1      38.233  -2.090  15.704  0.00  0.00    +0.000 A 
ATOM     12  C   UNL     1      36.980  -1.714  16.155  0.00  0.00    +0.000 A 
ATOM     13  C   UNL     1      36.130  -2.662  16.708  0.00  0.00    +0.000 A 
ATOM     14  C   UNL     1      34.893  -2.233  17.143  0.00  0.00    +0.000 A 
ATOM     15  C   UNL     1      34.509  -0.920  17.036  0.00  0.00    +0.000 A 
ATOM     16  C   UNL     1      35.355   0.008  16.489  0.00  0.00    +0.000 A 
ATOM     17  C   UNL     1      36.608  -0.377  16.038  0.00  0.00    +0.000 A 
ENDBRANCH   2   4
ENDBRANCH   1   2
BRANCH   1  18
ATOM     18  C   UNL     1      37.676   4.190  16.227  0.00  0.00    +0.000 C 
BRANCH  18  20
ATOM     19  N   UNL     1      39.571   5.644  17.050  0.00  0.00    +0.000 NA
ATOM     20  C   UNL     1      38.613   4.627  17.298  0.00  0.00    +0.000 C 
ATOM     21  O   UNL     1      38.536   4.073  18.429  0.00  0.00    +0.000 OA
BRANCH  19  25
ATOM     22  C   UNL     1      42.254   6.923  20.017  0.00  0.00    +0.000 A 
ATOM     23  C   UNL     1      40.951   6.603  20.344  0.00  0.00    +0.000 A 
ATOM     24  C   UNL     1      40.051   6.177  19.364  0.00  0.00    +0.000 A 
ATOM     25  C   UNL     1      40.467   6.073  18.055  0.00  0.00    +0.000 A 
ATOM     26  C   UNL     1      41.757   6.386  17.714  0.00  0.00    +0.000 A 
ATOM     27  C   UNL     1      42.636   6.808  18.707  0.00  0.00    +0.000 A 
BRANCH  22  28
ATOM     28  N   UNL     1      43.170   7.350  20.995  0.00  0.00    +0.000 N 
BRANCH  28  29
ATOM     29  C   UNL     1      43.504   6.569  22.153  0.00  0.00    +0.000 C 
ATOM     30  C   UNL     1      44.238   5.336  21.742  0.00  0.00    +0.000 C 
ATOM     31  C   UNL     1      44.481   7.421  22.976  0.00  0.00    +0.000 C 
ENDBRANCH  28  29
BRANCH  28  33
ATOM     32  C   UNL     1      42.743   9.702  20.970  0.00  0.00    +0.000 C 
ATOM     33  C   UNL     1      43.812   8.639  20.829  0.00  0.00    +0.000 C 
ENDBRANCH  28  33
ENDBRANCH  22  28
ENDBRANCH  19  25
ENDBRANCH  18  20
ENDBRANCH   1  18
TORSDOF 8
ENDMDL
MODEL 6
REMARK VINA RESULT:      -7.8      1.861      2.648
REMARK  Name = 
REMARK  8 active torsions:
REMARK  status: ('A' for Active; 'I' for Inactive)
REMARK    1  A    between atoms: C_2  and  N_3
REMARK    2  A    between atoms: N_3  and  C_4
REMARK    3  A    between atoms: N_3  and  C_31
REMARK    4  A    between atoms: C_7  and  N_8
REMARK    5  A    between atoms: C_9  and  C_11
REMARK    6  A    between atoms: C_11  and  O_12
REMARK    7  A    between atoms: O_12  and  C_13
REMARK    8  A    between atoms: C_13  and  C_15
REMARK                            x       y       z     vdW  Elec       q    Type
REMARK                         _______ _______ _______ _____ _____    ______ ____
ROOT
ATOM      1  O   UNL     1      36.100   3.297  16.868  0.00  0.00    +0.000 OA
ENDROOT
BRANCH   1   2
ATOM      2  C   UNL     1      35.460   2.259  16.227  0.00  0.00    +0.000 C 
ATOM      3  O   UNL     1      34.279   2.385  15.865  0.00  0.00    +0.000 OA
BRANCH   2   4
ATOM      4  C   UNL     1      36.160   0.988  15.962  0.00  0.00    +0.000 A 
ATOM      5  C   UNL     1      36.360   0.091  16.996  0.00  0.00    +0.000 A 
ATOM      6  C   UNL     1      35.922   0.344  18.294  0.00  0.00    +0.000 A 
ATOM      7  C   UNL     1      36.114  -0.539  19.334  0.00  0.00    +0.000 A 
ATOM      8  C   UNL     1      36.756  -1.723  19.109  0.00  0.00    +0.000 A 
ATOM      9  C   UNL     1      37.208  -2.008  17.816  0.00  0.00    +0.000 A 
ATOM     10  C   UNL     1      37.009  -1.112  16.789  0.00  0.00    +0.000 A 
ATOM     11  C   UNL     1      37.470  -1.437  15.536  0.00  0.00    +0.000 A 
ATOM     12  C   UNL     1      37.287  -0.562  14.479  0.00  0.00    +0.000 A 
ATOM     13  C   UNL     1      37.755  -0.896  13.216  0.00  0.00    +0.000 A 
ATOM     14  C   UNL     1      37.546   0.012  12.197  0.00  0.00    +0.000 A 
ATOM     15  C   UNL     1      36.900   1.202  12.418  0.00  0.00    +0.000 A 
ATOM     16  C   UNL     1      36.442   1.522  13.669  0.00  0.00    +0.000 A 
ATOM     17  C   UNL     1      36.630   0.642  14.722  0.00  0.00    +0.000 A 
ENDBRANCH   2   4
ENDBRANCH   1   2
BRANCH   1  18
ATOM     18  C   UNL     1      37.148   4.020  16.262  0.00  0.00    +0.000 C 
BRANCH  18  20
ATOM     19  N   UNL     1      39.024   5.548  16.987  0.00  0.00    +0.000 NA
ATOM     20  C   UNL     1      38.182   4.435  17.248  0.00  0.00    +0.000 C 
ATOM     21  O   UNL     1      38.294   3.777  18.319  0.00  0.00    +0.000 OA
BRANCH  19  25
ATOM     22  C   UNL     1      41.976   6.769  19.713  0.00  0.00    +0.000 A 
ATOM     23  C   UNL     1      40.692   6.508  20.145  0.00  0.00    +0.000 A 
ATOM     24  C   UNL     1      39.702   6.101  19.246  0.00  0.00    +0.000 A 
ATOM     25  C   UNL     1      40.012   5.957  17.912  0.00  0.00    +0.000 A 
ATOM     26  C   UNL     1      41.283   6.212  17.466  0.00  0.00    +0.000 A 
ATOM     27  C   UNL     1      42.252   6.616  18.380  0.00  0.00    +0.000 A 
BRANCH  22  28
ATOM     28  N   UNL     1      42.982   7.176  20.609  0.00  0.00    +0.000 N 
BRANCH  28  29
ATOM     29  C   UNL     1      43.371   8.547  20.781  0.00  0.00    +0.000 C 
ATOM     30  C   UNL     1      44.370   8.928  19.741  0.00  0.00    +0.000 C 
ATOM     31  C   UNL     1      42.111   9.386  20.523  0.00  0.00    +0.000 C 
ENDBRANCH  28  29
BRANCH  28  33
ATOM     32  C   UNL     1      43.905   6.752  22.773  0.00  0.00    +0.000 C 
ATOM     33  C   UNL     1      43.658   6.166  21.398  0.00  0.00    +0.000 C 
ENDBRANCH  28  33
ENDBRANCH  22  28
ENDBRANCH  19  25
ENDBRANCH  18  20
ENDBRANCH   1  18
TORSDOF 8
ENDMDL
MODEL 7
REMARK VINA RESULT:      -7.7     25.248     28.684
REMARK  Name = 
REMARK  8 active torsions:
REMARK  status: ('A' for Active; 'I' for Inactive)
REMARK    1  A    between atoms: C_2  and  N_3
REMARK    2  A    between atoms: N_3  and  C_4
REMARK    3  A    between atoms: N_3  and  C_31
REMARK    4  A    between atoms: C_7  and  N_8
REMARK    5  A    between atoms: C_9  and  C_11
REMARK    6  A    between atoms: C_11  and  O_12
REMARK    7  A    between atoms: O_12  and  C_13
REMARK    8  A    between atoms: C_13  and  C_15
REMARK                            x       y       z     vdW  Elec       q    Type
REMARK                         _______ _______ _______ _____ _____    ______ ____
ROOT
ATOM      1  O   UNL     1      24.304  17.989  37.383  0.00  0.00    +0.000 OA
ENDROOT
BRANCH   1   2
ATOM      2  C   UNL     1      25.204  18.337  36.400  0.00  0.00    +0.000 C 
ATOM      3  O   UNL     1      26.287  18.862  36.704  0.00  0.00    +0.000 OA
BRANCH   2   4
ATOM      4  C   UNL     1      24.898  18.096  34.977  0.00  0.00    +0.000 A 
ATOM      5  C   UNL     1      24.344  19.110  34.216  0.00  0.00    +0.000 A 
ATOM      6  C   UNL     1      24.056  20.365  34.749  0.00  0.00    +0.000 A 
ATOM      7  C   UNL     1      23.504  21.385  34.005  0.00  0.00    +0.000 A 
ATOM      8  C   UNL     1      23.217  21.183  32.685  0.00  0.00    +0.000 A 
ATOM      9  C   UNL     1      23.494  19.934  32.120  0.00  0.00    +0.000 A 
ATOM     10  C   UNL     1      24.045  18.926  32.880  0.00  0.00    +0.000 A 
ATOM     11  C   UNL     1      24.299  17.716  32.280  0.00  0.00    +0.000 A 
ATOM     12  C   UNL     1      24.853  16.679  33.011  0.00  0.00    +0.000 A 
ATOM     13  C   UNL     1      25.108  15.460  32.399  0.00  0.00    +0.000 A 
ATOM     14  C   UNL     1      25.662  14.461  33.173  0.00  0.00    +0.000 A 
ATOM     15  C   UNL     1      25.953  14.658  34.500  0.00  0.00    +0.000 A 
ATOM     16  C   UNL     1      25.697  15.866  35.094  0.00  0.00    +0.000 A 
ATOM     17  C   UNL     1      25.141  16.898  34.355  0.00  0.00    +0.000 A 
ENDBRANCH   2   4
ENDBRANCH   1   2
BRANCH   1  18
ATOM     18  C   UNL     1      24.675  17.897  38.740  0.00  0.00    +0.000 C 
BRANCH  18  20
ATOM     19  N   UNL     1      25.839  16.244  40.255  0.00  0.00    +0.000 NA
ATOM     20  C   UNL     1      25.008  16.500  39.134  0.00  0.00    +0.000 C 
ATOM     21  O   UNL     1      24.536  15.552  38.449  0.00  0.00    +0.000 OA
BRANCH  19  25
ATOM     22  C   UNL     1      26.784  12.324  41.427  0.00  0.00    +0.000 A 
ATOM     23  C   UNL     1      27.571  12.987  40.506  0.00  0.00    +0.000 A 
ATOM     24  C   UNL     1      27.265  14.292  40.109  0.00  0.00    +0.000 A 
ATOM     25  C   UNL     1      26.166  14.926  40.645  0.00  0.00    +0.000 A 
ATOM     26  C   UNL     1      25.374  14.282  41.561  0.00  0.00    +0.000 A 
ATOM     27  C   UNL     1      25.699  12.983  41.940  0.00  0.00    +0.000 A 
BRANCH  22  28
ATOM     28  N   UNL     1      27.084  11.012  41.836  0.00  0.00    +0.000 N 
BRANCH  28  29
ATOM     29  C   UNL     1      27.233   9.918  40.918  0.00  0.00    +0.000 C 
ATOM     30  C   UNL     1      28.678   9.693  40.624  0.00  0.00    +0.000 C 
ATOM     31  C   UNL     1      26.724   8.670  41.654  0.00  0.00    +0.000 C 
ENDBRANCH  28  29
BRANCH  28  33
ATOM     32  C   UNL     1      28.513  11.457  43.701  0.00  0.00    +0.000 C 
ATOM     33  C   UNL     1      27.253  10.747  43.251  0.00  0.00    +0.000 C 
ENDBRANCH  28  33
ENDBRANCH  22  28
ENDBRANCH  19  25
ENDBRANCH  18  20
ENDBRANCH   1  18
TORSDOF 8
ENDMDL
MODEL 8
REMARK VINA RESULT:      -7.6     25.242     28.717
REMARK  Name = 
REMARK  8 active torsions:
REMARK  status: ('A' for Active; 'I' for Inactive)
REMARK    1  A    between atoms: C_2  and  N_3
REMARK    2  A    between atoms: N_3  and  C_4
REMARK    3  A    between atoms: N_3  and  C_31
REMARK    4  A    between atoms: C_7  and  N_8
REMARK    5  A    between atoms: C_9  and  C_11
REMARK    6  A    between atoms: C_11  and  O_12
REMARK    7  A    between atoms: O_12  and  C_13
REMARK    8  A    between atoms: C_13  and  C_15
REMARK                            x       y       z     vdW  Elec       q    Type
REMARK                         _______ _______ _______ _____ _____    ______ ____
ROOT
ATOM      1  O   UNL     1      24.230  18.019  37.367  0.00  0.00    +0.000 OA
ENDROOT
BRANCH   1   2
ATOM      2  C   UNL     1      25.158  18.348  36.403  0.00  0.00    +0.000 C 
ATOM      3  O   UNL     1      26.254  18.827  36.731  0.00  0.00    +0.000 OA
BRANCH   2   4
ATOM      4  C   UNL     1      24.866  18.140  34.971  0.00  0.00    +0.000 A 
ATOM      5  C   UNL     1      25.132  16.912  34.392  0.00  0.00    +0.000 A 
ATOM      6  C   UNL     1      25.675  15.852  35.115  0.00  0.00    +0.000 A 
ATOM      7  C   UNL     1      25.946  14.624  34.554  0.00  0.00    +0.000 A 
ATOM      8  C   UNL     1      25.680  14.409  33.231  0.00  0.00    +0.000 A 
ATOM      9  C   UNL     1      25.134  15.453  32.477  0.00  0.00    +0.000 A 
ATOM     10  C   UNL     1      24.871  16.675  33.056  0.00  0.00    +0.000 A 
ATOM     11  C   UNL     1      24.334  17.670  32.274  0.00  0.00    +0.000 A 
ATOM     12  C   UNL     1      24.055  18.910  32.821  0.00  0.00    +0.000 A 
ATOM     13  C   UNL     1      23.513  19.911  32.027  0.00  0.00    +0.000 A 
ATOM     14  C   UNL     1      23.253  21.128  32.623  0.00  0.00    +0.000 A 
ATOM     15  C   UNL     1      23.519  21.349  33.951  0.00  0.00    +0.000 A 
ATOM     16  C   UNL     1      24.054  20.355  34.726  0.00  0.00    +0.000 A 
ATOM     17  C   UNL     1      24.331  19.116  34.171  0.00  0.00    +0.000 A 
ENDBRANCH   2   4
ENDBRANCH   1   2
BRANCH   1  18
ATOM     18  C   UNL     1      24.565  17.939  38.733  0.00  0.00    +0.000 C 
BRANCH  18  20
ATOM     19  N   UNL     1      25.850  16.323  40.189  0.00  0.00    +0.000 NA
ATOM     20  C   UNL     1      24.921  16.553  39.140  0.00  0.00    +0.000 C 
ATOM     21  O   UNL     1      24.381  15.588  38.533  0.00  0.00    +0.000 OA
BRANCH  19  25
ATOM     22  C   UNL     1      26.915  12.436  41.366  0.00  0.00    +0.000 A 
ATOM     23  C   UNL     1      25.766  13.023  41.856  0.00  0.00    +0.000 A 
ATOM     24  C   UNL     1      25.403  14.317  41.470  0.00  0.00    +0.000 A 
ATOM     25  C   UNL     1      26.200  15.014  40.590  0.00  0.00    +0.000 A 
ATOM     26  C   UNL     1      27.344  14.445  40.093  0.00  0.00    +0.000 A 
ATOM     27  C   UNL     1      27.685  13.155  40.492  0.00  0.00    +0.000 A 
BRANCH  22  28
ATOM     28  N   UNL     1      27.290  11.134  41.744  0.00  0.00    +0.000 N 
BRANCH  28  29
ATOM     29  C   UNL     1      27.405  10.048  40.811  0.00  0.00    +0.000 C 
ATOM     30  C   UNL     1      28.844   9.748  40.553  0.00  0.00    +0.000 C 
ATOM     31  C   UNL     1      26.809   8.818  41.511  0.00  0.00    +0.000 C 
ENDBRANCH  28  29
BRANCH  28  33
ATOM     32  C   UNL     1      28.751  11.737  43.537  0.00  0.00    +0.000 C 
ATOM     33  C   UNL     1      27.574  10.871  43.141  0.00  0.00    +0.000 C 
ENDBRANCH  28  33
ENDBRANCH  22  28
ENDBRANCH  19  25
ENDBRANCH  18  20
ENDBRANCH   1  18
TORSDOF 8
ENDMDL
MODEL 9
REMARK VINA RESULT:      -7.6      1.967      3.673
REMARK  Name = 
REMARK  8 active torsions:
REMARK  status: ('A' for Active; 'I' for Inactive)
REMARK    1  A    between atoms: C_2  and  N_3
REMARK    2  A    between atoms: N_3  and  C_4
REMARK    3  A    between atoms: N_3  and  C_31
REMARK    4  A    between atoms: C_7  and  N_8
REMARK    5  A    between atoms: C_9  and  C_11
REMARK    6  A    between atoms: C_11  and  O_12
REMARK    7  A    between atoms: O_12  and  C_13
REMARK    8  A    between atoms: C_13  and  C_15
REMARK                            x       y       z     vdW  Elec       q    Type
REMARK                         _______ _______ _______ _____ _____    ______ ____
ROOT
ATOM      1  O   UNL     1      36.628   3.569  15.663  0.00  0.00    +0.000 OA
ENDROOT
BRANCH   1   2
ATOM      2  C   UNL     1      35.773   2.696  15.026  0.00  0.00    +0.000 C 
ATOM      3  O   UNL     1      34.652   3.080  14.658  0.00  0.00    +0.000 OA
BRANCH   2   4
ATOM      4  C   UNL     1      36.171   1.298  14.775  0.00  0.00    +0.000 A 
ATOM      5  C   UNL     1      36.929   0.995  13.658  0.00  0.00    +0.000 A 
ATOM      6  C   UNL     1      37.333   1.969  12.748  0.00  0.00    +0.000 A 
ATOM      7  C   UNL     1      38.087   1.683  11.631  0.00  0.00    +0.000 A 
ATOM      8  C   UNL     1      38.470   0.396  11.382  0.00  0.00    +0.000 A 
ATOM      9  C   UNL     1      38.080  -0.606  12.277  0.00  0.00    +0.000 A 
ATOM     10  C   UNL     1      37.325  -0.301  13.388  0.00  0.00    +0.000 A 
ATOM     11  C   UNL     1      36.967  -1.320  14.238  0.00  0.00    +0.000 A 
ATOM     12  C   UNL     1      36.210  -1.052  15.365  0.00  0.00    +0.000 A 
ATOM     13  C   UNL     1      35.852  -2.085  16.220  0.00  0.00    +0.000 A 
ATOM     14  C   UNL     1      35.097  -1.763  17.329  0.00  0.00    +0.000 A 
ATOM     15  C   UNL     1      34.710  -0.471  17.584  0.00  0.00    +0.000 A 
ATOM     16  C   UNL     1      35.069   0.541  16.734  0.00  0.00    +0.000 A 
ATOM     17  C   UNL     1      35.826   0.264  15.607  0.00  0.00    +0.000 A 
ENDBRANCH   2   4
ENDBRANCH   1   2
BRANCH   1  18
ATOM     18  C   UNL     1      36.959   4.826  15.118  0.00  0.00    +0.000 C 
BRANCH  18  20
ATOM     19  N   UNL     1      38.768   4.905  16.879  0.00  0.00    +0.000 NA
ATOM     20  C   UNL     1      37.892   5.586  15.994  0.00  0.00    +0.000 C 
ATOM     21  O   UNL     1      37.886   6.846  15.932  0.00  0.00    +0.000 OA
BRANCH  19  25
ATOM     22  C   UNL     1      41.439   7.004  19.348  0.00  0.00    +0.000 A 
ATOM     23  C   UNL     1      40.210   6.603  19.831  0.00  0.00    +0.000 A 
ATOM     24  C   UNL     1      39.313   5.904  19.017  0.00  0.00    +0.000 A 
ATOM     25  C   UNL     1      39.661   5.610  17.718  0.00  0.00    +0.000 A 
ATOM     26  C   UNL     1      40.878   6.001  17.223  0.00  0.00    +0.000 A 
ATOM     27  C   UNL     1      41.754   6.696  18.052  0.00  0.00    +0.000 A 
BRANCH  22  28
ATOM     28  N   UNL     1      42.350   7.705  20.159  0.00  0.00    +0.000 N 
BRANCH  28  29
ATOM     29  C   UNL     1      42.090   9.018  20.679  0.00  0.00    +0.000 C 
ATOM     30  C   UNL     1      43.296   9.533  21.390  0.00  0.00    +0.000 C 
ATOM     31  C   UNL     1      41.867   9.924  19.459  0.00  0.00    +0.000 C 
ENDBRANCH  28  29
BRANCH  28  33
ATOM     32  C   UNL     1      43.316   5.910  21.410  0.00  0.00    +0.000 C 
ATOM     33  C   UNL     1      43.614   7.075  20.489  0.00  0.00    +0.000 C 
ENDBRANCH  28  33
ENDBRANCH  22  28
ENDBRANCH  19  25
ENDBRANCH  18  20
ENDBRANCH   1  18
TORSDOF 8
ENDMDL
MODEL 10
REMARK VINA RESULT:      -7.5      5.600      8.376
REMARK  Name = 
REMARK  8 active torsions:
REMARK  status: ('A' for Active; 'I' for Inactive)
REMARK    1  A    between atoms: C_2  and  N_3
REMARK    2  A    between atoms: N_3  and  C_4
REMARK    3  A    between atoms: N_3  and  C_31
REMARK    4  A    between atoms: C_7  and  N_8
REMARK    5  A    between atoms: C_9  and  C_11
REMARK    6  A    between atoms: C_11  and  O_12
REMARK    7  A    between atoms: O_12  and  C_13
REMARK    8  A    between atoms: C_13  and  C_15
REMARK                            x       y       z     vdW  Elec       q    Type
REMARK                         _______ _______ _______ _____ _____    ______ ____
ROOT
ATOM      1  O   UNL     1      39.654  -1.405  14.940  0.00  0.00    +0.000 OA
ENDROOT
BRANCH   1   2
ATOM      2  C   UNL     1      38.415  -1.915  15.263  0.00  0.00    +0.000 C 
ATOM      3  O   UNL     1      37.930  -2.841  14.595  0.00  0.00    +0.000 OA
BRANCH   2   4
ATOM      4  C   UNL     1      37.648  -1.371  16.400  0.00  0.00    +0.000 A 
ATOM      5  C   UNL     1      36.784  -0.310  16.195  0.00  0.00    +0.000 A 
ATOM      6  C   UNL     1      36.610   0.274  14.942  0.00  0.00    +0.000 A 
ATOM      7  C   UNL     1      35.754   1.330  14.722  0.00  0.00    +0.000 A 
ATOM      8  C   UNL     1      35.032   1.846  15.760  0.00  0.00    +0.000 A 
ATOM      9  C   UNL     1      35.184   1.282  17.031  0.00  0.00    +0.000 A 
ATOM     10  C   UNL     1      36.046   0.226  17.232  0.00  0.00    +0.000 A 
ATOM     11  C   UNL     1      36.161  -0.294  18.499  0.00  0.00    +0.000 A 
ATOM     12  C   UNL     1      37.016  -1.355  18.739  0.00  0.00    +0.000 A 
ATOM     13  C   UNL     1      37.128  -1.878  20.020  0.00  0.00    +0.000 A 
ATOM     14  C   UNL     1      37.994  -2.936  20.205  0.00  0.00    +0.000 A 
ATOM     15  C   UNL     1      38.721  -3.458  19.165  0.00  0.00    +0.000 A 
ATOM     16  C   UNL     1      38.604  -2.936  17.904  0.00  0.00    +0.000 A 
ATOM     17  C   UNL     1      37.746  -1.872  17.672  0.00  0.00    +0.000 A 
ENDBRANCH   2   4
ENDBRANCH   1   2
BRANCH   1  18
ATOM     18  C   UNL     1      40.317  -1.748  13.745  0.00  0.00    +0.000 C 
BRANCH  18  20
ATOM     19  N   UNL     1      39.308   0.198  12.489  0.00  0.00    +0.000 NA
ATOM     20  C   UNL     1      39.638  -1.182  12.548  0.00  0.00    +0.000 C 
ATOM     21  O   UNL     1      39.361  -1.954  11.589  0.00  0.00    +0.000 OA
BRANCH  19  25
ATOM     22  C   UNL     1      37.367   1.845   9.149  0.00  0.00    +0.000 A 
ATOM     23  C   UNL     1      38.745   1.841   9.224  0.00  0.00    +0.000 A 
ATOM     24  C   UNL     1      39.401   1.295  10.332  0.00  0.00    +0.000 A 
ATOM     25  C   UNL     1      38.663   0.753  11.360  0.00  0.00    +0.000 A 
ATOM     26  C   UNL     1      37.294   0.749  11.301  0.00  0.00    +0.000 A 
ATOM     27  C   UNL     1      36.663   1.298  10.188  0.00  0.00    +0.000 A 
BRANCH  22  28
ATOM     28  N   UNL     1      36.696   2.389   8.039  0.00  0.00    +0.000 N 
BRANCH  28  29
ATOM     29  C   UNL     1      36.929   1.953   6.690  0.00  0.00    +0.000 C 
ATOM     30  C   UNL     1      36.626   0.498   6.565  0.00  0.00    +0.000 C 
ATOM     31  C   UNL     1      35.910   2.701   5.817  0.00  0.00    +0.000 C 
ENDBRANCH  28  29
BRANCH  28  33
ATOM     32  C   UNL     1      36.469   4.658   8.756  0.00  0.00    +0.000 C 
ATOM     33  C   UNL     1      35.721   3.438   8.261  0.00  0.00    +0.000 C 
ENDBRANCH  28  33
ENDBRANCH  22  28
ENDBRANCH  19  25
ENDBRANCH  18  20
ENDBRANCH   1  18
TORSDOF 8
ENDMDL
