MODEL 1
REMARK VINA RESULT:      -7.9      0.000      0.000
REMARK  Name = 
REMARK  7 active torsions:
REMARK  status: ('A' for Active; 'I' for Inactive)
REMARK    1  A    between atoms: C_5  and  S_6
REMARK    2  A    between atoms: S_6  and  C_7
REMARK    3  A    between atoms: C_8  and  N_9
REMARK    4  A    between atoms: N_9  and  C_10
REMARK    5  A    between atoms: N_20  and  C_21
REMARK    6  A    between atoms: C_21  and  C_22
REMARK    7  A    between atoms: C_22  and  C_23
REMARK                            x       y       z     vdW  Elec       q    Type
REMARK                         _______ _______ _______ _____ _____    ______ ____
ROOT
ATOM      1  C   UNL     1      37.102   2.234  14.857  0.00  0.00    +0.000 C 
ATOM      2  C   UNL     1      38.159   2.587  14.148  0.00  0.00    +0.000 C 
ATOM      3  C   UNL     1      38.720   3.782  14.762  0.00  0.00    +0.000 C 
ATOM      4  O   UNL     1      39.738   4.445  14.395  0.00  0.00    +0.000 OA
ATOM      5  N   UNL     1      37.933   4.137  15.897  0.00  0.00    +0.000 N 
ATOM      6  C   UNL     1      36.905   3.165  15.971  0.00  0.00    +0.000 C 
ATOM      7  O   UNL     1      35.981   3.102  16.835  0.00  0.00    +0.000 OA
ENDROOT
BRANCH   1   8
ATOM      8  S   UNL     1      36.050   0.809  14.510  0.00  0.00    +0.000 S 
BRANCH   8  13
ATOM      9  C   UNL     1      38.765  -4.176  16.697  0.00  0.00    +0.000 C 
ATOM     10  C   UNL     1      38.094  -2.956  16.147  0.00  0.00    +0.000 A 
ATOM     11  C   UNL     1      37.474  -2.961  14.913  0.00  0.00    +0.000 A 
ATOM     12  C   UNL     1      36.849  -1.849  14.385  0.00  0.00    +0.000 A 
ATOM     13  C   UNL     1      36.823  -0.673  15.094  0.00  0.00    +0.000 A 
ATOM     14  C   UNL     1      37.447  -0.663  16.339  0.00  0.00    +0.000 A 
ATOM     15  C   UNL     1      38.065  -1.774  16.854  0.00  0.00    +0.000 A 
ENDBRANCH   8  13
ENDBRANCH   1   8
BRANCH   2  16
ATOM     16  N   UNL     1      38.642   1.912  13.000  0.00  0.00    +0.000 NA
BRANCH  16  17
ATOM     17  C   UNL     1      39.361   0.686  13.188  0.00  0.00    +0.000 A 
ATOM     18  C   UNL     1      40.152   0.508  14.305  0.00  0.00    +0.000 A 
ATOM     19  C   UNL     1      40.837  -0.677  14.471  0.00  0.00    +0.000 A 
ATOM     20  C   UNL     1      40.765  -1.704  13.553  0.00  0.00    +0.000 A 
ATOM     21  C   UNL     1      41.519  -2.982  13.757  0.00  0.00    +0.000 C 
ATOM     22  C   UNL     1      39.974  -1.507  12.448  0.00  0.00    +0.000 A 
ATOM     23  C   UNL     1      39.892  -2.627  11.444  0.00  0.00    +0.000 C 
ATOM     24  C   UNL     1      39.290  -0.338  12.273  0.00  0.00    +0.000 A 
ENDBRANCH  16  17
ENDBRANCH   2  16
BRANCH   5  25
ATOM     25  C   UNL     1      38.120   5.242  16.814  0.00  0.00    +0.000 C 
BRANCH  25  26
ATOM     26  C   UNL     1      38.872   4.823  18.051  0.00  0.00    +0.000 C 
BRANCH  26  27
ATOM     27  C   UNL     1      39.194   6.032  18.832  0.00  0.00    +0.000 A 
ATOM     28  C   UNL     1      40.317   6.076  19.603  0.00  0.00    +0.000 A 
ATOM     29  C   UNL     1      40.601   7.216  20.315  0.00  0.00    +0.000 A 
ATOM     30  C   UNL     1      39.767   8.321  20.262  0.00  0.00    +0.000 A 
ATOM     31  C   UNL     1      38.626   8.241  19.461  0.00  0.00    +0.000 A 
ATOM     32  C   UNL     1      38.356   7.106  18.763  0.00  0.00    +0.000 A 
ENDBRANCH  26  27
ENDBRANCH  25  26
ENDBRANCH   5  25
TORSDOF 7
ENDMDL
MODEL 2
REMARK VINA RESULT:      -7.8      1.359      3.565
REMARK  Name = 
REMARK  7 active torsions:
REMARK  status: ('A' for Active; 'I' for Inactive)
REMARK    1  A    between atoms: C_5  and  S_6
REMARK    2  A    between atoms: S_6  and  C_7
REMARK    3  A    between atoms: C_8  and  N_9
REMARK    4  A    between atoms: N_9  and  C_10
REMARK    5  A    between atoms: N_20  and  C_21
REMARK    6  A    between atoms: C_21  and  C_22
REMARK    7  A    between atoms: C_22  and  C_23
REMARK                            x       y       z     vdW  Elec       q    Type
REMARK                         _______ _______ _______ _____ _____    ______ ____
ROOT
ATOM      1  C   UNL     1      37.297   1.891  14.247  0.00  0.00    +0.000 C 
ATOM      2  C   UNL     1      36.711   1.648  15.405  0.00  0.00    +0.000 C 
ATOM      3  C   UNL     1      36.880   2.830  16.239  0.00  0.00    +0.000 C 
ATOM      4  O   UNL     1      36.470   3.015  17.425  0.00  0.00    +0.000 OA
ATOM      5  N   UNL     1      37.610   3.815  15.509  0.00  0.00    +0.000 N 
ATOM      6  C   UNL     1      37.880   3.235  14.245  0.00  0.00    +0.000 C 
ATOM      7  O   UNL     1      38.509   3.769  13.284  0.00  0.00    +0.000 OA
ENDROOT
BRANCH   1   8
ATOM      8  S   UNL     1      37.370   0.738  12.860  0.00  0.00    +0.000 S 
BRANCH   8  13
ATOM      9  C   UNL     1      42.368  -2.673  13.492  0.00  0.00    +0.000 C 
ATOM     10  C   UNL     1      41.132  -1.844  13.329  0.00  0.00    +0.000 A 
ATOM     11  C   UNL     1      40.039  -2.299  12.618  0.00  0.00    +0.000 A 
ATOM     12  C   UNL     1      38.890  -1.553  12.453  0.00  0.00    +0.000 A 
ATOM     13  C   UNL     1      38.797  -0.300  13.010  0.00  0.00    +0.000 A 
ATOM     14  C   UNL     1      39.897   0.164  13.728  0.00  0.00    +0.000 A 
ATOM     15  C   UNL     1      41.034  -0.587  13.885  0.00  0.00    +0.000 A 
ENDBRANCH   8  13
ENDBRANCH   1   8
BRANCH   2  16
ATOM     16  N   UNL     1      36.046   0.447  15.754  0.00  0.00    +0.000 NA
BRANCH  16  17
ATOM     17  C   UNL     1      36.727  -0.480  16.610  0.00  0.00    +0.000 A 
ATOM     18  C   UNL     1      36.432  -0.527  17.957  0.00  0.00    +0.000 A 
ATOM     19  C   UNL     1      37.095  -1.425  18.767  0.00  0.00    +0.000 A 
ATOM     20  C   UNL     1      38.055  -2.287  18.279  0.00  0.00    +0.000 A 
ATOM     21  C   UNL     1      38.761  -3.253  19.180  0.00  0.00    +0.000 C 
ATOM     22  C   UNL     1      38.335  -2.224  16.936  0.00  0.00    +0.000 A 
ATOM     23  C   UNL     1      39.382  -3.164  16.400  0.00  0.00    +0.000 C 
ATOM     24  C   UNL     1      37.684  -1.339  16.124  0.00  0.00    +0.000 A 
ENDBRANCH  16  17
ENDBRANCH   2  16
BRANCH   5  25
ATOM     25  C   UNL     1      38.000   5.144  15.932  0.00  0.00    +0.000 C 
BRANCH  25  26
ATOM     26  C   UNL     1      39.323   5.136  16.653  0.00  0.00    +0.000 C 
BRANCH  26  27
ATOM     27  C   UNL     1      39.208   5.998  17.845  0.00  0.00    +0.000 A 
ATOM     28  C   UNL     1      40.063   5.842  18.894  0.00  0.00    +0.000 A 
ATOM     29  C   UNL     1      39.942   6.661  19.990  0.00  0.00    +0.000 A 
ATOM     30  C   UNL     1      38.967   7.644  20.047  0.00  0.00    +0.000 A 
ATOM     31  C   UNL     1      38.109   7.776  18.953  0.00  0.00    +0.000 A 
ATOM     32  C   UNL     1      38.239   6.958  17.875  0.00  0.00    +0.000 A 
ENDBRANCH  26  27
ENDBRANCH  25  26
ENDBRANCH   5  25
TORSDOF 7
ENDMDL
MODEL 3
REMARK VINA RESULT:      -7.7      3.476      7.885
REMARK  Name = 
REMARK  7 active torsions:
REMARK  status: ('A' for Active; 'I' for Inactive)
REMARK    1  A    between atoms: C_5  and  S_6
REMARK    2  A    between atoms: S_6  and  C_7
REMARK    3  A    between atoms: C_8  and  N_9
REMARK    4  A    between atoms: N_9  and  C_10
REMARK    5  A    between atoms: N_20  and  C_21
REMARK    6  A    between atoms: C_21  and  C_22
REMARK    7  A    between atoms: C_22  and  C_23
REMARK                            x       y       z     vdW  Elec       q    Type
REMARK                         _______ _______ _______ _____ _____    ______ ____
ROOT
ATOM      1  C   UNL     1      37.487   3.959  14.934  0.00  0.00    +0.000 C 
ATOM      2  C   UNL     1      36.255   4.428  14.862  0.00  0.00    +0.000 C 
ATOM      3  C   UNL     1      35.347   3.309  15.069  0.00  0.00    +0.000 C 
ATOM      4  O   UNL     1      34.078   3.323  15.078  0.00  0.00    +0.000 OA
ATOM      5  N   UNL     1      36.109   2.121  15.275  0.00  0.00    +0.000 N 
ATOM      6  C   UNL     1      37.467   2.518  15.192  0.00  0.00    +0.000 C 
ATOM      7  O   UNL     1      38.484   1.772  15.317  0.00  0.00    +0.000 OA
ENDROOT
BRANCH   1   8
ATOM      8  S   UNL     1      38.986   4.948  14.745  0.00  0.00    +0.000 S 
BRANCH   8  13
ATOM      9  C   UNL     1      40.904   6.532  20.296  0.00  0.00    +0.000 C 
ATOM     10  C   UNL     1      40.443   6.149  18.924  0.00  0.00    +0.000 A 
ATOM     11  C   UNL     1      41.168   6.476  17.795  0.00  0.00    +0.000 A 
ATOM     12  C   UNL     1      40.764   6.134  16.521  0.00  0.00    +0.000 A 
ATOM     13  C   UNL     1      39.595   5.436  16.334  0.00  0.00    +0.000 A 
ATOM     14  C   UNL     1      38.860   5.104  17.470  0.00  0.00    +0.000 A 
ATOM     15  C   UNL     1      39.272   5.449  18.731  0.00  0.00    +0.000 A 
ENDBRANCH   8  13
ENDBRANCH   1   8
BRANCH   2  16
ATOM     16  N   UNL     1      35.902   5.779  14.623  0.00  0.00    +0.000 NA
BRANCH  16  17
ATOM     17  C   UNL     1      35.460   6.142  13.308  0.00  0.00    +0.000 A 
ATOM     18  C   UNL     1      34.340   6.931  13.145  0.00  0.00    +0.000 A 
ATOM     19  C   UNL     1      33.928   7.271  11.874  0.00  0.00    +0.000 A 
ATOM     20  C   UNL     1      34.598   6.849  10.745  0.00  0.00    +0.000 A 
ATOM     21  C   UNL     1      34.130   7.232   9.375  0.00  0.00    +0.000 C 
ATOM     22  C   UNL     1      35.710   6.063  10.929  0.00  0.00    +0.000 A 
ATOM     23  C   UNL     1      36.445   5.600   9.698  0.00  0.00    +0.000 C 
ATOM     24  C   UNL     1      36.128   5.720  12.183  0.00  0.00    +0.000 A 
ENDBRANCH  16  17
ENDBRANCH   2  16
BRANCH   5  25
ATOM     25  C   UNL     1      35.633   0.777  15.529  0.00  0.00    +0.000 C 
BRANCH  25  26
ATOM     26  C   UNL     1      35.250   0.583  16.973  0.00  0.00    +0.000 C 
BRANCH  26  27
ATOM     27  C   UNL     1      36.205  -0.363  17.584  0.00  0.00    +0.000 A 
ATOM     28  C   UNL     1      36.193  -0.582  18.928  0.00  0.00    +0.000 A 
ATOM     29  C   UNL     1      37.085  -1.473  19.474  0.00  0.00    +0.000 A 
ATOM     30  C   UNL     1      37.995  -2.152  18.680  0.00  0.00    +0.000 A 
ATOM     31  C   UNL     1      37.978  -1.903  17.306  0.00  0.00    +0.000 A 
ATOM     32  C   UNL     1      37.090  -1.018  16.780  0.00  0.00    +0.000 A 
ENDBRANCH  26  27
ENDBRANCH  25  26
ENDBRANCH   5  25
TORSDOF 7
ENDMDL
MODEL 4
REMARK VINA RESULT:      -7.5      1.135      3.519
REMARK  Name = 
REMARK  7 active torsions:
REMARK  status: ('A' for Active; 'I' for Inactive)
REMARK    1  A    between atoms: C_5  and  S_6
REMARK    2  A    between atoms: S_6  and  C_7
REMARK    3  A    between atoms: C_8  and  N_9
REMARK    4  A    between atoms: N_9  and  C_10
REMARK    5  A    between atoms: N_20  and  C_21
REMARK    6  A    between atoms: C_21  and  C_22
REMARK    7  A    between atoms: C_22  and  C_23
REMARK                            x       y       z     vdW  Elec       q    Type
REMARK                         _______ _______ _______ _____ _____    ______ ____
ROOT
ATOM      1  C   UNL     1      38.403   3.017  14.309  0.00  0.00    +0.000 C 
ATOM      2  C   UNL     1      37.301   2.507  14.829  0.00  0.00    +0.000 C 
ATOM      3  C   UNL     1      36.997   3.262  16.037  0.00  0.00    +0.000 C 
ATOM      4  O   UNL     1      36.026   3.099  16.836  0.00  0.00    +0.000 OA
ATOM      5  N   UNL     1      37.989   4.270  16.220  0.00  0.00    +0.000 N 
ATOM      6  C   UNL     1      38.886   4.128  15.132  0.00  0.00    +0.000 C 
ATOM      7  O   UNL     1      39.919   4.825  14.904  0.00  0.00    +0.000 OA
ENDROOT
BRANCH   1   8
ATOM      8  S   UNL     1      39.203   2.434  12.799  0.00  0.00    +0.000 S 
BRANCH   8  13
ATOM      9  C   UNL     1      41.465  -3.172  13.483  0.00  0.00    +0.000 C 
ATOM     10  C   UNL     1      40.912  -1.789  13.328  0.00  0.00    +0.000 A 
ATOM     11  C   UNL     1      40.980  -0.860  14.347  0.00  0.00    +0.000 A 
ATOM     12  C   UNL     1      40.477   0.420  14.228  0.00  0.00    +0.000 A 
ATOM     13  C   UNL     1      39.879   0.818  13.057  0.00  0.00    +0.000 A 
ATOM     14  C   UNL     1      39.807  -0.117  12.026  0.00  0.00    +0.000 A 
ATOM     15  C   UNL     1      40.311  -1.385  12.156  0.00  0.00    +0.000 A 
ENDBRANCH   8  13
ENDBRANCH   1   8
BRANCH   2  16
ATOM     16  N   UNL     1      36.565   1.422  14.294  0.00  0.00    +0.000 NA
BRANCH  16  17
ATOM     17  C   UNL     1      36.927   0.094  14.696  0.00  0.00    +0.000 A 
ATOM     18  C   UNL     1      36.894  -0.941  13.784  0.00  0.00    +0.000 A 
ATOM     19  C   UNL     1      37.246  -2.212  14.187  0.00  0.00    +0.000 A 
ATOM     20  C   UNL     1      37.631  -2.495  15.480  0.00  0.00    +0.000 A 
ATOM     21  C   UNL     1      38.008  -3.885  15.892  0.00  0.00    +0.000 C 
ATOM     22  C   UNL     1      37.656  -1.451  16.373  0.00  0.00    +0.000 A 
ATOM     23  C   UNL     1      38.077  -1.757  17.787  0.00  0.00    +0.000 C 
ATOM     24  C   UNL     1      37.310  -0.188  15.986  0.00  0.00    +0.000 A 
ENDBRANCH  16  17
ENDBRANCH   2  16
BRANCH   5  25
ATOM     25  C   UNL     1      38.086   5.258  17.274  0.00  0.00    +0.000 C 
BRANCH  25  26
ATOM     26  C   UNL     1      39.000   4.804  18.383  0.00  0.00    +0.000 C 
BRANCH  26  27
ATOM     27  C   UNL     1      39.821   5.954  18.809  0.00  0.00    +0.000 A 
ATOM     28  C   UNL     1      39.384   6.786  19.794  0.00  0.00    +0.000 A 
ATOM     29  C   UNL     1      40.169   7.846  20.179  0.00  0.00    +0.000 A 
ATOM     30  C   UNL     1      41.397   8.082  19.584  0.00  0.00    +0.000 A 
ATOM     31  C   UNL     1      41.814   7.207  18.578  0.00  0.00    +0.000 A 
ATOM     32  C   UNL     1      41.027   6.164  18.206  0.00  0.00    +0.000 A 
ENDBRANCH  26  27
ENDBRANCH  25  26
ENDBRANCH   5  25
TORSDOF 7
ENDMDL
MODEL 5
REMARK VINA RESULT:      -7.5      3.170      8.583
REMARK  Name = 
REMARK  7 active torsions:
REMARK  status: ('A' for Active; 'I' for Inactive)
REMARK    1  A    between atoms: C_5  and  S_6
REMARK    2  A    between atoms: S_6  and  C_7
REMARK    3  A    between atoms: C_8  and  N_9
REMARK    4  A    between atoms: N_9  and  C_10
REMARK    5  A    between atoms: N_20  and  C_21
REMARK    6  A    between atoms: C_21  and  C_22
REMARK    7  A    between atoms: C_22  and  C_23
REMARK                            x       y       z     vdW  Elec       q    Type
REMARK                         _______ _______ _______ _____ _____    ______ ____
ROOT
ATOM      1  C   UNL     1      37.319   5.774  14.666  0.00  0.00    +0.000 C 
ATOM      2  C   UNL     1      38.317   4.969  14.980  0.00  0.00    +0.000 C 
ATOM      3  C   UNL     1      37.777   3.620  15.084  0.00  0.00    +0.000 C 
ATOM      4  O   UNL     1      38.396   2.549  15.366  0.00  0.00    +0.000 OA
ATOM      5  N   UNL     1      36.377   3.656  14.811  0.00  0.00    +0.000 N 
ATOM      6  C   UNL     1      36.073   5.014  14.544  0.00  0.00    +0.000 C 
ATOM      7  O   UNL     1      34.937   5.494  14.253  0.00  0.00    +0.000 OA
ENDROOT
BRANCH   1   8
ATOM      8  S   UNL     1      37.464   7.557  14.420  0.00  0.00    +0.000 S 
BRANCH   8  13
ATOM      9  C   UNL     1      39.442  10.112  19.575  0.00  0.00    +0.000 C 
ATOM     10  C   UNL     1      38.966   9.488  18.299  0.00  0.00    +0.000 A 
ATOM     11  C   UNL     1      39.679   9.605  17.123  0.00  0.00    +0.000 A 
ATOM     12  C   UNL     1      39.261   9.039  15.935  0.00  0.00    +0.000 A 
ATOM     13  C   UNL     1      38.090   8.322  15.889  0.00  0.00    +0.000 A 
ATOM     14  C   UNL     1      37.367   8.202  17.074  0.00  0.00    +0.000 A 
ATOM     15  C   UNL     1      37.793   8.768  18.248  0.00  0.00    +0.000 A 
ENDBRANCH   8  13
ENDBRANCH   1   8
BRANCH   2  16
ATOM     16  N   UNL     1      39.663   5.364  15.177  0.00  0.00    +0.000 NA
BRANCH  16  17
ATOM     17  C   UNL     1      40.092   5.667  16.511  0.00  0.00    +0.000 A 
ATOM     18  C   UNL     1      39.288   5.350  17.587  0.00  0.00    +0.000 A 
ATOM     19  C   UNL     1      39.716   5.647  18.864  0.00  0.00    +0.000 A 
ATOM     20  C   UNL     1      40.927   6.257  19.113  0.00  0.00    +0.000 A 
ATOM     21  C   UNL     1      41.368   6.569  20.510  0.00  0.00    +0.000 C 
ATOM     22  C   UNL     1      41.711   6.565  18.028  0.00  0.00    +0.000 A 
ATOM     23  C   UNL     1      43.035   7.231  18.295  0.00  0.00    +0.000 C 
ATOM     24  C   UNL     1      41.299   6.275  16.758  0.00  0.00    +0.000 A 
ENDBRANCH  16  17
ENDBRANCH   2  16
BRANCH   5  25
ATOM     25  C   UNL     1      35.435   2.557  14.789  0.00  0.00    +0.000 C 
BRANCH  25  26
ATOM     26  C   UNL     1      35.080   2.097  16.179  0.00  0.00    +0.000 C 
BRANCH  26  27
ATOM     27  C   UNL     1      35.240   0.631  16.239  0.00  0.00    +0.000 A 
ATOM     28  C   UNL     1      34.616  -0.091  17.211  0.00  0.00    +0.000 A 
ATOM     29  C   UNL     1      34.773  -1.456  17.243  0.00  0.00    +0.000 A 
ATOM     30  C   UNL     1      35.554  -2.109  16.303  0.00  0.00    +0.000 A 
ATOM     31  C   UNL     1      36.178  -1.337  15.321  0.00  0.00    +0.000 A 
ATOM     32  C   UNL     1      36.014   0.013  15.302  0.00  0.00    +0.000 A 
ENDBRANCH  26  27
ENDBRANCH  25  26
ENDBRANCH   5  25
TORSDOF 7
ENDMDL
MODEL 6
REMARK VINA RESULT:      -7.3      3.261      8.915
REMARK  Name = 
REMARK  7 active torsions:
REMARK  status: ('A' for Active; 'I' for Inactive)
REMARK    1  A    between atoms: C_5  and  S_6
REMARK    2  A    between atoms: S_6  and  C_7
REMARK    3  A    between atoms: C_8  and  N_9
REMARK    4  A    between atoms: N_9  and  C_10
REMARK    5  A    between atoms: N_20  and  C_21
REMARK    6  A    between atoms: C_21  and  C_22
REMARK    7  A    between atoms: C_22  and  C_23
REMARK                            x       y       z     vdW  Elec       q    Type
REMARK                         _______ _______ _______ _____ _____    ______ ____
ROOT
ATOM      1  C   UNL     1      37.224   4.786  15.111  0.00  0.00    +0.000 C 
ATOM      2  C   UNL     1      37.856   4.552  16.247  0.00  0.00    +0.000 C 
ATOM      3  C   UNL     1      37.139   3.490  16.938  0.00  0.00    +0.000 C 
ATOM      4  O   UNL     1      37.410   2.964  18.060  0.00  0.00    +0.000 OA
ATOM      5  N   UNL     1      36.023   3.089  16.145  0.00  0.00    +0.000 N 
ATOM      6  C   UNL     1      36.064   3.901  14.985  0.00  0.00    +0.000 C 
ATOM      7  O   UNL     1      35.254   3.875  14.011  0.00  0.00    +0.000 OA
ENDROOT
BRANCH   1   8
ATOM      8  S   UNL     1      37.716   6.017  13.886  0.00  0.00    +0.000 S 
BRANCH   8  13
ATOM      9  C   UNL     1      33.949  10.791  14.057  0.00  0.00    +0.000 C 
ATOM     10  C   UNL     1      34.866   9.609  14.008  0.00  0.00    +0.000 A 
ATOM     11  C   UNL     1      34.525   8.451  13.337  0.00  0.00    +0.000 A 
ATOM     12  C   UNL     1      35.354   7.349  13.278  0.00  0.00    +0.000 A 
ATOM     13  C   UNL     1      36.578   7.374  13.901  0.00  0.00    +0.000 A 
ATOM     14  C   UNL     1      36.926   8.540  14.579  0.00  0.00    +0.000 A 
ATOM     15  C   UNL     1      36.095   9.629  14.631  0.00  0.00    +0.000 A 
ENDBRANCH   8  13
ENDBRANCH   1   8
BRANCH   2  16
ATOM     16  N   UNL     1      39.020   5.224  16.695  0.00  0.00    +0.000 NA
BRANCH  16  17
ATOM     17  C   UNL     1      38.888   6.164  17.770  0.00  0.00    +0.000 A 
ATOM     18  C   UNL     1      39.635   6.013  18.920  0.00  0.00    +0.000 A 
ATOM     19  C   UNL     1      39.496   6.926  19.944  0.00  0.00    +0.000 A 
ATOM     20  C   UNL     1      38.630   7.995  19.866  0.00  0.00    +0.000 A 
ATOM     21  C   UNL     1      38.498   8.973  20.993  0.00  0.00    +0.000 C 
ATOM     22  C   UNL     1      37.894   8.127  18.713  0.00  0.00    +0.000 A 
ATOM     23  C   UNL     1      36.947   9.295  18.624  0.00  0.00    +0.000 C 
ATOM     24  C   UNL     1      38.023   7.230  17.691  0.00  0.00    +0.000 A 
ENDBRANCH  16  17
ENDBRANCH   2  16
BRANCH   5  25
ATOM     25  C   UNL     1      35.039   2.064  16.426  0.00  0.00    +0.000 C 
BRANCH  25  26
ATOM     26  C   UNL     1      35.456   0.723  15.880  0.00  0.00    +0.000 C 
BRANCH  26  27
ATOM     27  C   UNL     1      36.014  -0.077  16.988  0.00  0.00    +0.000 A 
ATOM     28  C   UNL     1      37.029  -0.957  16.759  0.00  0.00    +0.000 A 
ATOM     29  C   UNL     1      37.538  -1.686  17.807  0.00  0.00    +0.000 A 
ATOM     30  C   UNL     1      37.038  -1.540  19.091  0.00  0.00    +0.000 A 
ATOM     31  C   UNL     1      35.999  -0.628  19.288  0.00  0.00    +0.000 A 
ATOM     32  C   UNL     1      35.504   0.085  18.242  0.00  0.00    +0.000 A 
ENDBRANCH  26  27
ENDBRANCH  25  26
ENDBRANCH   5  25
TORSDOF 7
ENDMDL
MODEL 7
REMARK VINA RESULT:      -7.2      3.307      8.589
REMARK  Name = 
REMARK  7 active torsions:
REMARK  status: ('A' for Active; 'I' for Inactive)
REMARK    1  A    between atoms: C_5  and  S_6
REMARK    2  A    between atoms: S_6  and  C_7
REMARK    3  A    between atoms: C_8  and  N_9
REMARK    4  A    between atoms: N_9  and  C_10
REMARK    5  A    between atoms: N_20  and  C_21
REMARK    6  A    between atoms: C_21  and  C_22
REMARK    7  A    between atoms: C_22  and  C_23
REMARK                            x       y       z     vdW  Elec       q    Type
REMARK                         _______ _______ _______ _____ _____    ______ ____
ROOT
ATOM      1  C   UNL     1      37.985   4.521  14.716  0.00  0.00    +0.000 C 
ATOM      2  C   UNL     1      36.988   5.293  14.323  0.00  0.00    +0.000 C 
ATOM      3  C   UNL     1      35.769   4.499  14.383  0.00  0.00    +0.000 C 
ATOM      4  O   UNL     1      34.587   4.858  14.089  0.00  0.00    +0.000 OA
ATOM      5  N   UNL     1      36.088   3.187  14.841  0.00  0.00    +0.000 N 
ATOM      6  C   UNL     1      37.488   3.185  15.057  0.00  0.00    +0.000 C 
ATOM      7  O   UNL     1      38.192   2.216  15.468  0.00  0.00    +0.000 OA
ENDROOT
BRANCH   1   8
ATOM      8  S   UNL     1      39.713   5.032  14.821  0.00  0.00    +0.000 S 
BRANCH   8  13
ATOM      9  C   UNL     1      41.204   6.887  20.420  0.00  0.00    +0.000 C 
ATOM     10  C   UNL     1      40.825   6.424  19.047  0.00  0.00    +0.000 A 
ATOM     11  C   UNL     1      39.646   5.747  18.807  0.00  0.00    +0.000 A 
ATOM     12  C   UNL     1      39.276   5.311  17.551  0.00  0.00    +0.000 A 
ATOM     13  C   UNL     1      40.093   5.547  16.472  0.00  0.00    +0.000 A 
ATOM     14  C   UNL     1      41.284   6.230  16.709  0.00  0.00    +0.000 A 
ATOM     15  C   UNL     1      41.641   6.658  17.962  0.00  0.00    +0.000 A 
ENDBRANCH   8  13
ENDBRANCH   1   8
BRANCH   2  16
ATOM     16  N   UNL     1      37.105   6.645  13.918  0.00  0.00    +0.000 NA
BRANCH  16  17
ATOM     17  C   UNL     1      36.736   7.667  14.853  0.00  0.00    +0.000 A 
ATOM     18  C   UNL     1      35.566   8.378  14.679  0.00  0.00    +0.000 A 
ATOM     19  C   UNL     1      35.225   9.357  15.589  0.00  0.00    +0.000 A 
ATOM     20  C   UNL     1      36.016   9.660  16.677  0.00  0.00    +0.000 A 
ATOM     21  C   UNL     1      35.623  10.728  17.650  0.00  0.00    +0.000 C 
ATOM     22  C   UNL     1      37.177   8.941  16.831  0.00  0.00    +0.000 A 
ATOM     23  C   UNL     1      38.043   9.269  18.019  0.00  0.00    +0.000 C 
ATOM     24  C   UNL     1      37.525   7.968  15.938  0.00  0.00    +0.000 A 
ENDBRANCH  16  17
ENDBRANCH   2  16
BRANCH   5  25
ATOM     25  C   UNL     1      35.196   2.068  15.064  0.00  0.00    +0.000 C 
BRANCH  25  26
ATOM     26  C   UNL     1      34.833   1.923  16.519  0.00  0.00    +0.000 C 
BRANCH  26  27
ATOM     27  C   UNL     1      35.325   0.615  16.993  0.00  0.00    +0.000 A 
ATOM     28  C   UNL     1      35.564   0.408  18.318  0.00  0.00    +0.000 A 
ATOM     29  C   UNL     1      36.015  -0.821  18.737  0.00  0.00    +0.000 A 
ATOM     30  C   UNL     1      36.228  -1.852  17.836  0.00  0.00    +0.000 A 
ATOM     31  C   UNL     1      35.971  -1.603  16.486  0.00  0.00    +0.000 A 
ATOM     32  C   UNL     1      35.527  -0.383  16.085  0.00  0.00    +0.000 A 
ENDBRANCH  26  27
ENDBRANCH  25  26
ENDBRANCH   5  25
TORSDOF 7
ENDMDL
MODEL 8
REMARK VINA RESULT:      -7.1      1.114      1.676
REMARK  Name = 
REMARK  7 active torsions:
REMARK  status: ('A' for Active; 'I' for Inactive)
REMARK    1  A    between atoms: C_5  and  S_6
REMARK    2  A    between atoms: S_6  and  C_7
REMARK    3  A    between atoms: C_8  and  N_9
REMARK    4  A    between atoms: N_9  and  C_10
REMARK    5  A    between atoms: N_20  and  C_21
REMARK    6  A    between atoms: C_21  and  C_22
REMARK    7  A    between atoms: C_22  and  C_23
REMARK                            x       y       z     vdW  Elec       q    Type
REMARK                         _______ _______ _______ _____ _____    ______ ____
ROOT
ATOM      1  C   UNL     1      37.449   2.360  15.054  0.00  0.00    +0.000 C 
ATOM      2  C   UNL     1      38.315   2.637  14.096  0.00  0.00    +0.000 C 
ATOM      3  C   UNL     1      38.957   3.898  14.436  0.00  0.00    +0.000 C 
ATOM      4  O   UNL     1      39.850   4.522  13.785  0.00  0.00    +0.000 OA
ATOM      5  N   UNL     1      38.426   4.374  15.671  0.00  0.00    +0.000 N 
ATOM      6  C   UNL     1      37.469   3.410  16.075  0.00  0.00    +0.000 C 
ATOM      7  O   UNL     1      36.757   3.440  17.122  0.00  0.00    +0.000 OA
ENDROOT
BRANCH   1   8
ATOM      8  S   UNL     1      36.391   0.898  15.105  0.00  0.00    +0.000 S 
BRANCH   8  13
ATOM      9  C   UNL     1      38.497  -3.061  19.215  0.00  0.00    +0.000 C 
ATOM     10  C   UNL     1      37.970  -2.081  18.213  0.00  0.00    +0.000 A 
ATOM     11  C   UNL     1      37.074  -1.091  18.566  0.00  0.00    +0.000 A 
ATOM     12  C   UNL     1      36.575  -0.177  17.661  0.00  0.00    +0.000 A 
ATOM     13  C   UNL     1      36.969  -0.225  16.345  0.00  0.00    +0.000 A 
ATOM     14  C   UNL     1      37.873  -1.222  15.985  0.00  0.00    +0.000 A 
ATOM     15  C   UNL     1      38.362  -2.126  16.893  0.00  0.00    +0.000 A 
ENDBRANCH   8  13
ENDBRANCH   1   8
BRANCH   2  16
ATOM     16  N   UNL     1      38.558   1.839  12.951  0.00  0.00    +0.000 NA
BRANCH  16  17
ATOM     17  C   UNL     1      39.357   0.658  13.105  0.00  0.00    +0.000 A 
ATOM     18  C   UNL     1      40.283   0.575  14.125  0.00  0.00    +0.000 A 
ATOM     19  C   UNL     1      41.044  -0.567  14.259  0.00  0.00    +0.000 A 
ATOM     20  C   UNL     1      40.916  -1.643  13.405  0.00  0.00    +0.000 A 
ATOM     21  C   UNL     1      41.755  -2.872  13.573  0.00  0.00    +0.000 C 
ATOM     22  C   UNL     1      39.989  -1.539  12.397  0.00  0.00    +0.000 A 
ATOM     23  C   UNL     1      39.847  -2.712  11.462  0.00  0.00    +0.000 C 
ATOM     24  C   UNL     1      39.229  -0.413  12.253  0.00  0.00    +0.000 A 
ENDBRANCH  16  17
ENDBRANCH   2  16
BRANCH   5  25
ATOM     25  C   UNL     1      38.773   5.578  16.397  0.00  0.00    +0.000 C 
BRANCH  25  26
ATOM     26  C   UNL     1      38.830   5.338  17.884  0.00  0.00    +0.000 C 
BRANCH  26  27
ATOM     27  C   UNL     1      40.097   5.896  18.396  0.00  0.00    +0.000 A 
ATOM     28  C   UNL     1      41.131   6.150  17.546  0.00  0.00    +0.000 A 
ATOM     29  C   UNL     1      42.299   6.677  18.044  0.00  0.00    +0.000 A 
ATOM     30  C   UNL     1      42.441   6.954  19.394  0.00  0.00    +0.000 A 
ATOM     31  C   UNL     1      41.360   6.681  20.235  0.00  0.00    +0.000 A 
ATOM     32  C   UNL     1      40.212   6.160  19.729  0.00  0.00    +0.000 A 
ENDBRANCH  26  27
ENDBRANCH  25  26
ENDBRANCH   5  25
TORSDOF 7
ENDMDL
MODEL 9
REMARK VINA RESULT:      -7.1      1.971      3.824
REMARK  Name = 
REMARK  7 active torsions:
REMARK  status: ('A' for Active; 'I' for Inactive)
REMARK    1  A    between atoms: C_5  and  S_6
REMARK    2  A    between atoms: S_6  and  C_7
REMARK    3  A    between atoms: C_8  and  N_9
REMARK    4  A    between atoms: N_9  and  C_10
REMARK    5  A    between atoms: N_20  and  C_21
REMARK    6  A    between atoms: C_21  and  C_22
REMARK    7  A    between atoms: C_22  and  C_23
REMARK                            x       y       z     vdW  Elec       q    Type
REMARK                         _______ _______ _______ _____ _____    ______ ____
ROOT
ATOM      1  C   UNL     1      38.571   2.083  13.775  0.00  0.00    +0.000 C 
ATOM      2  C   UNL     1      37.569   2.579  14.479  0.00  0.00    +0.000 C 
ATOM      3  C   UNL     1      38.023   3.833  15.063  0.00  0.00    +0.000 C 
ATOM      4  O   UNL     1      37.374   4.628  15.809  0.00  0.00    +0.000 OA
ATOM      5  N   UNL     1      39.372   4.072  14.666  0.00  0.00    +0.000 N 
ATOM      6  C   UNL     1      39.733   2.971  13.850  0.00  0.00    +0.000 C 
ATOM      7  O   UNL     1      40.850   2.780  13.284  0.00  0.00    +0.000 OA
ENDROOT
BRANCH   1   8
ATOM      8  S   UNL     1      38.520   0.533  12.850  0.00  0.00    +0.000 S 
BRANCH   8  13
ATOM      9  C   UNL     1      38.433  -4.064  16.834  0.00  0.00    +0.000 C 
ATOM     10  C   UNL     1      38.447  -2.940  15.844  0.00  0.00    +0.000 A 
ATOM     11  C   UNL     1      37.815  -3.041  14.620  0.00  0.00    +0.000 A 
ATOM     12  C   UNL     1      37.814  -2.019  13.692  0.00  0.00    +0.000 A 
ATOM     13  C   UNL     1      38.460  -0.838  13.969  0.00  0.00    +0.000 A 
ATOM     14  C   UNL     1      39.100  -0.732  15.202  0.00  0.00    +0.000 A 
ATOM     15  C   UNL     1      39.093  -1.754  16.116  0.00  0.00    +0.000 A 
ENDBRANCH   8  13
ENDBRANCH   1   8
BRANCH   2  16
ATOM     16  N   UNL     1      36.294   1.982  14.628  0.00  0.00    +0.000 NA
BRANCH  16  17
ATOM     17  C   UNL     1      36.045   1.199  15.803  0.00  0.00    +0.000 A 
ATOM     18  C   UNL     1      36.292   1.728  17.054  0.00  0.00    +0.000 A 
ATOM     19  C   UNL     1      36.047   0.962  18.175  0.00  0.00    +0.000 A 
ATOM     20  C   UNL     1      35.561  -0.326  18.096  0.00  0.00    +0.000 A 
ATOM     21  C   UNL     1      35.303  -1.136  19.329  0.00  0.00    +0.000 C 
ATOM     22  C   UNL     1      35.323  -0.833  16.841  0.00  0.00    +0.000 A 
ATOM     23  C   UNL     1      34.791  -2.240  16.751  0.00  0.00    +0.000 C 
ATOM     24  C   UNL     1      35.561  -0.085  15.724  0.00  0.00    +0.000 A 
ENDBRANCH  16  17
ENDBRANCH   2  16
BRANCH   5  25
ATOM     25  C   UNL     1      40.224   5.195  14.998  0.00  0.00    +0.000 C 
BRANCH  25  26
ATOM     26  C   UNL     1      39.516   6.194  15.877  0.00  0.00    +0.000 C 
BRANCH  26  27
ATOM     27  C   UNL     1      40.225   6.261  17.169  0.00  0.00    +0.000 A 
ATOM     28  C   UNL     1      41.568   6.488  17.207  0.00  0.00    +0.000 A 
ATOM     29  C   UNL     1      42.206   6.554  18.422  0.00  0.00    +0.000 A 
ATOM     30  C   UNL     1      41.508   6.394  19.608  0.00  0.00    +0.000 A 
ATOM     31  C   UNL     1      40.133   6.164  19.531  0.00  0.00    +0.000 A 
ATOM     32  C   UNL     1      39.515   6.100  18.322  0.00  0.00    +0.000 A 
ENDBRANCH  26  27
ENDBRANCH  25  26
ENDBRANCH   5  25
TORSDOF 7
ENDMDL
MODEL 10
REMARK VINA RESULT:      -7.0      1.864      6.360
REMARK  Name = 
REMARK  7 active torsions:
REMARK  status: ('A' for Active; 'I' for Inactive)
REMARK    1  A    between atoms: C_5  and  S_6
REMARK    2  A    between atoms: S_6  and  C_7
REMARK    3  A    between atoms: C_8  and  N_9
REMARK    4  A    between atoms: N_9  and  C_10
REMARK    5  A    between atoms: N_20  and  C_21
REMARK    6  A    between atoms: C_21  and  C_22
REMARK    7  A    between atoms: C_22  and  C_23
REMARK                            x       y       z     vdW  Elec       q    Type
REMARK                         _______ _______ _______ _____ _____    ______ ____
ROOT
ATOM      1  C   UNL     1      37.116   2.442  15.019  0.00  0.00    +0.000 C 
ATOM      2  C   UNL     1      37.635   1.407  14.383  0.00  0.00    +0.000 C 
ATOM      3  C   UNL     1      36.974   0.209  14.881  0.00  0.00    +0.000 C 
ATOM      4  O   UNL     1      37.175  -0.995  14.537  0.00  0.00    +0.000 OA
ATOM      5  N   UNL     1      36.013   0.583  15.867  0.00  0.00    +0.000 N 
ATOM      6  C   UNL     1      36.092   1.994  15.965  0.00  0.00    +0.000 C 
ATOM      7  O   UNL     1      35.407   2.742  16.725  0.00  0.00    +0.000 OA
ENDROOT
BRANCH   1   8
ATOM      8  S   UNL     1      37.596   4.163  14.762  0.00  0.00    +0.000 S 
BRANCH   8  13
ATOM      9  C   UNL     1      40.821   6.301  19.456  0.00  0.00    +0.000 C 
ATOM     10  C   UNL     1      40.019   5.768  18.309  0.00  0.00    +0.000 A 
ATOM     11  C   UNL     1      38.881   5.011  18.508  0.00  0.00    +0.000 A 
ATOM     12  C   UNL     1      38.126   4.509  17.468  0.00  0.00    +0.000 A 
ATOM     13  C   UNL     1      38.493   4.758  16.168  0.00  0.00    +0.000 A 
ATOM     14  C   UNL     1      39.641   5.522  15.962  0.00  0.00    +0.000 A 
ATOM     15  C   UNL     1      40.383   6.015  17.004  0.00  0.00    +0.000 A 
ENDBRANCH   8  13
ENDBRANCH   1   8
BRANCH   2  16
ATOM     16  N   UNL     1      38.651   1.472  13.398  0.00  0.00    +0.000 NA
BRANCH  16  17
ATOM     17  C   UNL     1      39.566   0.372  13.295  0.00  0.00    +0.000 A 
ATOM     18  C   UNL     1      40.541   0.188  14.254  0.00  0.00    +0.000 A 
ATOM     19  C   UNL     1      41.412  -0.874  14.140  0.00  0.00    +0.000 A 
ATOM     20  C   UNL     1      41.350  -1.770  13.094  0.00  0.00    +0.000 A 
ATOM     21  C   UNL     1      42.309  -2.916  12.993  0.00  0.00    +0.000 C 
ATOM     22  C   UNL     1      40.373  -1.569  12.149  0.00  0.00    +0.000 A 
ATOM     23  C   UNL     1      40.301  -2.545  11.005  0.00  0.00    +0.000 C 
ATOM     24  C   UNL     1      39.503  -0.520  12.251  0.00  0.00    +0.000 A 
ENDBRANCH  16  17
ENDBRANCH   2  16
BRANCH   5  25
ATOM     25  C   UNL     1      35.119  -0.270  16.623  0.00  0.00    +0.000 C 
BRANCH  25  26
ATOM     26  C   UNL     1      35.615  -0.497  18.027  0.00  0.00    +0.000 C 
BRANCH  26  27
ATOM     27  C   UNL     1      36.555  -1.634  18.010  0.00  0.00    +0.000 A 
ATOM     28  C   UNL     1      37.689  -1.603  18.764  0.00  0.00    +0.000 A 
ATOM     29  C   UNL     1      38.546  -2.677  18.738  0.00  0.00    +0.000 A 
ATOM     30  C   UNL     1      38.275  -3.791  17.960  0.00  0.00    +0.000 A 
ATOM     31  C   UNL     1      37.103  -3.789  17.201  0.00  0.00    +0.000 A 
ATOM     32  C   UNL     1      36.265  -2.719  17.235  0.00  0.00    +0.000 A 
ENDBRANCH  26  27
ENDBRANCH  25  26
ENDBRANCH   5  25
TORSDOF 7
ENDMDL
