MODEL 1
REMARK VINA RESULT:      -7.8      0.000      0.000
REMARK  Name = 
REMARK  4 active torsions:
REMARK  status: ('A' for Active; 'I' for Inactive)
REMARK    1  A    between atoms: C_2  and  C_3
REMARK    2  A    between atoms: C_3  and  C_4
REMARK    3  A    between atoms: C_4  and  O_5
REMARK    4  A    between atoms: O_5  and  C_6
REMARK                            x       y       z     vdW  Elec       q    Type
REMARK                         _______ _______ _______ _____ _____    ______ ____
ROOT
ATOM      1  C   UNL     1      15.311  11.798  33.515  0.00  0.00    +0.000 A 
ATOM      2  C   UNL     1      16.529  11.224  33.236  0.00  0.00    +0.000 A 
ATOM      3  C   UNL     1      17.365  10.673  34.177  0.00  0.00    +0.000 A 
ATOM      4  C   UNL     1      16.950  10.696  35.521  0.00  0.00    +0.000 A 
ATOM      5  C   UNL     1      15.739  11.264  35.823  0.00  0.00    +0.000 A 
ATOM      6  C   UNL     1      14.915  11.816  34.833  0.00  0.00    +0.000 A 
ATOM      7  C   UNL     1      15.551  11.160  37.264  0.00  0.00    +0.000 C 
ATOM      8  O   UNL     1      14.554  11.567  37.949  0.00  0.00    +0.000 OA
ATOM      9  C   UNL     1      16.724  10.495  37.806  0.00  0.00    +0.000 A 
ATOM     10  C   UNL     1      17.083  10.133  39.116  0.00  0.00    +0.000 A 
ATOM     11  C   UNL     1      18.282   9.498  39.357  0.00  0.00    +0.000 A 
ATOM     12  O   UNL     1      18.663   9.126  40.657  0.00  0.00    +0.000 OA
ATOM     13  C   UNL     1      19.097   9.236  38.276  0.00  0.00    +0.000 A 
ATOM     14  C   UNL     1      18.753   9.587  36.989  0.00  0.00    +0.000 A 
ATOM     15  C   UNL     1      17.547  10.227  36.746  0.00  0.00    +0.000 A 
ENDROOT
BRANCH   1  16
ATOM     16  O   UNL     1      14.529  12.333  32.482  0.00  0.00    +0.000 OA
BRANCH  16  17
ATOM     17  C   UNL     1      13.983  13.610  32.507  0.00  0.00    +0.000 C 
BRANCH  17  18
ATOM     18  C   UNL     1      14.381  14.324  31.235  0.00  0.00    +0.000 C 
BRANCH  18  20
ATOM     19  C   UNL     1      16.585  13.797  30.164  0.00  0.00    +0.000 C 
ATOM     20  C   UNL     1      15.143  13.383  30.322  0.00  0.00    +0.000 C 
ENDBRANCH  18  20
ENDBRANCH  17  18
ENDBRANCH  16  17
ENDBRANCH   1  16
TORSDOF 4
ENDMDL
MODEL 2
REMARK VINA RESULT:      -7.6      1.655      6.679
REMARK  Name = 
REMARK  4 active torsions:
REMARK  status: ('A' for Active; 'I' for Inactive)
REMARK    1  A    between atoms: C_2  and  C_3
REMARK    2  A    between atoms: C_3  and  C_4
REMARK    3  A    between atoms: C_4  and  O_5
REMARK    4  A    between atoms: O_5  and  C_6
REMARK                            x       y       z     vdW  Elec       q    Type
REMARK                         _______ _______ _______ _____ _____    ______ ____
ROOT
ATOM      1  C   UNL     1      17.686   9.789  36.848  0.00  0.00    +0.000 A 
ATOM      2  C   UNL     1      18.237   9.380  35.656  0.00  0.00    +0.000 A 
ATOM      3  C   UNL     1      17.817   9.803  34.418  0.00  0.00    +0.000 A 
ATOM      4  C   UNL     1      16.752  10.719  34.361  0.00  0.00    +0.000 A 
ATOM      5  C   UNL     1      16.187  11.142  35.538  0.00  0.00    +0.000 A 
ATOM      6  C   UNL     1      16.644  10.685  36.781  0.00  0.00    +0.000 A 
ATOM      7  C   UNL     1      15.118  12.073  35.203  0.00  0.00    +0.000 C 
ATOM      8  O   UNL     1      14.347  12.692  36.010  0.00  0.00    +0.000 OA
ATOM      9  C   UNL     1      15.078  12.183  33.755  0.00  0.00    +0.000 A 
ATOM     10  C   UNL     1      14.260  12.928  32.887  0.00  0.00    +0.000 A 
ATOM     11  C   UNL     1      14.438  12.845  31.523  0.00  0.00    +0.000 A 
ATOM     12  O   UNL     1      13.634  13.579  30.635  0.00  0.00    +0.000 OA
ATOM     13  C   UNL     1      15.436  12.015  31.057  0.00  0.00    +0.000 A 
ATOM     14  C   UNL     1      16.242  11.282  31.899  0.00  0.00    +0.000 A 
ATOM     15  C   UNL     1      16.063  11.365  33.272  0.00  0.00    +0.000 A 
ENDROOT
BRANCH   1  16
ATOM     16  O   UNL     1      18.187   9.299  38.063  0.00  0.00    +0.000 OA
BRANCH  16  17
ATOM     17  C   UNL     1      19.488   9.507  38.503  0.00  0.00    +0.000 C 
BRANCH  17  18
ATOM     18  C   UNL     1      19.531  10.813  39.262  0.00  0.00    +0.000 C 
BRANCH  18  20
ATOM     19  C   UNL     1      19.346  12.982  38.020  0.00  0.00    +0.000 C 
ATOM     20  C   UNL     1      20.264  11.866  38.454  0.00  0.00    +0.000 C 
ENDBRANCH  18  20
ENDBRANCH  17  18
ENDBRANCH  16  17
ENDBRANCH   1  16
TORSDOF 4
ENDMDL
MODEL 3
REMARK VINA RESULT:      -7.5      1.549      7.146
REMARK  Name = 
REMARK  4 active torsions:
REMARK  status: ('A' for Active; 'I' for Inactive)
REMARK    1  A    between atoms: C_2  and  C_3
REMARK    2  A    between atoms: C_3  and  C_4
REMARK    3  A    between atoms: C_4  and  O_5
REMARK    4  A    between atoms: O_5  and  C_6
REMARK                            x       y       z     vdW  Elec       q    Type
REMARK                         _______ _______ _______ _____ _____    ______ ____
ROOT
ATOM      1  C   UNL     1      17.687   9.709  36.884  0.00  0.00    +0.000 A 
ATOM      2  C   UNL     1      18.191   9.230  35.698  0.00  0.00    +0.000 A 
ATOM      3  C   UNL     1      17.769   9.631  34.453  0.00  0.00    +0.000 A 
ATOM      4  C   UNL     1      16.750  10.598  34.383  0.00  0.00    +0.000 A 
ATOM      5  C   UNL     1      16.232  11.089  35.554  0.00  0.00    +0.000 A 
ATOM      6  C   UNL     1      16.691  10.654  36.804  0.00  0.00    +0.000 A 
ATOM      7  C   UNL     1      15.205  12.062  35.207  0.00  0.00    +0.000 C 
ATOM      8  O   UNL     1      14.482  12.748  36.005  0.00  0.00    +0.000 OA
ATOM      9  C   UNL     1      15.140  12.124  33.756  0.00  0.00    +0.000 A 
ATOM     10  C   UNL     1      14.344  12.879  32.878  0.00  0.00    +0.000 A 
ATOM     11  C   UNL     1      14.489  12.739  31.514  0.00  0.00    +0.000 A 
ATOM     12  O   UNL     1      13.706  13.482  30.616  0.00  0.00    +0.000 OA
ATOM     13  C   UNL     1      15.434  11.843  31.059  0.00  0.00    +0.000 A 
ATOM     14  C   UNL     1      16.219  11.099  31.913  0.00  0.00    +0.000 A 
ATOM     15  C   UNL     1      16.072  11.239  33.285  0.00  0.00    +0.000 A 
ENDROOT
BRANCH   1  16
ATOM     16  O   UNL     1      18.187   9.236  38.106  0.00  0.00    +0.000 OA
BRANCH  16  17
ATOM     17  C   UNL     1      18.180   9.974  39.283  0.00  0.00    +0.000 C 
BRANCH  17  18
ATOM     18  C   UNL     1      17.678   9.086  40.398  0.00  0.00    +0.000 C 
BRANCH  18  20
ATOM     19  C   UNL     1      15.535   8.286  41.423  0.00  0.00    +0.000 C 
ATOM     20  C   UNL     1      16.239   9.429  40.734  0.00  0.00    +0.000 C 
ENDBRANCH  18  20
ENDBRANCH  17  18
ENDBRANCH  16  17
ENDBRANCH   1  16
TORSDOF 4
ENDMDL
MODEL 4
REMARK VINA RESULT:      -7.5      1.667      7.531
REMARK  Name = 
REMARK  4 active torsions:
REMARK  status: ('A' for Active; 'I' for Inactive)
REMARK    1  A    between atoms: C_2  and  C_3
REMARK    2  A    between atoms: C_3  and  C_4
REMARK    3  A    between atoms: C_4  and  O_5
REMARK    4  A    between atoms: O_5  and  C_6
REMARK                            x       y       z     vdW  Elec       q    Type
REMARK                         _______ _______ _______ _____ _____    ______ ____
ROOT
ATOM      1  C   UNL     1      17.076  10.238  37.215  0.00  0.00    +0.000 A 
ATOM      2  C   UNL     1      16.238  11.213  37.704  0.00  0.00    +0.000 A 
ATOM      3  C   UNL     1      15.474  12.047  36.924  0.00  0.00    +0.000 A 
ATOM      4  C   UNL     1      15.552  11.898  35.528  0.00  0.00    +0.000 A 
ATOM      5  C   UNL     1      16.381  10.933  35.017  0.00  0.00    +0.000 A 
ATOM      6  C   UNL     1      17.144  10.101  35.847  0.00  0.00    +0.000 A 
ATOM      7  C   UNL     1      16.279  10.987  33.565  0.00  0.00    +0.000 C 
ATOM      8  O   UNL     1      16.889  10.256  32.715  0.00  0.00    +0.000 OA
ATOM      9  C   UNL     1      15.336  12.044  33.238  0.00  0.00    +0.000 A 
ATOM     10  C   UNL     1      14.858  12.535  32.010  0.00  0.00    +0.000 A 
ATOM     11  C   UNL     1      13.948  13.570  31.985  0.00  0.00    +0.000 A 
ATOM     12  O   UNL     1      13.455  14.079  30.771  0.00  0.00    +0.000 OA
ATOM     13  C   UNL     1      13.536  14.092  33.192  0.00  0.00    +0.000 A 
ATOM     14  C   UNL     1      13.999  13.617  34.400  0.00  0.00    +0.000 A 
ATOM     15  C   UNL     1      14.915  12.576  34.427  0.00  0.00    +0.000 A 
ENDROOT
BRANCH   1  16
ATOM     16  O   UNL     1      17.815   9.435  38.095  0.00  0.00    +0.000 OA
BRANCH  16  17
ATOM     17  C   UNL     1      18.130   9.802  39.397  0.00  0.00    +0.000 C 
BRANCH  17  18
ATOM     18  C   UNL     1      17.482   8.815  40.341  0.00  0.00    +0.000 C 
BRANCH  18  20
ATOM     19  C   UNL     1      16.386   9.655  42.432  0.00  0.00    +0.000 C 
ATOM     20  C   UNL     1      16.230   9.415  40.951  0.00  0.00    +0.000 C 
ENDBRANCH  18  20
ENDBRANCH  17  18
ENDBRANCH  16  17
ENDBRANCH   1  16
TORSDOF 4
ENDMDL
MODEL 5
REMARK VINA RESULT:      -7.4      1.717      6.951
REMARK  Name = 
REMARK  4 active torsions:
REMARK  status: ('A' for Active; 'I' for Inactive)
REMARK    1  A    between atoms: C_2  and  C_3
REMARK    2  A    between atoms: C_3  and  C_4
REMARK    3  A    between atoms: C_4  and  O_5
REMARK    4  A    between atoms: O_5  and  C_6
REMARK                            x       y       z     vdW  Elec       q    Type
REMARK                         _______ _______ _______ _____ _____    ______ ____
ROOT
ATOM      1  C   UNL     1      17.353  10.047  37.264  0.00  0.00    +0.000 A 
ATOM      2  C   UNL     1      16.512  10.985  37.816  0.00  0.00    +0.000 A 
ATOM      3  C   UNL     1      15.706  11.832  37.092  0.00  0.00    +0.000 A 
ATOM      4  C   UNL     1      15.742  11.736  35.689  0.00  0.00    +0.000 A 
ATOM      5  C   UNL     1      16.574  10.808  35.117  0.00  0.00    +0.000 A 
ATOM      6  C   UNL     1      17.380   9.962  35.891  0.00  0.00    +0.000 A 
ATOM      7  C   UNL     1      16.424  10.914  33.672  0.00  0.00    +0.000 C 
ATOM      8  O   UNL     1      17.021  10.228  32.776  0.00  0.00    +0.000 OA
ATOM      9  C   UNL     1      15.450  11.962  33.414  0.00  0.00    +0.000 A 
ATOM     10  C   UNL     1      14.923  12.488  32.222  0.00  0.00    +0.000 A 
ATOM     11  C   UNL     1      13.992  13.504  32.264  0.00  0.00    +0.000 A 
ATOM     12  O   UNL     1      13.450  14.046  31.086  0.00  0.00    +0.000 OA
ATOM     13  C   UNL     1      13.608  13.971  33.502  0.00  0.00    +0.000 A 
ATOM     14  C   UNL     1      14.120  13.462  34.676  0.00  0.00    +0.000 A 
ATOM     15  C   UNL     1      15.057  12.440  34.635  0.00  0.00    +0.000 A 
ENDROOT
BRANCH   1  16
ATOM     16  O   UNL     1      18.135   9.228  38.090  0.00  0.00    +0.000 OA
BRANCH  16  17
ATOM     17  C   UNL     1      19.126   9.706  38.938  0.00  0.00    +0.000 C 
BRANCH  17  18
ATOM     18  C   UNL     1      20.134  10.470  38.111  0.00  0.00    +0.000 C 
BRANCH  18  20
ATOM     19  C   UNL     1      19.588  12.916  38.146  0.00  0.00    +0.000 C 
ATOM     20  C   UNL     1      20.425  11.815  38.749  0.00  0.00    +0.000 C 
ENDBRANCH  18  20
ENDBRANCH  17  18
ENDBRANCH  16  17
ENDBRANCH   1  16
TORSDOF 4
ENDMDL
MODEL 6
REMARK VINA RESULT:      -7.2      1.468      2.472
REMARK  Name = 
REMARK  4 active torsions:
REMARK  status: ('A' for Active; 'I' for Inactive)
REMARK    1  A    between atoms: C_2  and  C_3
REMARK    2  A    between atoms: C_3  and  C_4
REMARK    3  A    between atoms: C_4  and  O_5
REMARK    4  A    between atoms: O_5  and  C_6
REMARK                            x       y       z     vdW  Elec       q    Type
REMARK                         _______ _______ _______ _____ _____    ______ ____
ROOT
ATOM      1  C   UNL     1      15.320  11.919  34.962  0.00  0.00    +0.000 A 
ATOM      2  C   UNL     1      14.603  12.039  36.130  0.00  0.00    +0.000 A 
ATOM      3  C   UNL     1      14.991  11.512  37.339  0.00  0.00    +0.000 A 
ATOM      4  C   UNL     1      16.203  10.801  37.390  0.00  0.00    +0.000 A 
ATOM      5  C   UNL     1      16.934  10.669  36.237  0.00  0.00    +0.000 A 
ATOM      6  C   UNL     1      16.504  11.221  35.023  0.00  0.00    +0.000 A 
ATOM      7  C   UNL     1      18.128   9.899  36.558  0.00  0.00    +0.000 C 
ATOM      8  O   UNL     1      19.068   9.556  35.766  0.00  0.00    +0.000 OA
ATOM      9  C   UNL     1      18.067   9.579  37.975  0.00  0.00    +0.000 A 
ATOM     10  C   UNL     1      18.936   8.866  38.819  0.00  0.00    +0.000 A 
ATOM     11  C   UNL     1      18.630   8.706  40.154  0.00  0.00    +0.000 A 
ATOM     12  O   UNL     1      19.482   7.998  41.018  0.00  0.00    +0.000 OA
ATOM     13  C   UNL     1      17.458   9.267  40.615  0.00  0.00    +0.000 A 
ATOM     14  C   UNL     1      16.601   9.967  39.794  0.00  0.00    +0.000 A 
ATOM     15  C   UNL     1      16.907  10.128  38.451  0.00  0.00    +0.000 A 
ENDROOT
BRANCH   1  16
ATOM     16  O   UNL     1      14.839  12.494  33.777  0.00  0.00    +0.000 OA
BRANCH  16  17
ATOM     17  C   UNL     1      15.261  12.118  32.508  0.00  0.00    +0.000 C 
BRANCH  17  18
ATOM     18  C   UNL     1      14.328  12.738  31.493  0.00  0.00    +0.000 C 
BRANCH  18  20
ATOM     19  C   UNL     1      16.413  13.490  30.324  0.00  0.00    +0.000 C 
ATOM     20  C   UNL     1      15.022  13.873  30.765  0.00  0.00    +0.000 C 
ENDBRANCH  18  20
ENDBRANCH  17  18
ENDBRANCH  16  17
ENDBRANCH   1  16
TORSDOF 4
ENDMDL
MODEL 7
REMARK VINA RESULT:      -6.7     18.724     21.195
REMARK  Name = 
REMARK  4 active torsions:
REMARK  status: ('A' for Active; 'I' for Inactive)
REMARK    1  A    between atoms: C_2  and  C_3
REMARK    2  A    between atoms: C_3  and  C_4
REMARK    3  A    between atoms: C_4  and  O_5
REMARK    4  A    between atoms: O_5  and  C_6
REMARK                            x       y       z     vdW  Elec       q    Type
REMARK                         _______ _______ _______ _____ _____    ______ ____
ROOT
ATOM      1  C   UNL     1      33.711  -1.035  33.734  0.00  0.00    +0.000 A 
ATOM      2  C   UNL     1      33.783  -0.937  35.104  0.00  0.00    +0.000 A 
ATOM      3  C   UNL     1      33.836   0.248  35.799  0.00  0.00    +0.000 A 
ATOM      4  C   UNL     1      33.815   1.446  35.062  0.00  0.00    +0.000 A 
ATOM      5  C   UNL     1      33.743   1.372  33.694  0.00  0.00    +0.000 A 
ATOM      6  C   UNL     1      33.691   0.143  33.023  0.00  0.00    +0.000 A 
ATOM      7  C   UNL     1      33.737   2.735  33.180  0.00  0.00    +0.000 C 
ATOM      8  O   UNL     1      33.679   3.104  31.960  0.00  0.00    +0.000 OA
ATOM      9  C   UNL     1      33.808   3.629  34.324  0.00  0.00    +0.000 A 
ATOM     10  C   UNL     1      33.833   5.031  34.425  0.00  0.00    +0.000 A 
ATOM     11  C   UNL     1      33.907   5.635  35.662  0.00  0.00    +0.000 A 
ATOM     12  O   UNL     1      33.933   7.034  35.790  0.00  0.00    +0.000 OA
ATOM     13  C   UNL     1      33.952   4.820  36.772  0.00  0.00    +0.000 A 
ATOM     14  C   UNL     1      33.928   3.445  36.682  0.00  0.00    +0.000 A 
ATOM     15  C   UNL     1      33.854   2.836  35.438  0.00  0.00    +0.000 A 
ENDROOT
BRANCH   1  16
ATOM     16  O   UNL     1      33.661  -2.294  33.118  0.00  0.00    +0.000 OA
BRANCH  16  17
ATOM     17  C   UNL     1      33.329  -3.467  33.783  0.00  0.00    +0.000 C 
BRANCH  17  18
ATOM     18  C   UNL     1      33.308  -4.595  32.778  0.00  0.00    +0.000 C 
BRANCH  18  20
ATOM     19  C   UNL     1      34.959  -5.776  31.308  0.00  0.00    +0.000 C 
ATOM     20  C   UNL     1      34.675  -5.247  32.691  0.00  0.00    +0.000 C 
ENDBRANCH  18  20
ENDBRANCH  17  18
ENDBRANCH  16  17
ENDBRANCH   1  16
TORSDOF 4
ENDMDL
MODEL 8
REMARK VINA RESULT:      -6.5     21.779     23.140
REMARK  Name = 
REMARK  4 active torsions:
REMARK  status: ('A' for Active; 'I' for Inactive)
REMARK    1  A    between atoms: C_2  and  C_3
REMARK    2  A    between atoms: C_3  and  C_4
REMARK    3  A    between atoms: C_4  and  O_5
REMARK    4  A    between atoms: O_5  and  C_6
REMARK                            x       y       z     vdW  Elec       q    Type
REMARK                         _______ _______ _______ _____ _____    ______ ____
ROOT
ATOM      1  C   UNL     1      24.188  -8.448  24.053  0.00  0.00    +0.000 A 
ATOM      2  C   UNL     1      24.036  -7.087  23.932  0.00  0.00    +0.000 A 
ATOM      3  C   UNL     1      22.945  -6.382  24.380  0.00  0.00    +0.000 A 
ATOM      4  C   UNL     1      21.910  -7.098  25.008  0.00  0.00    +0.000 A 
ATOM      5  C   UNL     1      22.041  -8.457  25.140  0.00  0.00    +0.000 A 
ATOM      6  C   UNL     1      23.170  -9.139  24.669  0.00  0.00    +0.000 A 
ATOM      7  C   UNL     1      20.847  -8.950  25.815  0.00  0.00    +0.000 C 
ATOM      8  O   UNL     1      20.575 -10.157  26.129  0.00  0.00    +0.000 OA
ATOM      9  C   UNL     1      19.995  -7.803  26.078  0.00  0.00    +0.000 A 
ATOM     10  C   UNL     1      18.737  -7.684  26.696  0.00  0.00    +0.000 A 
ATOM     11  C   UNL     1      18.138  -6.449  26.817  0.00  0.00    +0.000 A 
ATOM     12  O   UNL     1      16.882  -6.304  27.431  0.00  0.00    +0.000 OA
ATOM     13  C   UNL     1      18.814  -5.357  26.316  0.00  0.00    +0.000 A 
ATOM     14  C   UNL     1      20.046  -5.464  25.710  0.00  0.00    +0.000 A 
ATOM     15  C   UNL     1      20.650  -6.707  25.587  0.00  0.00    +0.000 A 
ENDROOT
BRANCH   1  16
ATOM     16  O   UNL     1      25.342  -9.076  23.563  0.00  0.00    +0.000 OA
BRANCH  16  17
ATOM     17  C   UNL     1      25.667  -9.154  22.215  0.00  0.00    +0.000 C 
BRANCH  17  18
ATOM     18  C   UNL     1      27.156  -8.943  22.070  0.00  0.00    +0.000 C 
BRANCH  18  20
ATOM     19  C   UNL     1      28.512  -6.895  21.571  0.00  0.00    +0.000 C 
ATOM     20  C   UNL     1      27.534  -7.544  22.519  0.00  0.00    +0.000 C 
ENDBRANCH  18  20
ENDBRANCH  17  18
ENDBRANCH  16  17
ENDBRANCH   1  16
TORSDOF 4
ENDMDL
MODEL 9
REMARK VINA RESULT:      -6.5     18.449     19.717
REMARK  Name = 
REMARK  4 active torsions:
REMARK  status: ('A' for Active; 'I' for Inactive)
REMARK    1  A    between atoms: C_2  and  C_3
REMARK    2  A    between atoms: C_3  and  C_4
REMARK    3  A    between atoms: C_4  and  O_5
REMARK    4  A    between atoms: O_5  and  C_6
REMARK                            x       y       z     vdW  Elec       q    Type
REMARK                         _______ _______ _______ _____ _____    ______ ____
ROOT
ATOM      1  C   UNL     1      34.051   5.888  35.571  0.00  0.00    +0.000 A 
ATOM      2  C   UNL     1      34.047   5.150  36.732  0.00  0.00    +0.000 A 
ATOM      3  C   UNL     1      33.955   3.780  36.783  0.00  0.00    +0.000 A 
ATOM      4  C   UNL     1      33.857   3.080  35.567  0.00  0.00    +0.000 A 
ATOM      5  C   UNL     1      33.859   3.796  34.397  0.00  0.00    +0.000 A 
ATOM      6  C   UNL     1      33.955   5.194  34.388  0.00  0.00    +0.000 A 
ATOM      7  C   UNL     1      33.748   2.845  33.299  0.00  0.00    +0.000 C 
ATOM      8  O   UNL     1      33.715   3.102  32.049  0.00  0.00    +0.000 OA
ATOM      9  C   UNL     1      33.681   1.516  33.883  0.00  0.00    +0.000 A 
ATOM     10  C   UNL     1      33.569   0.237  33.309  0.00  0.00    +0.000 A 
ATOM     11  C   UNL     1      33.524  -0.882  34.112  0.00  0.00    +0.000 A 
ATOM     12  O   UNL     1      33.412  -2.171  33.563  0.00  0.00    +0.000 OA
ATOM     13  C   UNL     1      33.592  -0.696  35.477  0.00  0.00    +0.000 A 
ATOM     14  C   UNL     1      33.702   0.554  36.048  0.00  0.00    +0.000 A 
ATOM     15  C   UNL     1      33.747   1.680  35.240  0.00  0.00    +0.000 A 
ENDROOT
BRANCH   1  16
ATOM     16  O   UNL     1      34.150   7.286  35.625  0.00  0.00    +0.000 OA
BRANCH  16  17
ATOM     17  C   UNL     1      34.563   7.990  36.749  0.00  0.00    +0.000 C 
BRANCH  17  18
ATOM     18  C   UNL     1      34.293   9.459  36.517  0.00  0.00    +0.000 C 
BRANCH  18  20
ATOM     19  C   UNL     1      35.154  11.520  35.380  0.00  0.00    +0.000 C 
ATOM     20  C   UNL     1      35.287  10.024  35.520  0.00  0.00    +0.000 C 
ENDBRANCH  18  20
ENDBRANCH  17  18
ENDBRANCH  16  17
ENDBRANCH   1  16
TORSDOF 4
ENDMDL
MODEL 10
REMARK VINA RESULT:      -6.4      2.177      7.569
REMARK  Name = 
REMARK  4 active torsions:
REMARK  status: ('A' for Active; 'I' for Inactive)
REMARK    1  A    between atoms: C_2  and  C_3
REMARK    2  A    between atoms: C_3  and  C_4
REMARK    3  A    between atoms: C_4  and  O_5
REMARK    4  A    between atoms: O_5  and  C_6
REMARK                            x       y       z     vdW  Elec       q    Type
REMARK                         _______ _______ _______ _____ _____    ______ ____
ROOT
ATOM      1  C   UNL     1      16.842   9.942  39.345  0.00  0.00    +0.000 A 
ATOM      2  C   UNL     1      15.678  10.647  39.149  0.00  0.00    +0.000 A 
ATOM      3  C   UNL     1      15.247  11.118  37.932  0.00  0.00    +0.000 A 
ATOM      4  C   UNL     1      16.050  10.864  36.806  0.00  0.00    +0.000 A 
ATOM      5  C   UNL     1      17.216  10.162  36.977  0.00  0.00    +0.000 A 
ATOM      6  C   UNL     1      17.620   9.699  38.237  0.00  0.00    +0.000 A 
ATOM      7  C   UNL     1      17.851  10.038  35.672  0.00  0.00    +0.000 C 
ATOM      8  O   UNL     1      18.953   9.455  35.397  0.00  0.00    +0.000 OA
ATOM      9  C   UNL     1      16.993  10.707  34.709  0.00  0.00    +0.000 A 
ATOM     10  C   UNL     1      17.104  10.899  33.320  0.00  0.00    +0.000 A 
ATOM     11  C   UNL     1      16.126  11.588  32.635  0.00  0.00    +0.000 A 
ATOM     12  O   UNL     1      16.213  11.794  31.248  0.00  0.00    +0.000 OA
ATOM     13  C   UNL     1      15.056  12.071  33.358  0.00  0.00    +0.000 A 
ATOM     14  C   UNL     1      14.939  11.887  34.719  0.00  0.00    +0.000 A 
ATOM     15  C   UNL     1      15.923  11.194  35.409  0.00  0.00    +0.000 A 
ENDROOT
BRANCH   1  16
ATOM     16  O   UNL     1      17.194   9.503  40.629  0.00  0.00    +0.000 OA
BRANCH  16  17
ATOM     17  C   UNL     1      16.333   9.533  41.720  0.00  0.00    +0.000 C 
BRANCH  17  18
ATOM     18  C   UNL     1      16.279   8.148  42.322  0.00  0.00    +0.000 C 
BRANCH  18  20
ATOM     19  C   UNL     1      17.509   6.111  41.535  0.00  0.00    +0.000 C 
ATOM     20  C   UNL     1      16.408   7.097  41.236  0.00  0.00    +0.000 C 
ENDBRANCH  18  20
ENDBRANCH  17  18
ENDBRANCH  16  17
ENDBRANCH   1  16
TORSDOF 4
ENDMDL
