MODEL 1
REMARK VINA RESULT:      -8.3      0.000      0.000
REMARK  Name = 
REMARK  9 active torsions:
REMARK  status: ('A' for Active; 'I' for Inactive)
REMARK    1  A    between atoms: C_2  and  O_5
REMARK    2  A    between atoms: O_5  and  C_6
REMARK    3  A    between atoms: C_9  and  C_10
REMARK    4  A    between atoms: C_10  and  CA_11
REMARK    5  A    between atoms: CA_11  and  C_12
REMARK    6  A    between atoms: CA_11  and  N_14
REMARK    7  A    between atoms: C_15  and  O_17
REMARK    8  A    between atoms: O_17  and  C_18
REMARK    9  A    between atoms: C_18  and  C_19
REMARK                            x       y       z     vdW  Elec       q    Type
REMARK                         _______ _______ _______ _____ _____    ______ ____
ROOT
ATOM      1  N   UNL     1      36.791   3.550  16.843  0.00  0.00    +0.000 NA
ATOM      2  C   UNL     1      38.050   4.074  17.093  0.00  0.00    +0.000 C 
ATOM      3  O   UNL     1      38.941   3.972  16.200  0.00  0.00    +0.000 OA
ENDROOT
BRANCH   1   4
ATOM      4  CA  UNL     1      36.490   2.842  15.473  0.00  0.00    +0.000 C 
BRANCH   4   5
ATOM      5  C   UNL     1      35.705   4.134  14.800  0.00  0.00    +0.000 C 
ATOM      6  O   UNL     1      34.366   3.887  15.090  0.00  0.00    +0.000 OA
ENDBRANCH   4   5
BRANCH   4   7
ATOM      7  C   UNL     1      35.092   2.126  15.989  0.00  0.00    +0.000 C 
BRANCH   7  11
ATOM      8  C   UNL     1      36.522  -1.924  16.241  0.00  0.00    +0.000 A 
ATOM      9  C   UNL     1      37.092  -1.026  15.355  0.00  0.00    +0.000 A 
ATOM     10  C   UNL     1      36.617   0.273  15.293  0.00  0.00    +0.000 A 
ATOM     11  C   UNL     1      35.580   0.698  16.095  0.00  0.00    +0.000 A 
ATOM     12  C   UNL     1      35.007  -0.191  16.978  0.00  0.00    +0.000 A 
ATOM     13  C   UNL     1      35.483  -1.490  17.041  0.00  0.00    +0.000 A 
BRANCH   8  14
ATOM     14  O   UNL     1      36.997  -3.223  16.304  0.00  0.00    +0.000 OA
BRANCH  14  16
ATOM     15  C   UNL     1      38.293  -4.908  17.427  0.00  0.00    +0.000 C 
ATOM     16  C   UNL     1      38.217  -3.422  17.037  0.00  0.00    +0.000 C 
ATOM     17  C   UNL     1      38.271  -2.547  18.268  0.00  0.00    +0.000 C 
ATOM     18  C   UNL     1      39.437  -3.166  16.209  0.00  0.00    +0.000 C 
ENDBRANCH  14  16
ENDBRANCH   8  14
ENDBRANCH   7  11
ENDBRANCH   4   7
ENDBRANCH   1   4
BRANCH   2  19
ATOM     19  O   UNL     1      38.372   4.709  18.280  0.00  0.00    +0.000 OA
BRANCH  19  20
ATOM     20  C   UNL     1      39.404   5.684  18.236  0.00  0.00    +0.000 C 
BRANCH  20  21
ATOM     21  C   UNL     1      39.360   6.423  19.557  0.00  0.00    +0.000 C 
ATOM     22  C   UNL     1      38.677   7.710  19.307  0.00  0.00    +0.000 A 
ATOM     23  C   UNL     1      37.432   8.086  18.859  0.00  0.00    +0.000 A 
ATOM     24  C   UNL     1      37.011   9.391  18.707  0.00  0.00    +0.000 A 
ATOM     25  C   UNL     1      37.894  10.398  19.023  0.00  0.00    +0.000 A 
ATOM     26  C   UNL     1      39.150  10.059  19.475  0.00  0.00    +0.000 A 
ATOM     27  C   UNL     1      39.557   8.723  19.622  0.00  0.00    +0.000 A 
ATOM     28  C   UNL     1      40.832   8.177  20.069  0.00  0.00    +0.000 A 
ATOM     29  C   UNL     1      42.001   8.803  20.476  0.00  0.00    +0.000 A 
ATOM     30  C   UNL     1      43.099   8.060  20.850  0.00  0.00    +0.000 A 
ATOM     31  C   UNL     1      43.013   6.706  20.813  0.00  0.00    +0.000 A 
ATOM     32  C   UNL     1      41.848   6.100  20.409  0.00  0.00    +0.000 A 
ATOM     33  C   UNL     1      40.719   6.804  20.024  0.00  0.00    +0.000 A 
ENDBRANCH  20  21
ENDBRANCH  19  20
ENDBRANCH   2  19
TORSDOF 9
ENDMDL
MODEL 2
REMARK VINA RESULT:      -8.2      2.047     10.126
REMARK  Name = 
REMARK  9 active torsions:
REMARK  status: ('A' for Active; 'I' for Inactive)
REMARK    1  A    between atoms: C_2  and  O_5
REMARK    2  A    between atoms: O_5  and  C_6
REMARK    3  A    between atoms: C_9  and  C_10
REMARK    4  A    between atoms: C_10  and  CA_11
REMARK    5  A    between atoms: CA_11  and  C_12
REMARK    6  A    between atoms: CA_11  and  N_14
REMARK    7  A    between atoms: C_15  and  O_17
REMARK    8  A    between atoms: O_17  and  C_18
REMARK    9  A    between atoms: C_18  and  C_19
REMARK                            x       y       z     vdW  Elec       q    Type
REMARK                         _______ _______ _______ _____ _____    ______ ____
ROOT
ATOM      1  N   UNL     1      38.221   3.633  16.723  0.00  0.00    +0.000 NA
ATOM      2  C   UNL     1      37.220   3.063  15.952  0.00  0.00    +0.000 C 
ATOM      3  O   UNL     1      36.391   3.822  15.370  0.00  0.00    +0.000 OA
ENDROOT
BRANCH   1   4
ATOM      4  CA  UNL     1      38.311   5.195  16.866  0.00  0.00    +0.000 C 
BRANCH   4   5
ATOM      5  C   UNL     1      39.493   5.387  15.724  0.00  0.00    +0.000 C 
ATOM      6  O   UNL     1      39.164   6.596  15.116  0.00  0.00    +0.000 OA
ENDBRANCH   4   5
BRANCH   4   7
ATOM      7  C   UNL     1      39.384   5.160  18.124  0.00  0.00    +0.000 C 
BRANCH   7  11
ATOM      8  C   UNL     1      38.239   8.764  20.175  0.00  0.00    +0.000 A 
ATOM      9  C   UNL     1      39.268   7.973  20.656  0.00  0.00    +0.000 A 
ATOM     10  C   UNL     1      39.620   6.818  19.978  0.00  0.00    +0.000 A 
ATOM     11  C   UNL     1      38.966   6.432  18.828  0.00  0.00    +0.000 A 
ATOM     12  C   UNL     1      37.940   7.214  18.344  0.00  0.00    +0.000 A 
ATOM     13  C   UNL     1      37.588   8.370  19.022  0.00  0.00    +0.000 A 
BRANCH   8  14
ATOM     14  O   UNL     1      37.887   9.920  20.852  0.00  0.00    +0.000 OA
BRANCH  14  16
ATOM     15  C   UNL     1      37.617  11.799  19.377  0.00  0.00    +0.000 C 
ATOM     16  C   UNL     1      38.527  11.133  20.422  0.00  0.00    +0.000 C 
ATOM     17  C   UNL     1      39.894  10.859  19.839  0.00  0.00    +0.000 C 
ATOM     18  C   UNL     1      38.664  12.135  21.526  0.00  0.00    +0.000 C 
ENDBRANCH  14  16
ENDBRANCH   8  14
ENDBRANCH   7  11
ENDBRANCH   4   7
ENDBRANCH   1   4
BRANCH   2  19
ATOM     19  O   UNL     1      37.092   1.694  15.790  0.00  0.00    +0.000 OA
BRANCH  19  20
ATOM     20  C   UNL     1      35.805   1.197  15.452  0.00  0.00    +0.000 C 
BRANCH  20  21
ATOM     21  C   UNL     1      35.881  -0.312  15.552  0.00  0.00    +0.000 C 
ATOM     22  C   UNL     1      36.128  -0.637  16.972  0.00  0.00    +0.000 A 
ATOM     23  C   UNL     1      35.461  -0.421  18.156  0.00  0.00    +0.000 A 
ATOM     24  C   UNL     1      35.903  -0.835  19.396  0.00  0.00    +0.000 A 
ATOM     25  C   UNL     1      37.098  -1.514  19.464  0.00  0.00    +0.000 A 
ATOM     26  C   UNL     1      37.794  -1.748  18.299  0.00  0.00    +0.000 A 
ATOM     27  C   UNL     1      37.325  -1.317  17.048  0.00  0.00    +0.000 A 
ATOM     28  C   UNL     1      37.920  -1.460  15.725  0.00  0.00    +0.000 A 
ATOM     29  C   UNL     1      39.104  -2.056  15.317  0.00  0.00    +0.000 A 
ATOM     30  C   UNL     1      39.465  -2.057  13.987  0.00  0.00    +0.000 A 
ATOM     31  C   UNL     1      38.638  -1.465  13.088  0.00  0.00    +0.000 A 
ATOM     32  C   UNL     1      37.467  -0.880  13.507  0.00  0.00    +0.000 A 
ATOM     33  C   UNL     1      37.064  -0.855  14.832  0.00  0.00    +0.000 A 
ENDBRANCH  20  21
ENDBRANCH  19  20
ENDBRANCH   2  19
TORSDOF 9
ENDMDL
MODEL 3
REMARK VINA RESULT:      -8.1      2.161      9.217
REMARK  Name = 
REMARK  9 active torsions:
REMARK  status: ('A' for Active; 'I' for Inactive)
REMARK    1  A    between atoms: C_2  and  O_5
REMARK    2  A    between atoms: O_5  and  C_6
REMARK    3  A    between atoms: C_9  and  C_10
REMARK    4  A    between atoms: C_10  and  CA_11
REMARK    5  A    between atoms: CA_11  and  C_12
REMARK    6  A    between atoms: CA_11  and  N_14
REMARK    7  A    between atoms: C_15  and  O_17
REMARK    8  A    between atoms: O_17  and  C_18
REMARK    9  A    between atoms: C_18  and  C_19
REMARK                            x       y       z     vdW  Elec       q    Type
REMARK                         _______ _______ _______ _____ _____    ______ ____
ROOT
ATOM      1  N   UNL     1      36.515   2.740  14.623  0.00  0.00    +0.000 NA
ATOM      2  C   UNL     1      35.959   1.848  15.527  0.00  0.00    +0.000 C 
ATOM      3  O   UNL     1      35.686   2.254  16.694  0.00  0.00    +0.000 OA
ENDROOT
BRANCH   1   4
ATOM      4  CA  UNL     1      36.800   4.223  15.054  0.00  0.00    +0.000 C 
BRANCH   4   5
ATOM      5  C   UNL     1      36.328   4.896  13.617  0.00  0.00    +0.000 C 
ATOM      6  O   UNL     1      36.938   4.085  12.664  0.00  0.00    +0.000 OA
ENDBRANCH   4   5
BRANCH   4   7
ATOM      7  C   UNL     1      38.399   4.187  14.633  0.00  0.00    +0.000 C 
BRANCH   7  11
ATOM      8  C   UNL     1      40.125   5.949  18.158  0.00  0.00    +0.000 A 
ATOM      9  C   UNL     1      40.699   6.148  16.914  0.00  0.00    +0.000 A 
ATOM     10  C   UNL     1      40.125   5.572  15.793  0.00  0.00    +0.000 A 
ATOM     11  C   UNL     1      38.988   4.799  15.885  0.00  0.00    +0.000 A 
ATOM     12  C   UNL     1      38.412   4.596  17.120  0.00  0.00    +0.000 A 
ATOM     13  C   UNL     1      38.986   5.173  18.242  0.00  0.00    +0.000 A 
BRANCH   8  14
ATOM     14  O   UNL     1      40.698   6.526  19.280  0.00  0.00    +0.000 OA
BRANCH  14  16
ATOM     15  C   UNL     1      41.433   8.601  20.243  0.00  0.00    +0.000 C 
ATOM     16  C   UNL     1      40.247   7.846  19.622  0.00  0.00    +0.000 C 
ATOM     17  C   UNL     1      39.084   7.800  20.584  0.00  0.00    +0.000 C 
ATOM     18  C   UNL     1      39.849   8.649  18.422  0.00  0.00    +0.000 C 
ENDBRANCH  14  16
ENDBRANCH   8  14
ENDBRANCH   7  11
ENDBRANCH   4   7
ENDBRANCH   1   4
BRANCH   2  19
ATOM     19  O   UNL     1      35.685   0.531  15.203  0.00  0.00    +0.000 OA
BRANCH  19  20
ATOM     20  C   UNL     1      36.735  -0.226  14.616  0.00  0.00    +0.000 C 
BRANCH  20  21
ATOM     21  C   UNL     1      37.816  -0.357  15.668  0.00  0.00    +0.000 C 
ATOM     22  C   UNL     1      39.110  -0.153  14.982  0.00  0.00    +0.000 A 
ATOM     23  C   UNL     1      39.689   0.870  14.268  0.00  0.00    +0.000 A 
ATOM     24  C   UNL     1      40.949   0.826  13.709  0.00  0.00    +0.000 A 
ATOM     25  C   UNL     1      41.690  -0.322  13.872  0.00  0.00    +0.000 A 
ATOM     26  C   UNL     1      41.143  -1.368  14.581  0.00  0.00    +0.000 A 
ATOM     27  C   UNL     1      39.857  -1.300  15.141  0.00  0.00    +0.000 A 
ATOM     28  C   UNL     1      39.116  -2.296  15.904  0.00  0.00    +0.000 A 
ATOM     29  C   UNL     1      39.454  -3.583  16.298  0.00  0.00    +0.000 A 
ATOM     30  C   UNL     1      38.566  -4.350  17.018  0.00  0.00    +0.000 A 
ATOM     31  C   UNL     1      37.355  -3.822  17.334  0.00  0.00    +0.000 A 
ATOM     32  C   UNL     1      37.035  -2.547  16.938  0.00  0.00    +0.000 A 
ATOM     33  C   UNL     1      37.895  -1.738  16.213  0.00  0.00    +0.000 A 
ENDBRANCH  20  21
ENDBRANCH  19  20
ENDBRANCH   2  19
TORSDOF 9
ENDMDL
MODEL 4
REMARK VINA RESULT:      -7.9     24.817     28.066
REMARK  Name = 
REMARK  9 active torsions:
REMARK  status: ('A' for Active; 'I' for Inactive)
REMARK    1  A    between atoms: C_2  and  O_5
REMARK    2  A    between atoms: O_5  and  C_6
REMARK    3  A    between atoms: C_9  and  C_10
REMARK    4  A    between atoms: C_10  and  CA_11
REMARK    5  A    between atoms: CA_11  and  C_12
REMARK    6  A    between atoms: CA_11  and  N_14
REMARK    7  A    between atoms: C_15  and  O_17
REMARK    8  A    between atoms: O_17  and  C_18
REMARK    9  A    between atoms: C_18  and  C_19
REMARK                            x       y       z     vdW  Elec       q    Type
REMARK                         _______ _______ _______ _____ _____    ______ ____
ROOT
ATOM      1  N   UNL     1      12.561  -0.090  26.534  0.00  0.00    +0.000 NA
ATOM      2  C   UNL     1      11.715  -0.917  25.812  0.00  0.00    +0.000 C 
ATOM      3  O   UNL     1      11.944  -2.162  25.799  0.00  0.00    +0.000 OA
ENDROOT
BRANCH   1   4
ATOM      4  CA  UNL     1      13.781  -0.699  27.314  0.00  0.00    +0.000 C 
BRANCH   4   5
ATOM      5  C   UNL     1      13.093  -0.557  28.813  0.00  0.00    +0.000 C 
ATOM      6  O   UNL     1      14.082   0.069  29.566  0.00  0.00    +0.000 OA
ENDBRANCH   4   5
BRANCH   4   7
ATOM      7  C   UNL     1      14.599   0.732  27.437  0.00  0.00    +0.000 C 
BRANCH   7  11
ATOM      8  C   UNL     1      18.419  -0.471  25.865  0.00  0.00    +0.000 A 
ATOM      9  C   UNL     1      18.336   0.447  26.898  0.00  0.00    +0.000 A 
ATOM     10  C   UNL     1      17.096   0.818  27.389  0.00  0.00    +0.000 A 
ATOM     11  C   UNL     1      15.932   0.294  26.871  0.00  0.00    +0.000 A 
ATOM     12  C   UNL     1      16.006  -0.619  25.841  0.00  0.00    +0.000 A 
ATOM     13  C   UNL     1      17.248  -0.991  25.350  0.00  0.00    +0.000 A 
BRANCH   8  14
ATOM     14  O   UNL     1      19.660  -0.843  25.374  0.00  0.00    +0.000 OA
BRANCH  14  16
ATOM     15  C   UNL     1      20.249  -0.853  23.044  0.00  0.00    +0.000 C 
ATOM     16  C   UNL     1      20.209  -0.018  24.334  0.00  0.00    +0.000 C 
ATOM     17  C   UNL     1      21.592   0.473  24.692  0.00  0.00    +0.000 C 
ATOM     18  C   UNL     1      19.345   1.163  24.016  0.00  0.00    +0.000 C 
ENDBRANCH  14  16
ENDBRANCH   8  14
ENDBRANCH   7  11
ENDBRANCH   4   7
ENDBRANCH   1   4
BRANCH   2  19
ATOM     19  O   UNL     1      10.626  -0.437  25.106  0.00  0.00    +0.000 OA
BRANCH  19  20
ATOM     20  C   UNL     1       9.509   0.012  25.861  0.00  0.00    +0.000 C 
BRANCH  20  21
ATOM     21  C   UNL     1       9.265   1.452  25.462  0.00  0.00    +0.000 C 
ATOM     22  C   UNL     1       9.515   2.278  26.663  0.00  0.00    +0.000 A 
ATOM     23  C   UNL     1      10.594   2.508  27.484  0.00  0.00    +0.000 A 
ATOM     24  C   UNL     1      10.586   3.351  28.577  0.00  0.00    +0.000 A 
ATOM     25  C   UNL     1       9.418   4.015  28.874  0.00  0.00    +0.000 A 
ATOM     26  C   UNL     1       8.317   3.810  28.073  0.00  0.00    +0.000 A 
ATOM     27  C   UNL     1       8.348   2.946  26.967  0.00  0.00    +0.000 A 
ATOM     28  C   UNL     1       7.295   2.597  26.022  0.00  0.00    +0.000 A 
ATOM     29  C   UNL     1       5.972   3.008  25.936  0.00  0.00    +0.000 A 
ATOM     30  C   UNL     1       5.152   2.523  24.942  0.00  0.00    +0.000 A 
ATOM     31  C   UNL     1       5.663   1.637  24.050  0.00  0.00    +0.000 A 
ATOM     32  C   UNL     1       6.975   1.240  24.147  0.00  0.00    +0.000 A 
ATOM     33  C   UNL     1       7.837   1.700  25.128  0.00  0.00    +0.000 A 
ENDBRANCH  20  21
ENDBRANCH  19  20
ENDBRANCH   2  19
TORSDOF 9
ENDMDL
MODEL 5
REMARK VINA RESULT:      -7.8      1.347      3.038
REMARK  Name = 
REMARK  9 active torsions:
REMARK  status: ('A' for Active; 'I' for Inactive)
REMARK    1  A    between atoms: C_2  and  O_5
REMARK    2  A    between atoms: O_5  and  C_6
REMARK    3  A    between atoms: C_9  and  C_10
REMARK    4  A    between atoms: C_10  and  CA_11
REMARK    5  A    between atoms: CA_11  and  C_12
REMARK    6  A    between atoms: CA_11  and  N_14
REMARK    7  A    between atoms: C_15  and  O_17
REMARK    8  A    between atoms: O_17  and  C_18
REMARK    9  A    between atoms: C_18  and  C_19
REMARK                            x       y       z     vdW  Elec       q    Type
REMARK                         _______ _______ _______ _____ _____    ______ ____
ROOT
ATOM      1  N   UNL     1      36.985   4.660  15.196  0.00  0.00    +0.000 NA
ATOM      2  C   UNL     1      37.951   4.447  16.168  0.00  0.00    +0.000 C 
ATOM      3  O   UNL     1      38.614   3.369  16.143  0.00  0.00    +0.000 OA
ENDROOT
BRANCH   1   4
ATOM      4  CA  UNL     1      36.726   3.573  14.092  0.00  0.00    +0.000 C 
BRANCH   4   5
ATOM      5  C   UNL     1      36.191   4.641  12.947  0.00  0.00    +0.000 C 
ATOM      6  O   UNL     1      35.122   5.279  13.572  0.00  0.00    +0.000 OA
ENDBRANCH   4   5
BRANCH   4   7
ATOM      7  C   UNL     1      35.201   3.203  14.613  0.00  0.00    +0.000 C 
BRANCH   7  11
ATOM      8  C   UNL     1      35.993  -0.729  16.168  0.00  0.00    +0.000 A 
ATOM      9  C   UNL     1      36.434  -0.365  14.907  0.00  0.00    +0.000 A 
ATOM     10  C   UNL     1      36.169   0.907  14.428  0.00  0.00    +0.000 A 
ATOM     11  C   UNL     1      35.470   1.826  15.180  0.00  0.00    +0.000 A 
ATOM     12  C   UNL     1      35.027   1.471  16.435  0.00  0.00    +0.000 A 
ATOM     13  C   UNL     1      35.292   0.198  16.914  0.00  0.00    +0.000 A 
BRANCH   8  14
ATOM     14  O   UNL     1      36.258  -2.001  16.648  0.00  0.00    +0.000 OA
BRANCH  14  16
ATOM     15  C   UNL     1      37.824  -3.706  17.293  0.00  0.00    +0.000 C 
ATOM     16  C   UNL     1      37.539  -2.195  17.269  0.00  0.00    +0.000 C 
ATOM     17  C   UNL     1      37.565  -1.628  18.669  0.00  0.00    +0.000 C 
ATOM     18  C   UNL     1      38.660  -1.592  16.482  0.00  0.00    +0.000 C 
ENDBRANCH  14  16
ENDBRANCH   8  14
ENDBRANCH   7  11
ENDBRANCH   4   7
ENDBRANCH   1   4
BRANCH   2  19
ATOM     19  O   UNL     1      38.223   5.368  17.164  0.00  0.00    +0.000 OA
BRANCH  19  20
ATOM     20  C   UNL     1      39.564   5.453  17.623  0.00  0.00    +0.000 C 
BRANCH  20  21
ATOM     21  C   UNL     1      39.914   6.925  17.676  0.00  0.00    +0.000 C 
ATOM     22  C   UNL     1      41.250   7.027  18.302  0.00  0.00    +0.000 A 
ATOM     23  C   UNL     1      42.509   6.563  18.001  0.00  0.00    +0.000 A 
ATOM     24  C   UNL     1      43.637   6.798  18.760  0.00  0.00    +0.000 A 
ATOM     25  C   UNL     1      43.503   7.551  19.904  0.00  0.00    +0.000 A 
ATOM     26  C   UNL     1      42.256   8.033  20.237  0.00  0.00    +0.000 A 
ATOM     27  C   UNL     1      41.122   7.780  19.449  0.00  0.00    +0.000 A 
ATOM     28  C   UNL     1      39.737   8.191  19.644  0.00  0.00    +0.000 A 
ATOM     29  C   UNL     1      39.140   8.941  20.646  0.00  0.00    +0.000 A 
ATOM     30  C   UNL     1      37.786   9.194  20.619  0.00  0.00    +0.000 A 
ATOM     31  C   UNL     1      37.051   8.695  19.592  0.00  0.00    +0.000 A 
ATOM     32  C   UNL     1      37.657   7.955  18.606  0.00  0.00    +0.000 A 
ATOM     33  C   UNL     1      39.013   7.675  18.591  0.00  0.00    +0.000 A 
ENDBRANCH  20  21
ENDBRANCH  19  20
ENDBRANCH   2  19
TORSDOF 9
ENDMDL
MODEL 6
REMARK VINA RESULT:      -7.7     23.639     26.732
REMARK  Name = 
REMARK  9 active torsions:
REMARK  status: ('A' for Active; 'I' for Inactive)
REMARK    1  A    between atoms: C_2  and  O_5
REMARK    2  A    between atoms: O_5  and  C_6
REMARK    3  A    between atoms: C_9  and  C_10
REMARK    4  A    between atoms: C_10  and  CA_11
REMARK    5  A    between atoms: CA_11  and  C_12
REMARK    6  A    between atoms: CA_11  and  N_14
REMARK    7  A    between atoms: C_15  and  O_17
REMARK    8  A    between atoms: O_17  and  C_18
REMARK    9  A    between atoms: C_18  and  C_19
REMARK                            x       y       z     vdW  Elec       q    Type
REMARK                         _______ _______ _______ _____ _____    ______ ____
ROOT
ATOM      1  N   UNL     1      25.382  16.324  39.196  0.00  0.00    +0.000 NA
ATOM      2  C   UNL     1      26.316  16.379  38.173  0.00  0.00    +0.000 C 
ATOM      3  O   UNL     1      26.838  15.301  37.765  0.00  0.00    +0.000 OA
ENDROOT
BRANCH   1   4
ATOM      4  CA  UNL     1      24.992  14.941  39.832  0.00  0.00    +0.000 C 
BRANCH   4   5
ATOM      5  C   UNL     1      23.669  15.514  40.645  0.00  0.00    +0.000 C 
ATOM      6  O   UNL     1      22.617  14.765  40.122  0.00  0.00    +0.000 OA
ENDBRANCH   4   5
BRANCH   4   7
ATOM      7  C   UNL     1      25.994  15.098  41.137  0.00  0.00    +0.000 C 
BRANCH   7  11
ATOM      8  C   UNL     1      28.334  11.521  40.653  0.00  0.00    +0.000 A 
ATOM      9  C   UNL     1      28.906  12.769  40.477  0.00  0.00    +0.000 A 
ATOM     10  C   UNL     1      28.133  13.907  40.639  0.00  0.00    +0.000 A 
ATOM     11  C   UNL     1      26.799  13.828  40.973  0.00  0.00    +0.000 A 
ATOM     12  C   UNL     1      26.223  12.589  41.149  0.00  0.00    +0.000 A 
ATOM     13  C   UNL     1      26.996  11.450  40.987  0.00  0.00    +0.000 A 
BRANCH   8  14
ATOM     14  O   UNL     1      29.106  10.382  40.491  0.00  0.00    +0.000 OA
BRANCH  14  16
ATOM     15  C   UNL     1      31.325  10.295  41.410  0.00  0.00    +0.000 C 
ATOM     16  C   UNL     1      29.847   9.943  41.641  0.00  0.00    +0.000 C 
ATOM     17  C   UNL     1      29.683   8.459  41.870  0.00  0.00    +0.000 C 
ATOM     18  C   UNL     1      29.457  10.670  42.891  0.00  0.00    +0.000 C 
ENDBRANCH  14  16
ENDBRANCH   8  14
ENDBRANCH   7  11
ENDBRANCH   4   7
ENDBRANCH   1   4
BRANCH   2  19
ATOM     19  O   UNL     1      26.698  17.568  37.575  0.00  0.00    +0.000 OA
BRANCH  19  20
ATOM     20  C   UNL     1      26.726  17.602  36.155  0.00  0.00    +0.000 C 
BRANCH  20  21
ATOM     21  C   UNL     1      25.307  17.359  35.686  0.00  0.00    +0.000 C 
ATOM     22  C   UNL     1      25.372  16.308  34.648  0.00  0.00    +0.000 A 
ATOM     23  C   UNL     1      25.791  14.999  34.606  0.00  0.00    +0.000 A 
ATOM     24  C   UNL     1      25.749  14.194  33.487  0.00  0.00    +0.000 A 
ATOM     25  C   UNL     1      25.251  14.731  32.321  0.00  0.00    +0.000 A 
ATOM     26  C   UNL     1      24.821  16.039  32.325  0.00  0.00    +0.000 A 
ATOM     27  C   UNL     1      24.875  16.840  33.477  0.00  0.00    +0.000 A 
ATOM     28  C   UNL     1      24.482  18.230  33.669  0.00  0.00    +0.000 A 
ATOM     29  C   UNL     1      23.946  19.158  32.787  0.00  0.00    +0.000 A 
ATOM     30  C   UNL     1      23.661  20.439  33.207  0.00  0.00    +0.000 A 
ATOM     31  C   UNL     1      23.914  20.772  34.498  0.00  0.00    +0.000 A 
ATOM     32  C   UNL     1      24.444  19.843  35.360  0.00  0.00    +0.000 A 
ATOM     33  C   UNL     1      24.746  18.545  34.984  0.00  0.00    +0.000 A 
ENDBRANCH  20  21
ENDBRANCH  19  20
ENDBRANCH   2  19
TORSDOF 9
ENDMDL
MODEL 7
REMARK VINA RESULT:      -7.6      3.201      5.806
REMARK  Name = 
REMARK  9 active torsions:
REMARK  status: ('A' for Active; 'I' for Inactive)
REMARK    1  A    between atoms: C_2  and  O_5
REMARK    2  A    between atoms: O_5  and  C_6
REMARK    3  A    between atoms: C_9  and  C_10
REMARK    4  A    between atoms: C_10  and  CA_11
REMARK    5  A    between atoms: CA_11  and  C_12
REMARK    6  A    between atoms: CA_11  and  N_14
REMARK    7  A    between atoms: C_15  and  O_17
REMARK    8  A    between atoms: O_17  and  C_18
REMARK    9  A    between atoms: C_18  and  C_19
REMARK                            x       y       z     vdW  Elec       q    Type
REMARK                         _______ _______ _______ _____ _____    ______ ____
ROOT
ATOM      1  N   UNL     1      36.755   0.176  16.936  0.00  0.00    +0.000 NA
ATOM      2  C   UNL     1      36.172   1.236  16.260  0.00  0.00    +0.000 C 
ATOM      3  O   UNL     1      35.730   1.044  15.090  0.00  0.00    +0.000 OA
ENDROOT
BRANCH   1   4
ATOM      4  CA  UNL     1      36.862  -1.233  16.250  0.00  0.00    +0.000 C 
BRANCH   4   5
ATOM      5  C   UNL     1      35.889  -2.011  17.341  0.00  0.00    +0.000 C 
ATOM      6  O   UNL     1      34.788  -2.392  16.580  0.00  0.00    +0.000 OA
ENDBRANCH   4   5
BRANCH   4   7
ATOM      7  C   UNL     1      38.257  -1.663  17.027  0.00  0.00    +0.000 C 
BRANCH   7  11
ATOM      8  C   UNL     1      40.979  -1.604  13.696  0.00  0.00    +0.000 A 
ATOM      9  C   UNL     1      40.848  -2.736  14.483  0.00  0.00    +0.000 A 
ATOM     10  C   UNL     1      39.964  -2.732  15.549  0.00  0.00    +0.000 A 
ATOM     11  C   UNL     1      39.207  -1.622  15.850  0.00  0.00    +0.000 A 
ATOM     12  C   UNL     1      39.333  -0.491  15.072  0.00  0.00    +0.000 A 
ATOM     13  C   UNL     1      40.217  -0.495  14.005  0.00  0.00    +0.000 A 
BRANCH   8  14
ATOM     14  O   UNL     1      41.863  -1.608  12.629  0.00  0.00    +0.000 OA
BRANCH  14  16
ATOM     15  C   UNL     1      39.866  -2.069  11.374  0.00  0.00    +0.000 C 
ATOM     16  C   UNL     1      41.396  -2.216  11.415  0.00  0.00    +0.000 C 
ATOM     17  C   UNL     1      41.791  -3.672  11.340  0.00  0.00    +0.000 C 
ATOM     18  C   UNL     1      41.895  -1.517  10.189  0.00  0.00    +0.000 C 
ENDBRANCH  14  16
ENDBRANCH   8  14
ENDBRANCH   7  11
ENDBRANCH   4   7
ENDBRANCH   1   4
BRANCH   2  19
ATOM     19  O   UNL     1      36.051   2.499  16.814  0.00  0.00    +0.000 OA
BRANCH  19  20
ATOM     20  C   UNL     1      36.654   3.577  16.113  0.00  0.00    +0.000 C 
BRANCH  20  21
ATOM     21  C   UNL     1      38.149   3.336  16.148  0.00  0.00    +0.000 C 
ATOM     22  C   UNL     1      38.735   4.395  16.997  0.00  0.00    +0.000 A 
ATOM     23  C   UNL     1      38.594   4.788  18.307  0.00  0.00    +0.000 A 
ATOM     24  C   UNL     1      39.273   5.838  18.892  0.00  0.00    +0.000 A 
ATOM     25  C   UNL     1      40.157   6.550  18.114  0.00  0.00    +0.000 A 
ATOM     26  C   UNL     1      40.324   6.185  16.797  0.00  0.00    +0.000 A 
ATOM     27  C   UNL     1      39.622   5.113  16.224  0.00  0.00    +0.000 A 
ATOM     28  C   UNL     1      39.657   4.593  14.863  0.00  0.00    +0.000 A 
ATOM     29  C   UNL     1      40.383   4.993  13.751  0.00  0.00    +0.000 A 
ATOM     30  C   UNL     1      40.237   4.339  12.547  0.00  0.00    +0.000 A 
ATOM     31  C   UNL     1      39.371   3.297  12.473  0.00  0.00    +0.000 A 
ATOM     32  C   UNL     1      38.660   2.910  13.584  0.00  0.00    +0.000 A 
ATOM     33  C   UNL     1      38.774   3.537  14.814  0.00  0.00    +0.000 A 
ENDBRANCH  20  21
ENDBRANCH  19  20
ENDBRANCH   2  19
TORSDOF 9
ENDMDL
MODEL 8
REMARK VINA RESULT:      -7.6      2.051      9.673
REMARK  Name = 
REMARK  9 active torsions:
REMARK  status: ('A' for Active; 'I' for Inactive)
REMARK    1  A    between atoms: C_2  and  O_5
REMARK    2  A    between atoms: O_5  and  C_6
REMARK    3  A    between atoms: C_9  and  C_10
REMARK    4  A    between atoms: C_10  and  CA_11
REMARK    5  A    between atoms: CA_11  and  C_12
REMARK    6  A    between atoms: CA_11  and  N_14
REMARK    7  A    between atoms: C_15  and  O_17
REMARK    8  A    between atoms: O_17  and  C_18
REMARK    9  A    between atoms: C_18  and  C_19
REMARK                            x       y       z     vdW  Elec       q    Type
REMARK                         _______ _______ _______ _____ _____    ______ ____
ROOT
ATOM      1  N   UNL     1      38.028   3.459  14.882  0.00  0.00    +0.000 NA
ATOM      2  C   UNL     1      37.566   2.455  15.719  0.00  0.00    +0.000 C 
ATOM      3  O   UNL     1      37.182   2.762  16.885  0.00  0.00    +0.000 OA
ENDROOT
BRANCH   1   4
ATOM      4  CA  UNL     1      38.071   4.946  15.386  0.00  0.00    +0.000 C 
BRANCH   4   5
ATOM      5  C   UNL     1      37.994   5.622  13.877  0.00  0.00    +0.000 C 
ATOM      6  O   UNL     1      38.463   4.610  13.044  0.00  0.00    +0.000 OA
ENDBRANCH   4   5
BRANCH   4   7
ATOM      7  C   UNL     1      39.721   5.025  15.453  0.00  0.00    +0.000 C 
BRANCH   7  11
ATOM      8  C   UNL     1      40.082   7.228  19.131  0.00  0.00    +0.000 A 
ATOM      9  C   UNL     1      38.907   6.568  18.814  0.00  0.00    +0.000 A 
ATOM     10  C   UNL     1      38.814   5.864  17.625  0.00  0.00    +0.000 A 
ATOM     11  C   UNL     1      39.870   5.804  16.742  0.00  0.00    +0.000 A 
ATOM     12  C   UNL     1      41.042   6.458  17.050  0.00  0.00    +0.000 A 
ATOM     13  C   UNL     1      41.135   7.163  18.240  0.00  0.00    +0.000 A 
BRANCH   8  14
ATOM     14  O   UNL     1      40.176   7.932  20.320  0.00  0.00    +0.000 OA
BRANCH  14  16
ATOM     15  C   UNL     1      40.959  10.136  20.871  0.00  0.00    +0.000 C 
ATOM     16  C   UNL     1      39.802   9.318  20.273  0.00  0.00    +0.000 C 
ATOM     17  C   UNL     1      38.523   9.572  21.036  0.00  0.00    +0.000 C 
ATOM     18  C   UNL     1      39.640   9.825  18.874  0.00  0.00    +0.000 C 
ENDBRANCH  14  16
ENDBRANCH   8  14
ENDBRANCH   7  11
ENDBRANCH   4   7
ENDBRANCH   1   4
BRANCH   2  19
ATOM     19  O   UNL     1      37.506   1.128  15.330  0.00  0.00    +0.000 OA
BRANCH  19  20
ATOM     20  C   UNL     1      36.218   0.577  15.094  0.00  0.00    +0.000 C 
BRANCH  20  21
ATOM     21  C   UNL     1      36.306  -0.896  15.430  0.00  0.00    +0.000 C 
ATOM     22  C   UNL     1      36.435  -0.995  16.899  0.00  0.00    +0.000 A 
ATOM     23  C   UNL     1      35.667  -0.621  17.976  0.00  0.00    +0.000 A 
ATOM     24  C   UNL     1      36.007  -0.830  19.297  0.00  0.00    +0.000 A 
ATOM     25  C   UNL     1      37.201  -1.458  19.567  0.00  0.00    +0.000 A 
ATOM     26  C   UNL     1      37.997  -1.848  18.513  0.00  0.00    +0.000 A 
ATOM     27  C   UNL     1      37.631  -1.624  17.177  0.00  0.00    +0.000 A 
ATOM     28  C   UNL     1      38.339  -1.950  15.945  0.00  0.00    +0.000 A 
ATOM     29  C   UNL     1      39.562  -2.569  15.732  0.00  0.00    +0.000 A 
ATOM     30  C   UNL     1      40.034  -2.762  14.452  0.00  0.00    +0.000 A 
ATOM     31  C   UNL     1      39.279  -2.336  13.408  0.00  0.00    +0.000 A 
ATOM     32  C   UNL     1      38.069  -1.726  13.635  0.00  0.00    +0.000 A 
ATOM     33  C   UNL     1      37.554  -1.510  14.902  0.00  0.00    +0.000 A 
ENDBRANCH  20  21
ENDBRANCH  19  20
ENDBRANCH   2  19
TORSDOF 9
ENDMDL
MODEL 9
REMARK VINA RESULT:      -7.5      4.636      8.671
REMARK  Name = 
REMARK  9 active torsions:
REMARK  status: ('A' for Active; 'I' for Inactive)
REMARK    1  A    between atoms: C_2  and  O_5
REMARK    2  A    between atoms: O_5  and  C_6
REMARK    3  A    between atoms: C_9  and  C_10
REMARK    4  A    between atoms: C_10  and  CA_11
REMARK    5  A    between atoms: CA_11  and  C_12
REMARK    6  A    between atoms: CA_11  and  N_14
REMARK    7  A    between atoms: C_15  and  O_17
REMARK    8  A    between atoms: O_17  and  C_18
REMARK    9  A    between atoms: C_18  and  C_19
REMARK                            x       y       z     vdW  Elec       q    Type
REMARK                         _______ _______ _______ _____ _____    ______ ____
ROOT
ATOM      1  N   UNL     1      36.338  -0.704  16.483  0.00  0.00    +0.000 NA
ATOM      2  C   UNL     1      37.507  -1.448  16.448  0.00  0.00    +0.000 C 
ATOM      3  O   UNL     1      38.386  -1.244  17.336  0.00  0.00    +0.000 OA
ENDROOT
BRANCH   1   4
ATOM      4  CA  UNL     1      36.123   0.372  17.607  0.00  0.00    +0.000 C 
BRANCH   4   5
ATOM      5  C   UNL     1      35.123  -0.568  18.531  0.00  0.00    +0.000 C 
ATOM      6  O   UNL     1      35.914  -0.905  19.626  0.00  0.00    +0.000 OA
ENDBRANCH   4   5
BRANCH   4   7
ATOM      7  C   UNL     1      34.872   1.132  16.837  0.00  0.00    +0.000 C 
BRANCH   7  11
ATOM      8  C   UNL     1      37.071   4.136  14.681  0.00  0.00    +0.000 A 
ATOM      9  C   UNL     1      36.049   3.431  14.068  0.00  0.00    +0.000 A 
ATOM     10  C   UNL     1      35.353   2.470  14.783  0.00  0.00    +0.000 A 
ATOM     11  C   UNL     1      35.657   2.193  16.098  0.00  0.00    +0.000 A 
ATOM     12  C   UNL     1      36.673   2.890  16.714  0.00  0.00    +0.000 A 
ATOM     13  C   UNL     1      37.369   3.852  15.999  0.00  0.00    +0.000 A 
BRANCH   8  14
ATOM     14  O   UNL     1      37.766   5.098  13.967  0.00  0.00    +0.000 OA
BRANCH  14  16
ATOM     15  C   UNL     1      40.048   5.652  13.458  0.00  0.00    +0.000 C 
ATOM     16  C   UNL     1      38.911   4.643  13.229  0.00  0.00    +0.000 C 
ATOM     17  C   UNL     1      38.603   4.515  11.755  0.00  0.00    +0.000 C 
ATOM     18  C   UNL     1      39.437   3.333  13.728  0.00  0.00    +0.000 C 
ENDBRANCH  14  16
ENDBRANCH   8  14
ENDBRANCH   7  11
ENDBRANCH   4   7
ENDBRANCH   1   4
BRANCH   2  19
ATOM     19  O   UNL     1      37.752  -2.409  15.482  0.00  0.00    +0.000 OA
BRANCH  19  20
ATOM     20  C   UNL     1      37.733  -1.987  14.126  0.00  0.00    +0.000 C 
BRANCH  20  21
ATOM     21  C   UNL     1      38.591  -0.741  14.046  0.00  0.00    +0.000 C 
ATOM     22  C   UNL     1      38.248  -0.064  12.778  0.00  0.00    +0.000 A 
ATOM     23  C   UNL     1      37.106   0.480  12.237  0.00  0.00    +0.000 A 
ATOM     24  C   UNL     1      37.031   1.080  10.997  0.00  0.00    +0.000 A 
ATOM     25  C   UNL     1      38.177   1.143  10.237  0.00  0.00    +0.000 A 
ATOM     26  C   UNL     1      39.339   0.609  10.747  0.00  0.00    +0.000 A 
ATOM     27  C   UNL     1      39.392   0.003  12.012  0.00  0.00    +0.000 A 
ATOM     28  C   UNL     1      40.512  -0.619  12.705  0.00  0.00    +0.000 A 
ATOM     29  C   UNL     1      41.836  -0.793  12.329  0.00  0.00    +0.000 A 
ATOM     30  C   UNL     1      42.724  -1.434  13.166  0.00  0.00    +0.000 A 
ATOM     31  C   UNL     1      42.276  -1.889  14.364  0.00  0.00    +0.000 A 
ATOM     32  C   UNL     1      40.962  -1.708  14.724  0.00  0.00    +0.000 A 
ATOM     33  C   UNL     1      40.035  -1.071  13.917  0.00  0.00    +0.000 A 
ENDBRANCH  20  21
ENDBRANCH  19  20
ENDBRANCH   2  19
TORSDOF 9
ENDMDL
MODEL 10
REMARK VINA RESULT:      -7.5      6.197      9.638
REMARK  Name = 
REMARK  9 active torsions:
REMARK  status: ('A' for Active; 'I' for Inactive)
REMARK    1  A    between atoms: C_2  and  O_5
REMARK    2  A    between atoms: O_5  and  C_6
REMARK    3  A    between atoms: C_9  and  C_10
REMARK    4  A    between atoms: C_10  and  CA_11
REMARK    5  A    between atoms: CA_11  and  C_12
REMARK    6  A    between atoms: CA_11  and  N_14
REMARK    7  A    between atoms: C_15  and  O_17
REMARK    8  A    between atoms: O_17  and  C_18
REMARK    9  A    between atoms: C_18  and  C_19
REMARK                            x       y       z     vdW  Elec       q    Type
REMARK                         _______ _______ _______ _____ _____    ______ ____
ROOT
ATOM      1  N   UNL     1      39.951  -2.073  11.893  0.00  0.00    +0.000 NA
ATOM      2  C   UNL     1      39.356  -0.841  12.118  0.00  0.00    +0.000 C 
ATOM      3  O   UNL     1      40.082   0.196  12.117  0.00  0.00    +0.000 OA
ENDROOT
BRANCH   1   4
ATOM      4  CA  UNL     1      41.500  -2.166  11.646  0.00  0.00    +0.000 C 
BRANCH   4   5
ATOM      5  C   UNL     1      41.435  -3.580  10.788  0.00  0.00    +0.000 C 
ATOM      6  O   UNL     1      40.618  -3.265   9.706  0.00  0.00    +0.000 OA
ENDBRANCH   4   5
BRANCH   4   7
ATOM      7  C   UNL     1      41.825  -2.926  13.078  0.00  0.00    +0.000 C 
BRANCH   7  11
ATOM      8  C   UNL     1      45.014  -0.396  14.470  0.00  0.00    +0.000 A 
ATOM      9  C   UNL     1      43.693  -0.077  14.731  0.00  0.00    +0.000 A 
ATOM     10  C   UNL     1      42.683  -0.908  14.274  0.00  0.00    +0.000 A 
ATOM     11  C   UNL     1      42.962  -2.052  13.560  0.00  0.00    +0.000 A 
ATOM     12  C   UNL     1      44.275  -2.376  13.295  0.00  0.00    +0.000 A 
ATOM     13  C   UNL     1      45.285  -1.545  13.753  0.00  0.00    +0.000 A 
BRANCH   8  14
ATOM     14  O   UNL     1      46.025   0.433  14.927  0.00  0.00    +0.000 OA
BRANCH  14  16
ATOM     15  C   UNL     1      47.430   1.301  16.673  0.00  0.00    +0.000 C 
ATOM     16  C   UNL     1      46.603   0.095  16.198  0.00  0.00    +0.000 C 
ATOM     17  C   UNL     1      47.471  -1.138  16.100  0.00  0.00    +0.000 C 
ATOM     18  C   UNL     1      45.573  -0.123  17.262  0.00  0.00    +0.000 C 
ENDBRANCH  14  16
ENDBRANCH   8  14
ENDBRANCH   7  11
ENDBRANCH   4   7
ENDBRANCH   1   4
BRANCH   2  19
ATOM     19  O   UNL     1      37.998  -0.699  12.340  0.00  0.00    +0.000 OA
BRANCH  19  20
ATOM     20  C   UNL     1      37.460  -1.320  13.500  0.00  0.00    +0.000 C 
BRANCH  20  21
ATOM     21  C   UNL     1      37.923  -0.501  14.686  0.00  0.00    +0.000 C 
ATOM     22  C   UNL     1      38.211  -1.453  15.779  0.00  0.00    +0.000 A 
ATOM     23  C   UNL     1      39.074  -2.510  15.954  0.00  0.00    +0.000 A 
ATOM     24  C   UNL     1      39.165  -3.271  17.102  0.00  0.00    +0.000 A 
ATOM     25  C   UNL     1      38.336  -2.956  18.155  0.00  0.00    +0.000 A 
ATOM     26  C   UNL     1      37.460  -1.903  18.016  0.00  0.00    +0.000 A 
ATOM     27  C   UNL     1      37.384  -1.144  16.838  0.00  0.00    +0.000 A 
ATOM     28  C   UNL     1      36.523  -0.016  16.505  0.00  0.00    +0.000 A 
ATOM     29  C   UNL     1      35.542   0.632  17.241  0.00  0.00    +0.000 A 
ATOM     30  C   UNL     1      34.842   1.687  16.699  0.00  0.00    +0.000 A 
ATOM     31  C   UNL     1      35.134   2.080  15.433  0.00  0.00    +0.000 A 
ATOM     32  C   UNL     1      36.109   1.430  14.716  0.00  0.00    +0.000 A 
ATOM     33  C   UNL     1      36.838   0.365  15.219  0.00  0.00    +0.000 A 
ENDBRANCH  20  21
ENDBRANCH  19  20
ENDBRANCH   2  19
TORSDOF 9
ENDMDL
