MODEL 1
REMARK VINA RESULT:      -7.3      0.000      0.000
REMARK  Name = 
REMARK  11 active torsions:
REMARK  status: ('A' for Active; 'I' for Inactive)
REMARK    1  A    between atoms: C_2  and  C_3
REMARK    2  A    between atoms: C_3  and  C_4
REMARK    3  A    between atoms: C_4  and  C_5
REMARK    4  A    between atoms: C_5  and  C_6
REMARK    5  A    between atoms: C_6  and  C_7
REMARK    6  A    between atoms: C_8  and  C_9
REMARK    7  A    between atoms: N_11  and  C_12
REMARK    8  A    between atoms: C_12  and  C_13
REMARK    9  A    between atoms: C_13  and  O_14
REMARK   10  A    between atoms: O_14  and  C_15
REMARK   11  A    between atoms: C_21  and  C_22
REMARK                            x       y       z     vdW  Elec       q    Type
REMARK                         _______ _______ _______ _____ _____    ______ ____
ROOT
ATOM      1  C   UNL     1      39.715  -0.597  13.665  0.00  0.00    +0.000 C 
ATOM      2  C   UNL     1      38.655  -0.045  14.061  0.00  0.00    +0.000 C 
ATOM      3  C   UNL     1      37.410  -1.051  13.861  0.00  0.00    +0.000 C 
ATOM      4  O   UNL     1      38.177  -1.979  12.896  0.00  0.00    +0.000 OA
ATOM      5  N   UNL     1      39.381  -1.857  13.262  0.00  0.00    +0.000 NA
ENDROOT
BRANCH   3   6
ATOM      6  C   UNL     1      37.711  -1.953  15.190  0.00  0.00    +0.000 A 
ATOM      7  C   UNL     1      38.655  -1.555  16.044  0.00  0.00    +0.000 A 
ATOM      8  C   UNL     1      38.876  -2.344  17.157  0.00  0.00    +0.000 A 
ATOM      9  C   UNL     1      38.120  -3.507  17.349  0.00  0.00    +0.000 A 
ATOM     10  C   UNL     1      37.163  -3.855  16.429  0.00  0.00    +0.000 A 
ATOM     11  C   UNL     1      36.420  -4.992  16.612  0.00  0.00    +0.000 A 
ATOM     12  C   UNL     1      35.458  -5.366  15.711  0.00  0.00    +0.000 A 
ATOM     13  C   UNL     1      35.244  -4.585  14.615  0.00  0.00    +0.000 A 
ATOM     14  C   UNL     1      35.969  -3.438  14.395  0.00  0.00    +0.000 A 
ATOM     15  C   UNL     1      36.926  -3.070  15.298  0.00  0.00    +0.000 A 
ENDBRANCH   3   6
BRANCH   2  16
ATOM     16  C   UNL     1      38.336   1.257  14.615  0.00  0.00    +0.000 C 
ATOM     17  O   UNL     1      39.142   1.865  15.316  0.00  0.00    +0.000 OA
ATOM     18  N   UNL     1      37.075   1.872  14.362  0.00  0.00    +0.000 NA
BRANCH  18  19
ATOM     19  C   UNL     1      36.810   3.172  14.940  0.00  0.00    +0.000 C 
BRANCH  19  20
ATOM     20  C   UNL     1      35.738   3.049  15.968  0.00  0.00    +0.000 C 
BRANCH  20  21
ATOM     21  O   UNL     1      36.227   2.363  17.078  0.00  0.00    +0.000 OA
BRANCH  21  22
ATOM     22  C   UNL     1      35.859   1.093  17.454  0.00  0.00    +0.000 A 
ATOM     23  C   UNL     1      36.357   0.550  18.612  0.00  0.00    +0.000 A 
ATOM     24  C   UNL     1      35.983  -0.725  18.986  0.00  0.00    +0.000 A 
ATOM     25  C   UNL     1      35.112  -1.405  18.164  0.00  0.00    +0.000 A 
ATOM     26  C   UNL     1      34.618  -0.857  17.009  0.00  0.00    +0.000 A 
ATOM     27  C   UNL     1      34.979   0.419  16.616  0.00  0.00    +0.000 A 
ENDBRANCH  21  22
ENDBRANCH  20  21
ENDBRANCH  19  20
ENDBRANCH  18  19
ENDBRANCH   2  16
BRANCH   1  28
ATOM     28  C   UNL     1      41.059   0.037  13.671  0.00  0.00    +0.000 C 
BRANCH  28  29
ATOM     29  C   UNL     1      42.088  -0.850  14.312  0.00  0.00    +0.000 C 
BRANCH  29  30
ATOM     30  C   UNL     1      43.392  -0.094  14.322  0.00  0.00    +0.000 C 
BRANCH  30  31
ATOM     31  C   UNL     1      44.415  -1.012  14.988  0.00  0.00    +0.000 C 
BRANCH  31  33
ATOM     32  C   UNL     1      45.507  -0.160  17.005  0.00  0.00    +0.000 C 
ATOM     33  C   UNL     1      45.527  -0.100  15.493  0.00  0.00    +0.000 C 
ENDBRANCH  31  33
ENDBRANCH  30  31
ENDBRANCH  29  30
ENDBRANCH  28  29
ENDBRANCH   1  28
TORSDOF 11
ENDMDL
MODEL 2
REMARK VINA RESULT:      -7.0      3.008      6.136
REMARK  Name = 
REMARK  11 active torsions:
REMARK  status: ('A' for Active; 'I' for Inactive)
REMARK    1  A    between atoms: C_2  and  C_3
REMARK    2  A    between atoms: C_3  and  C_4
REMARK    3  A    between atoms: C_4  and  C_5
REMARK    4  A    between atoms: C_5  and  C_6
REMARK    5  A    between atoms: C_6  and  C_7
REMARK    6  A    between atoms: C_8  and  C_9
REMARK    7  A    between atoms: N_11  and  C_12
REMARK    8  A    between atoms: C_12  and  C_13
REMARK    9  A    between atoms: C_13  and  O_14
REMARK   10  A    between atoms: O_14  and  C_15
REMARK   11  A    between atoms: C_21  and  C_22
REMARK                            x       y       z     vdW  Elec       q    Type
REMARK                         _______ _______ _______ _____ _____    ______ ____
ROOT
ATOM      1  C   UNL     1      37.096   3.258  15.774  0.00  0.00    +0.000 C 
ATOM      2  C   UNL     1      36.633   2.100  15.604  0.00  0.00    +0.000 C 
ATOM      3  C   UNL     1      36.425   1.823  14.029  0.00  0.00    +0.000 C 
ATOM      4  O   UNL     1      36.522   3.314  13.645  0.00  0.00    +0.000 OA
ATOM      5  N   UNL     1      37.278   3.800  14.534  0.00  0.00    +0.000 NA
ENDROOT
BRANCH   3   6
ATOM      6  C   UNL     1      37.993   1.492  13.709  0.00  0.00    +0.000 A 
ATOM      7  C   UNL     1      38.859   1.413  14.721  0.00  0.00    +0.000 A 
ATOM      8  C   UNL     1      40.174   1.129  14.408  0.00  0.00    +0.000 A 
ATOM      9  C   UNL     1      40.548   0.938  13.072  0.00  0.00    +0.000 A 
ATOM     10  C   UNL     1      39.603   1.033  12.082  0.00  0.00    +0.000 A 
ATOM     11  C   UNL     1      39.963   0.847  10.772  0.00  0.00    +0.000 A 
ATOM     12  C   UNL     1      39.043   0.936   9.762  0.00  0.00    +0.000 A 
ATOM     13  C   UNL     1      37.747   1.217  10.075  0.00  0.00    +0.000 A 
ATOM     14  C   UNL     1      37.346   1.411  11.375  0.00  0.00    +0.000 A 
ATOM     15  C   UNL     1      38.268   1.320  12.378  0.00  0.00    +0.000 A 
ENDBRANCH   3   6
BRANCH   2  16
ATOM     16  C   UNL     1      36.248   1.022  16.495  0.00  0.00    +0.000 C 
ATOM     17  O   UNL     1      36.767   0.895  17.602  0.00  0.00    +0.000 OA
ATOM     18  N   UNL     1      35.253   0.075  16.112  0.00  0.00    +0.000 NA
BRANCH  18  19
ATOM     19  C   UNL     1      34.908  -0.980  17.040  0.00  0.00    +0.000 C 
BRANCH  19  20
ATOM     20  C   UNL     1      35.608  -2.235  16.648  0.00  0.00    +0.000 C 
BRANCH  20  21
ATOM     21  O   UNL     1      36.096  -2.114  15.348  0.00  0.00    +0.000 OA
BRANCH  21  22
ATOM     22  C   UNL     1      37.414  -2.239  14.978  0.00  0.00    +0.000 A 
ATOM     23  C   UNL     1      38.397  -2.247  15.937  0.00  0.00    +0.000 A 
ATOM     24  C   UNL     1      39.719  -2.373  15.560  0.00  0.00    +0.000 A 
ATOM     25  C   UNL     1      39.995  -2.487  14.216  0.00  0.00    +0.000 A 
ATOM     26  C   UNL     1      39.009  -2.479  13.264  0.00  0.00    +0.000 A 
ATOM     27  C   UNL     1      37.678  -2.354  13.619  0.00  0.00    +0.000 A 
ENDBRANCH  21  22
ENDBRANCH  20  21
ENDBRANCH  19  20
ENDBRANCH  18  19
ENDBRANCH   2  16
BRANCH   1  28
ATOM     28  C   UNL     1      37.394   3.872  17.093  0.00  0.00    +0.000 C 
BRANCH  28  29
ATOM     29  C   UNL     1      38.651   4.693  17.054  0.00  0.00    +0.000 C 
BRANCH  29  30
ATOM     30  C   UNL     1      39.038   4.996  18.479  0.00  0.00    +0.000 C 
BRANCH  30  31
ATOM     31  C   UNL     1      40.214   5.967  18.408  0.00  0.00    +0.000 C 
BRANCH  31  33
ATOM     32  C   UNL     1      39.393   7.341  20.258  0.00  0.00    +0.000 C 
ATOM     33  C   UNL     1      40.494   6.388  19.845  0.00  0.00    +0.000 C 
ENDBRANCH  31  33
ENDBRANCH  30  31
ENDBRANCH  29  30
ENDBRANCH  28  29
ENDBRANCH   1  28
TORSDOF 11
ENDMDL
MODEL 3
REMARK VINA RESULT:      -6.9      2.090      6.562
REMARK  Name = 
REMARK  11 active torsions:
REMARK  status: ('A' for Active; 'I' for Inactive)
REMARK    1  A    between atoms: C_2  and  C_3
REMARK    2  A    between atoms: C_3  and  C_4
REMARK    3  A    between atoms: C_4  and  C_5
REMARK    4  A    between atoms: C_5  and  C_6
REMARK    5  A    between atoms: C_6  and  C_7
REMARK    6  A    between atoms: C_8  and  C_9
REMARK    7  A    between atoms: N_11  and  C_12
REMARK    8  A    between atoms: C_12  and  C_13
REMARK    9  A    between atoms: C_13  and  O_14
REMARK   10  A    between atoms: O_14  and  C_15
REMARK   11  A    between atoms: C_21  and  C_22
REMARK                            x       y       z     vdW  Elec       q    Type
REMARK                         _______ _______ _______ _____ _____    ______ ____
ROOT
ATOM      1  C   UNL     1      37.496  -3.449  16.425  0.00  0.00    +0.000 C 
ATOM      2  C   UNL     1      37.644  -2.201  16.340  0.00  0.00    +0.000 C 
ATOM      3  C   UNL     1      39.213  -1.848  16.221  0.00  0.00    +0.000 C 
ATOM      4  O   UNL     1      39.673  -3.238  16.706  0.00  0.00    +0.000 OA
ATOM      5  N   UNL     1      38.739  -4.005  16.336  0.00  0.00    +0.000 NA
ENDROOT
BRANCH   3   6
ATOM      6  C   UNL     1      39.343  -2.203  14.631  0.00  0.00    +0.000 A 
ATOM      7  C   UNL     1      38.245  -2.526  13.946  0.00  0.00    +0.000 A 
ATOM      8  C   UNL     1      38.398  -2.817  12.604  0.00  0.00    +0.000 A 
ATOM      9  C   UNL     1      39.669  -2.765  12.019  0.00  0.00    +0.000 A 
ATOM     10  C   UNL     1      40.755  -2.423  12.784  0.00  0.00    +0.000 A 
ATOM     11  C   UNL     1      42.002  -2.371  12.218  0.00  0.00    +0.000 A 
ATOM     12  C   UNL     1      43.106  -2.033  12.956  0.00  0.00    +0.000 A 
ATOM     13  C   UNL     1      42.950  -1.748  14.278  0.00  0.00    +0.000 A 
ATOM     14  C   UNL     1      41.717  -1.791  14.885  0.00  0.00    +0.000 A 
ATOM     15  C   UNL     1      40.621  -2.126  14.143  0.00  0.00    +0.000 A 
ENDBRANCH   3   6
BRANCH   2  16
ATOM     16  C   UNL     1      36.736  -1.069  16.348  0.00  0.00    +0.000 C 
ATOM     17  O   UNL     1      35.690  -1.089  15.703  0.00  0.00    +0.000 OA
ATOM     18  N   UNL     1      37.032   0.101  17.105  0.00  0.00    +0.000 NA
BRANCH  18  19
ATOM     19  C   UNL     1      36.091   1.201  17.077  0.00  0.00    +0.000 C 
BRANCH  19  20
ATOM     20  C   UNL     1      36.516   2.191  16.048  0.00  0.00    +0.000 C 
BRANCH  20  21
ATOM     21  O   UNL     1      37.867   2.013  15.754  0.00  0.00    +0.000 OA
BRANCH  21  22
ATOM     22  C   UNL     1      38.372   1.635  14.532  0.00  0.00    +0.000 A 
ATOM     23  C   UNL     1      37.519   1.256  13.525  0.00  0.00    +0.000 A 
ATOM     24  C   UNL     1      38.031   0.879  12.300  0.00  0.00    +0.000 A 
ATOM     25  C   UNL     1      39.399   0.902  12.143  0.00  0.00    +0.000 A 
ATOM     26  C   UNL     1      40.245   1.282  13.152  0.00  0.00    +0.000 A 
ATOM     27  C   UNL     1      39.753   1.664  14.386  0.00  0.00    +0.000 A 
ENDBRANCH  21  22
ENDBRANCH  20  21
ENDBRANCH  19  20
ENDBRANCH  18  19
ENDBRANCH   2  16
BRANCH   1  28
ATOM     28  C   UNL     1      36.190  -4.143  16.573  0.00  0.00    +0.000 C 
BRANCH  28  29
ATOM     29  C   UNL     1      35.749  -4.779  15.286  0.00  0.00    +0.000 C 
BRANCH  29  30
ATOM     30  C   UNL     1      34.448  -4.132  14.885  0.00  0.00    +0.000 C 
BRANCH  30  31
ATOM     31  C   UNL     1      33.734  -5.131  13.978  0.00  0.00    +0.000 C 
BRANCH  31  33
ATOM     32  C   UNL     1      33.937  -7.531  13.542  0.00  0.00    +0.000 C 
ATOM     33  C   UNL     1      33.900  -6.492  14.643  0.00  0.00    +0.000 C 
ENDBRANCH  31  33
ENDBRANCH  30  31
ENDBRANCH  29  30
ENDBRANCH  28  29
ENDBRANCH   1  28
TORSDOF 11
ENDMDL
MODEL 4
REMARK VINA RESULT:      -6.9      1.170      1.738
REMARK  Name = 
REMARK  11 active torsions:
REMARK  status: ('A' for Active; 'I' for Inactive)
REMARK    1  A    between atoms: C_2  and  C_3
REMARK    2  A    between atoms: C_3  and  C_4
REMARK    3  A    between atoms: C_4  and  C_5
REMARK    4  A    between atoms: C_5  and  C_6
REMARK    5  A    between atoms: C_6  and  C_7
REMARK    6  A    between atoms: C_8  and  C_9
REMARK    7  A    between atoms: N_11  and  C_12
REMARK    8  A    between atoms: C_12  and  C_13
REMARK    9  A    between atoms: C_13  and  O_14
REMARK   10  A    between atoms: O_14  and  C_15
REMARK   11  A    between atoms: C_21  and  C_22
REMARK                            x       y       z     vdW  Elec       q    Type
REMARK                         _______ _______ _______ _____ _____    ______ ____
ROOT
ATOM      1  C   UNL     1      39.280   0.048  13.289  0.00  0.00    +0.000 C 
ATOM      2  C   UNL     1      38.232   0.410  13.885  0.00  0.00    +0.000 C 
ATOM      3  C   UNL     1      37.115  -0.748  13.769  0.00  0.00    +0.000 C 
ATOM      4  O   UNL     1      37.837  -1.479  12.619  0.00  0.00    +0.000 OA
ATOM      5  N   UNL     1      39.057  -1.213  12.818  0.00  0.00    +0.000 NA
ENDROOT
BRANCH   3   6
ATOM      6  C   UNL     1      37.734  -1.696  14.948  0.00  0.00    +0.000 A 
ATOM      7  C   UNL     1      38.836  -1.300  15.587  0.00  0.00    +0.000 A 
ATOM      8  C   UNL     1      39.326  -2.128  16.578  0.00  0.00    +0.000 A 
ATOM      9  C   UNL     1      38.667  -3.327  16.875  0.00  0.00    +0.000 A 
ATOM     10  C   UNL     1      37.536  -3.671  16.177  0.00  0.00    +0.000 A 
ATOM     11  C   UNL     1      36.887  -4.844  16.463  0.00  0.00    +0.000 A 
ATOM     12  C   UNL     1      35.756  -5.214  15.784  0.00  0.00    +0.000 A 
ATOM     13  C   UNL     1      35.277  -4.395  14.807  0.00  0.00    +0.000 A 
ATOM     14  C   UNL     1      35.900  -3.211  14.489  0.00  0.00    +0.000 A 
ATOM     15  C   UNL     1      37.026  -2.847  15.171  0.00  0.00    +0.000 A 
ENDBRANCH   3   6
BRANCH   2  16
ATOM     16  C   UNL     1      37.835   1.606  14.604  0.00  0.00    +0.000 C 
ATOM     17  O   UNL     1      38.605   2.164  15.382  0.00  0.00    +0.000 OA
ATOM     18  N   UNL     1      36.539   2.170  14.426  0.00  0.00    +0.000 NA
BRANCH  18  19
ATOM     19  C   UNL     1      36.196   3.365  15.168  0.00  0.00    +0.000 C 
BRANCH  19  20
ATOM     20  C   UNL     1      35.558   2.981  16.459  0.00  0.00    +0.000 C 
BRANCH  20  21
ATOM     21  O   UNL     1      34.950   1.734  16.330  0.00  0.00    +0.000 OA
BRANCH  21  22
ATOM     22  C   UNL     1      35.241   0.625  17.089  0.00  0.00    +0.000 A 
ATOM     23  C   UNL     1      34.555  -0.546  16.883  0.00  0.00    +0.000 A 
ATOM     24  C   UNL     1      34.851  -1.657  17.647  0.00  0.00    +0.000 A 
ATOM     25  C   UNL     1      35.840  -1.535  18.598  0.00  0.00    +0.000 A 
ATOM     26  C   UNL     1      36.521  -0.364  18.799  0.00  0.00    +0.000 A 
ATOM     27  C   UNL     1      36.241   0.761  18.044  0.00  0.00    +0.000 A 
ENDBRANCH  21  22
ENDBRANCH  20  21
ENDBRANCH  19  20
ENDBRANCH  18  19
ENDBRANCH   2  16
BRANCH   1  28
ATOM     28  C   UNL     1      40.514   0.867  13.163  0.00  0.00    +0.000 C 
BRANCH  28  29
ATOM     29  C   UNL     1      41.583   0.410  14.115  0.00  0.00    +0.000 C 
BRANCH  29  30
ATOM     30  C   UNL     1      42.656  -0.264  13.299  0.00  0.00    +0.000 C 
BRANCH  30  31
ATOM     31  C   UNL     1      43.045  -1.529  14.062  0.00  0.00    +0.000 C 
BRANCH  31  33
ATOM     32  C   UNL     1      41.554  -3.291  13.250  0.00  0.00    +0.000 C 
ATOM     33  C   UNL     1      42.923  -2.672  13.062  0.00  0.00    +0.000 C 
ENDBRANCH  31  33
ENDBRANCH  30  31
ENDBRANCH  29  30
ENDBRANCH  28  29
ENDBRANCH   1  28
TORSDOF 11
ENDMDL
MODEL 5
REMARK VINA RESULT:      -6.8     23.408     27.407
REMARK  Name = 
REMARK  11 active torsions:
REMARK  status: ('A' for Active; 'I' for Inactive)
REMARK    1  A    between atoms: C_2  and  C_3
REMARK    2  A    between atoms: C_3  and  C_4
REMARK    3  A    between atoms: C_4  and  C_5
REMARK    4  A    between atoms: C_5  and  C_6
REMARK    5  A    between atoms: C_6  and  C_7
REMARK    6  A    between atoms: C_8  and  C_9
REMARK    7  A    between atoms: N_11  and  C_12
REMARK    8  A    between atoms: C_12  and  C_13
REMARK    9  A    between atoms: C_13  and  O_14
REMARK   10  A    between atoms: O_14  and  C_15
REMARK   11  A    between atoms: C_21  and  C_22
REMARK                            x       y       z     vdW  Elec       q    Type
REMARK                         _______ _______ _______ _____ _____    ______ ____
ROOT
ATOM      1  C   UNL     1      13.455  -0.171  29.185  0.00  0.00    +0.000 C 
ATOM      2  C   UNL     1      14.013  -0.192  28.057  0.00  0.00    +0.000 C 
ATOM      3  C   UNL     1      12.948  -0.642  26.932  0.00  0.00    +0.000 C 
ATOM      4  O   UNL     1      11.940  -1.201  27.957  0.00  0.00    +0.000 OA
ATOM      5  N   UNL     1      12.145  -0.499  28.988  0.00  0.00    +0.000 NA
ENDROOT
BRANCH   3   6
ATOM      6  C   UNL     1      12.221   0.816  26.800  0.00  0.00    +0.000 A 
ATOM      7  C   UNL     1      12.814   1.887  27.329  0.00  0.00    +0.000 A 
ATOM      8  C   UNL     1      12.167   3.101  27.193  0.00  0.00    +0.000 A 
ATOM      9  C   UNL     1      10.940   3.167  26.521  0.00  0.00    +0.000 A 
ATOM     10  C   UNL     1      10.388   2.023  26.001  0.00  0.00    +0.000 A 
ATOM     11  C   UNL     1       9.188   2.081  25.343  0.00  0.00    +0.000 A 
ATOM     12  C   UNL     1       8.612   0.956  24.813  0.00  0.00    +0.000 A 
ATOM     13  C   UNL     1       9.253  -0.238  24.949  0.00  0.00    +0.000 A 
ATOM     14  C   UNL     1      10.458  -0.338  25.603  0.00  0.00    +0.000 A 
ATOM     15  C   UNL     1      11.027   0.787  26.128  0.00  0.00    +0.000 A 
ENDBRANCH   3   6
BRANCH   2  16
ATOM     16  C   UNL     1      15.360   0.072  27.587  0.00  0.00    +0.000 C 
ATOM     17  O   UNL     1      16.239   0.453  28.358  0.00  0.00    +0.000 OA
ATOM     18  N   UNL     1      15.705  -0.103  26.216  0.00  0.00    +0.000 NA
BRANCH  18  19
ATOM     19  C   UNL     1      17.064   0.175  25.802  0.00  0.00    +0.000 C 
BRANCH  19  20
ATOM     20  C   UNL     1      17.647  -1.040  25.167  0.00  0.00    +0.000 C 
BRANCH  20  21
ATOM     21  O   UNL     1      19.015  -0.856  24.970  0.00  0.00    +0.000 OA
BRANCH  21  22
ATOM     22  C   UNL     1      19.665  -0.960  23.763  0.00  0.00    +0.000 A 
ATOM     23  C   UNL     1      20.188   0.162  23.167  0.00  0.00    +0.000 A 
ATOM     24  C   UNL     1      20.841   0.052  21.957  0.00  0.00    +0.000 A 
ATOM     25  C   UNL     1      20.940  -1.200  21.392  0.00  0.00    +0.000 A 
ATOM     26  C   UNL     1      20.416  -2.316  21.992  0.00  0.00    +0.000 A 
ATOM     27  C   UNL     1      19.758  -2.229  23.205  0.00  0.00    +0.000 A 
ENDBRANCH  21  22
ENDBRANCH  20  21
ENDBRANCH  19  20
ENDBRANCH  18  19
ENDBRANCH   2  16
BRANCH   1  28
ATOM     28  C   UNL     1      14.130   0.173  30.463  0.00  0.00    +0.000 C 
BRANCH  28  29
ATOM     29  C   UNL     1      13.275  -0.163  31.651  0.00  0.00    +0.000 C 
BRANCH  29  30
ATOM     30  C   UNL     1      13.094   1.101  32.452  0.00  0.00    +0.000 C 
BRANCH  30  31
ATOM     31  C   UNL     1      14.494   1.562  32.850  0.00  0.00    +0.000 C 
BRANCH  31  33
ATOM     32  C   UNL     1      12.837   3.231  33.527  0.00  0.00    +0.000 C 
ATOM     33  C   UNL     1      14.324   2.963  33.425  0.00  0.00    +0.000 C 
ENDBRANCH  31  33
ENDBRANCH  30  31
ENDBRANCH  29  30
ENDBRANCH  28  29
ENDBRANCH   1  28
TORSDOF 11
ENDMDL
MODEL 6
REMARK VINA RESULT:      -6.7      3.010      5.665
REMARK  Name = 
REMARK  11 active torsions:
REMARK  status: ('A' for Active; 'I' for Inactive)
REMARK    1  A    between atoms: C_2  and  C_3
REMARK    2  A    between atoms: C_3  and  C_4
REMARK    3  A    between atoms: C_4  and  C_5
REMARK    4  A    between atoms: C_5  and  C_6
REMARK    5  A    between atoms: C_6  and  C_7
REMARK    6  A    between atoms: C_8  and  C_9
REMARK    7  A    between atoms: N_11  and  C_12
REMARK    8  A    between atoms: C_12  and  C_13
REMARK    9  A    between atoms: C_13  and  O_14
REMARK   10  A    between atoms: O_14  and  C_15
REMARK   11  A    between atoms: C_21  and  C_22
REMARK                            x       y       z     vdW  Elec       q    Type
REMARK                         _______ _______ _______ _____ _____    ______ ____
ROOT
ATOM      1  C   UNL     1      37.792   4.055  16.491  0.00  0.00    +0.000 C 
ATOM      2  C   UNL     1      36.964   3.173  16.143  0.00  0.00    +0.000 C 
ATOM      3  C   UNL     1      36.880   3.111  14.533  0.00  0.00    +0.000 C 
ATOM      4  O   UNL     1      37.567   4.479  14.338  0.00  0.00    +0.000 OA
ATOM      5  N   UNL     1      38.322   4.578  15.348  0.00  0.00    +0.000 NA
ENDROOT
BRANCH   3   6
ATOM      6  C   UNL     1      38.246   2.238  14.329  0.00  0.00    +0.000 A 
ATOM      7  C   UNL     1      39.420   2.869  14.286  0.00  0.00    +0.000 A 
ATOM      8  C   UNL     1      40.551   2.094  14.114  0.00  0.00    +0.000 A 
ATOM      9  C   UNL     1      40.432   0.704  13.994  0.00  0.00    +0.000 A 
ATOM     10  C   UNL     1      39.191   0.121  14.048  0.00  0.00    +0.000 A 
ATOM     11  C   UNL     1      39.068  -1.239  13.931  0.00  0.00    +0.000 A 
ATOM     12  C   UNL     1      37.843  -1.850  13.981  0.00  0.00    +0.000 A 
ATOM     13  C   UNL     1      36.731  -1.081  14.150  0.00  0.00    +0.000 A 
ATOM     14  C   UNL     1      36.811   0.286  14.270  0.00  0.00    +0.000 A 
ATOM     15  C   UNL     1      38.036   0.888  14.221  0.00  0.00    +0.000 A 
ENDBRANCH   3   6
BRANCH   2  16
ATOM     16  C   UNL     1      36.096   2.257  16.859  0.00  0.00    +0.000 C 
ATOM     17  O   UNL     1      34.889   2.213  16.628  0.00  0.00    +0.000 OA
ATOM     18  N   UNL     1      36.617   1.379  17.854  0.00  0.00    +0.000 NA
BRANCH  18  19
ATOM     19  C   UNL     1      35.705   0.487  18.536  0.00  0.00    +0.000 C 
BRANCH  19  20
ATOM     20  C   UNL     1      36.470  -0.651  19.121  0.00  0.00    +0.000 C 
BRANCH  20  21
ATOM     21  O   UNL     1      37.464  -1.055  18.232  0.00  0.00    +0.000 OA
BRANCH  21  22
ATOM     22  C   UNL     1      37.537  -2.288  17.626  0.00  0.00    +0.000 A 
ATOM     23  C   UNL     1      38.760  -2.874  17.411  0.00  0.00    +0.000 A 
ATOM     24  C   UNL     1      38.828  -4.112  16.805  0.00  0.00    +0.000 A 
ATOM     25  C   UNL     1      37.644  -4.711  16.436  0.00  0.00    +0.000 A 
ATOM     26  C   UNL     1      36.427  -4.120  16.653  0.00  0.00    +0.000 A 
ATOM     27  C   UNL     1      36.336  -2.881  17.261  0.00  0.00    +0.000 A 
ENDBRANCH  21  22
ENDBRANCH  20  21
ENDBRANCH  19  20
ENDBRANCH  18  19
ENDBRANCH   2  16
BRANCH   1  28
ATOM     28  C   UNL     1      38.115   4.412  17.897  0.00  0.00    +0.000 C 
BRANCH  28  29
ATOM     29  C   UNL     1      39.333   5.286  17.982  0.00  0.00    +0.000 C 
BRANCH  29  30
ATOM     30  C   UNL     1      38.872   6.670  18.362  0.00  0.00    +0.000 C 
BRANCH  30  31
ATOM     31  C   UNL     1      39.344   6.903  19.795  0.00  0.00    +0.000 C 
BRANCH  31  33
ATOM     32  C   UNL     1      41.745   7.321  20.015  0.00  0.00    +0.000 C 
ATOM     33  C   UNL     1      40.705   6.226  19.900  0.00  0.00    +0.000 C 
ENDBRANCH  31  33
ENDBRANCH  30  31
ENDBRANCH  29  30
ENDBRANCH  28  29
ENDBRANCH   1  28
TORSDOF 11
ENDMDL
MODEL 7
REMARK VINA RESULT:      -6.6      3.112      7.506
REMARK  Name = 
REMARK  11 active torsions:
REMARK  status: ('A' for Active; 'I' for Inactive)
REMARK    1  A    between atoms: C_2  and  C_3
REMARK    2  A    between atoms: C_3  and  C_4
REMARK    3  A    between atoms: C_4  and  C_5
REMARK    4  A    between atoms: C_5  and  C_6
REMARK    5  A    between atoms: C_6  and  C_7
REMARK    6  A    between atoms: C_8  and  C_9
REMARK    7  A    between atoms: N_11  and  C_12
REMARK    8  A    between atoms: C_12  and  C_13
REMARK    9  A    between atoms: C_13  and  O_14
REMARK   10  A    between atoms: O_14  and  C_15
REMARK   11  A    between atoms: C_21  and  C_22
REMARK                            x       y       z     vdW  Elec       q    Type
REMARK                         _______ _______ _______ _____ _____    ______ ____
ROOT
ATOM      1  C   UNL     1      36.772   3.342  14.736  0.00  0.00    +0.000 C 
ATOM      2  C   UNL     1      37.968   3.322  14.346  0.00  0.00    +0.000 C 
ATOM      3  C   UNL     1      38.543   4.828  14.279  0.00  0.00    +0.000 C 
ATOM      4  O   UNL     1      37.145   5.478  14.334  0.00  0.00    +0.000 OA
ATOM      5  N   UNL     1      36.456   4.645  14.990  0.00  0.00    +0.000 NA
ENDROOT
BRANCH   3   6
ATOM      6  C   UNL     1      38.826   4.969  15.882  0.00  0.00    +0.000 A 
ATOM      7  C   UNL     1      37.936   4.476  16.745  0.00  0.00    +0.000 A 
ATOM      8  C   UNL     1      38.215   4.614  18.091  0.00  0.00    +0.000 A 
ATOM      9  C   UNL     1      39.394   5.249  18.498  0.00  0.00    +0.000 A 
ATOM     10  C   UNL     1      40.267   5.731  17.555  0.00  0.00    +0.000 A 
ATOM     11  C   UNL     1      41.423   6.354  17.947  0.00  0.00    +0.000 A 
ATOM     12  C   UNL     1      42.312   6.846  17.029  0.00  0.00    +0.000 A 
ATOM     13  C   UNL     1      42.033   6.709  15.703  0.00  0.00    +0.000 A 
ATOM     14  C   UNL     1      40.884   6.091  15.269  0.00  0.00    +0.000 A 
ATOM     15  C   UNL     1      40.002   5.602  16.189  0.00  0.00    +0.000 A 
ENDBRANCH   3   6
BRANCH   2  16
ATOM     16  C   UNL     1      38.887   2.273  13.943  0.00  0.00    +0.000 C 
ATOM     17  O   UNL     1      39.206   2.126  12.765  0.00  0.00    +0.000 OA
ATOM     18  N   UNL     1      39.448   1.382  14.904  0.00  0.00    +0.000 NA
BRANCH  18  19
ATOM     19  C   UNL     1      40.359   0.355  14.446  0.00  0.00    +0.000 C 
BRANCH  19  20
ATOM     20  C   UNL     1      39.995  -0.946  15.073  0.00  0.00    +0.000 C 
BRANCH  20  21
ATOM     21  O   UNL     1      38.846  -0.790  15.846  0.00  0.00    +0.000 OA
BRANCH  21  22
ATOM     22  C   UNL     1      37.813  -1.695  15.928  0.00  0.00    +0.000 A 
ATOM     23  C   UNL     1      37.874  -2.724  16.833  0.00  0.00    +0.000 A 
ATOM     24  C   UNL     1      36.835  -3.629  16.913  0.00  0.00    +0.000 A 
ATOM     25  C   UNL     1      35.765  -3.452  16.064  0.00  0.00    +0.000 A 
ATOM     26  C   UNL     1      35.710  -2.421  15.162  0.00  0.00    +0.000 A 
ATOM     27  C   UNL     1      36.740  -1.504  15.066  0.00  0.00    +0.000 A 
ENDBRANCH  21  22
ENDBRANCH  20  21
ENDBRANCH  19  20
ENDBRANCH  18  19
ENDBRANCH   2  16
BRANCH   1  28
ATOM     28  C   UNL     1      35.908   2.143  14.895  0.00  0.00    +0.000 C 
BRANCH  28  29
ATOM     29  C   UNL     1      34.844   2.358  15.933  0.00  0.00    +0.000 C 
BRANCH  29  30
ATOM     30  C   UNL     1      34.885   1.181  16.874  0.00  0.00    +0.000 C 
BRANCH  30  31
ATOM     31  C   UNL     1      36.235   1.245  17.584  0.00  0.00    +0.000 C 
BRANCH  31  33
ATOM     32  C   UNL     1      35.031  -0.722  18.403  0.00  0.00    +0.000 C 
ATOM     33  C   UNL     1      36.151   0.242  18.729  0.00  0.00    +0.000 C 
ENDBRANCH  31  33
ENDBRANCH  30  31
ENDBRANCH  29  30
ENDBRANCH  28  29
ENDBRANCH   1  28
TORSDOF 11
ENDMDL
MODEL 8
REMARK VINA RESULT:      -6.6      2.421      5.102
REMARK  Name = 
REMARK  11 active torsions:
REMARK  status: ('A' for Active; 'I' for Inactive)
REMARK    1  A    between atoms: C_2  and  C_3
REMARK    2  A    between atoms: C_3  and  C_4
REMARK    3  A    between atoms: C_4  and  C_5
REMARK    4  A    between atoms: C_5  and  C_6
REMARK    5  A    between atoms: C_6  and  C_7
REMARK    6  A    between atoms: C_8  and  C_9
REMARK    7  A    between atoms: N_11  and  C_12
REMARK    8  A    between atoms: C_12  and  C_13
REMARK    9  A    between atoms: C_13  and  O_14
REMARK   10  A    between atoms: O_14  and  C_15
REMARK   11  A    between atoms: C_21  and  C_22
REMARK                            x       y       z     vdW  Elec       q    Type
REMARK                         _______ _______ _______ _____ _____    ______ ____
ROOT
ATOM      1  C   UNL     1      36.784   3.288  14.505  0.00  0.00    +0.000 C 
ATOM      2  C   UNL     1      36.312   2.220  14.976  0.00  0.00    +0.000 C 
ATOM      3  C   UNL     1      36.364   1.061  13.855  0.00  0.00    +0.000 C 
ATOM      4  O   UNL     1      36.583   2.049  12.691  0.00  0.00    +0.000 OA
ATOM      5  N   UNL     1      37.195   3.014  13.232  0.00  0.00    +0.000 NA
ENDROOT
BRANCH   3   6
ATOM      6  C   UNL     1      37.949   0.715  14.047  0.00  0.00    +0.000 A 
ATOM      7  C   UNL     1      38.795   1.699  14.359  0.00  0.00    +0.000 A 
ATOM      8  C   UNL     1      40.127   1.363  14.515  0.00  0.00    +0.000 A 
ATOM      9  C   UNL     1      40.537   0.035  14.345  0.00  0.00    +0.000 A 
ATOM     10  C   UNL     1      39.611  -0.926  14.024  0.00  0.00    +0.000 A 
ATOM     11  C   UNL     1      40.006  -2.227  13.856  0.00  0.00    +0.000 A 
ATOM     12  C   UNL     1      39.105  -3.208  13.536  0.00  0.00    +0.000 A 
ATOM     13  C   UNL     1      37.794  -2.873  13.384  0.00  0.00    +0.000 A 
ATOM     14  C   UNL     1      37.357  -1.579  13.542  0.00  0.00    +0.000 A 
ATOM     15  C   UNL     1      38.260  -0.606  13.862  0.00  0.00    +0.000 A 
ENDBRANCH   3   6
BRANCH   2  16
ATOM     16  C   UNL     1      35.739   1.842  16.254  0.00  0.00    +0.000 C 
ATOM     17  O   UNL     1      34.559   2.068  16.513  0.00  0.00    +0.000 OA
ATOM     18  N   UNL     1      36.529   1.195  17.248  0.00  0.00    +0.000 NA
BRANCH  18  19
ATOM     19  C   UNL     1      35.906   0.839  18.505  0.00  0.00    +0.000 C 
BRANCH  19  20
ATOM     20  C   UNL     1      35.817  -0.644  18.613  0.00  0.00    +0.000 C 
BRANCH  20  21
ATOM     21  O   UNL     1      36.116  -1.223  17.381  0.00  0.00    +0.000 OA
BRANCH  21  22
ATOM     22  C   UNL     1      36.918  -2.325  17.194  0.00  0.00    +0.000 A 
ATOM     23  C   UNL     1      36.361  -3.520  16.812  0.00  0.00    +0.000 A 
ATOM     24  C   UNL     1      37.171  -4.622  16.624  0.00  0.00    +0.000 A 
ATOM     25  C   UNL     1      38.523  -4.467  16.832  0.00  0.00    +0.000 A 
ATOM     26  C   UNL     1      39.072  -3.271  17.212  0.00  0.00    +0.000 A 
ATOM     27  C   UNL     1      38.280  -2.154  17.406  0.00  0.00    +0.000 A 
ENDBRANCH  21  22
ENDBRANCH  20  21
ENDBRANCH  19  20
ENDBRANCH  18  19
ENDBRANCH   2  16
BRANCH   1  28
ATOM     28  C   UNL     1      36.876   4.576  15.239  0.00  0.00    +0.000 C 
BRANCH  28  29
ATOM     29  C   UNL     1      38.231   5.205  15.090  0.00  0.00    +0.000 C 
BRANCH  29  30
ATOM     30  C   UNL     1      39.099   4.682  16.206  0.00  0.00    +0.000 C 
BRANCH  30  31
ATOM     31  C   UNL     1      38.271   4.794  17.483  0.00  0.00    +0.000 C 
BRANCH  31  33
ATOM     32  C   UNL     1      39.650   5.933  19.153  0.00  0.00    +0.000 C 
ATOM     33  C   UNL     1      38.606   6.156  18.080  0.00  0.00    +0.000 C 
ENDBRANCH  31  33
ENDBRANCH  30  31
ENDBRANCH  29  30
ENDBRANCH  28  29
ENDBRANCH   1  28
TORSDOF 11
ENDMDL
MODEL 9
REMARK VINA RESULT:      -6.2      3.236      4.778
REMARK  Name = 
REMARK  11 active torsions:
REMARK  status: ('A' for Active; 'I' for Inactive)
REMARK    1  A    between atoms: C_2  and  C_3
REMARK    2  A    between atoms: C_3  and  C_4
REMARK    3  A    between atoms: C_4  and  C_5
REMARK    4  A    between atoms: C_5  and  C_6
REMARK    5  A    between atoms: C_6  and  C_7
REMARK    6  A    between atoms: C_8  and  C_9
REMARK    7  A    between atoms: N_11  and  C_12
REMARK    8  A    between atoms: C_12  and  C_13
REMARK    9  A    between atoms: C_13  and  O_14
REMARK   10  A    between atoms: O_14  and  C_15
REMARK   11  A    between atoms: C_21  and  C_22
REMARK                            x       y       z     vdW  Elec       q    Type
REMARK                         _______ _______ _______ _____ _____    ______ ____
ROOT
ATOM      1  C   UNL     1      38.338   0.934  13.608  0.00  0.00    +0.000 C 
ATOM      2  C   UNL     1      37.432   1.167  14.450  0.00  0.00    +0.000 C 
ATOM      3  C   UNL     1      36.429  -0.094  14.534  0.00  0.00    +0.000 C 
ATOM      4  O   UNL     1      36.923  -0.710  13.208  0.00  0.00    +0.000 OA
ATOM      5  N   UNL     1      38.126  -0.328  13.133  0.00  0.00    +0.000 NA
ENDROOT
BRANCH   3   6
ATOM      6  C   UNL     1      37.394  -1.010  15.482  0.00  0.00    +0.000 A 
ATOM      7  C   UNL     1      38.404  -1.681  14.926  0.00  0.00    +0.000 A 
ATOM      8  C   UNL     1      39.197  -2.441  15.764  0.00  0.00    +0.000 A 
ATOM      9  C   UNL     1      38.924  -2.483  17.136  0.00  0.00    +0.000 A 
ATOM     10  C   UNL     1      37.868  -1.766  17.641  0.00  0.00    +0.000 A 
ATOM     11  C   UNL     1      37.594  -1.803  18.983  0.00  0.00    +0.000 A 
ATOM     12  C   UNL     1      36.547  -1.099  19.516  0.00  0.00    +0.000 A 
ATOM     13  C   UNL     1      35.768  -0.351  18.686  0.00  0.00    +0.000 A 
ATOM     14  C   UNL     1      36.007  -0.288  17.334  0.00  0.00    +0.000 A 
ATOM     15  C   UNL     1      37.054  -0.992  16.809  0.00  0.00    +0.000 A 
ENDBRANCH   3   6
BRANCH   2  16
ATOM     16  C   UNL     1      37.108   2.293  15.305  0.00  0.00    +0.000 C 
ATOM     17  O   UNL     1      35.965   2.746  15.356  0.00  0.00    +0.000 OA
ATOM     18  N   UNL     1      38.105   2.909  16.116  0.00  0.00    +0.000 NA
BRANCH  18  19
ATOM     19  C   UNL     1      37.726   4.029  16.950  0.00  0.00    +0.000 C 
BRANCH  19  20
ATOM     20  C   UNL     1      38.267   5.289  16.367  0.00  0.00    +0.000 C 
BRANCH  20  21
ATOM     21  O   UNL     1      38.549   6.196  17.386  0.00  0.00    +0.000 OA
BRANCH  21  22
ATOM     22  C   UNL     1      39.750   6.304  18.046  0.00  0.00    +0.000 A 
ATOM     23  C   UNL     1      40.909   6.495  17.334  0.00  0.00    +0.000 A 
ATOM     24  C   UNL     1      42.112   6.604  18.002  0.00  0.00    +0.000 A 
ATOM     25  C   UNL     1      42.093   6.513  19.376  0.00  0.00    +0.000 A 
ATOM     26  C   UNL     1      40.934   6.322  20.080  0.00  0.00    +0.000 A 
ATOM     27  C   UNL     1      39.717   6.212  19.432  0.00  0.00    +0.000 A 
ENDBRANCH  21  22
ENDBRANCH  20  21
ENDBRANCH  19  20
ENDBRANCH  18  19
ENDBRANCH   2  16
BRANCH   1  28
ATOM     28  C   UNL     1      39.426   1.877  13.245  0.00  0.00    +0.000 C 
BRANCH  28  29
ATOM     29  C   UNL     1      40.690   1.586  14.002  0.00  0.00    +0.000 C 
BRANCH  29  30
ATOM     30  C   UNL     1      41.511   0.639  13.164  0.00  0.00    +0.000 C 
BRANCH  30  31
ATOM     31  C   UNL     1      41.998  -0.458  14.108  0.00  0.00    +0.000 C 
BRANCH  31  33
ATOM     32  C   UNL     1      41.206  -2.131  12.506  0.00  0.00    +0.000 C 
ATOM     33  C   UNL     1      42.440  -1.611  13.214  0.00  0.00    +0.000 C 
ENDBRANCH  31  33
ENDBRANCH  30  31
ENDBRANCH  29  30
ENDBRANCH  28  29
ENDBRANCH   1  28
TORSDOF 11
ENDMDL
MODEL 10
REMARK VINA RESULT:      -6.1      4.346      7.564
REMARK  Name = 
REMARK  11 active torsions:
REMARK  status: ('A' for Active; 'I' for Inactive)
REMARK    1  A    between atoms: C_2  and  C_3
REMARK    2  A    between atoms: C_3  and  C_4
REMARK    3  A    between atoms: C_4  and  C_5
REMARK    4  A    between atoms: C_5  and  C_6
REMARK    5  A    between atoms: C_6  and  C_7
REMARK    6  A    between atoms: C_8  and  C_9
REMARK    7  A    between atoms: N_11  and  C_12
REMARK    8  A    between atoms: C_12  and  C_13
REMARK    9  A    between atoms: C_13  and  O_14
REMARK   10  A    between atoms: O_14  and  C_15
REMARK   11  A    between atoms: C_21  and  C_22
REMARK                            x       y       z     vdW  Elec       q    Type
REMARK                         _______ _______ _______ _____ _____    ______ ____
ROOT
ATOM      1  C   UNL     1      36.114   3.898  14.706  0.00  0.00    +0.000 C 
ATOM      2  C   UNL     1      36.699   3.606  15.782  0.00  0.00    +0.000 C 
ATOM      3  C   UNL     1      35.831   2.516  16.595  0.00  0.00    +0.000 C 
ATOM      4  O   UNL     1      34.550   2.766  15.774  0.00  0.00    +0.000 OA
ATOM      5  N   UNL     1      34.988   3.128  14.644  0.00  0.00    +0.000 NA
ENDROOT
BRANCH   3   6
ATOM      6  C   UNL     1      36.315   1.228  15.714  0.00  0.00    +0.000 A 
ATOM      7  C   UNL     1      37.215   1.405  14.745  0.00  0.00    +0.000 A 
ATOM      8  C   UNL     1      37.599   0.289  14.026  0.00  0.00    +0.000 A 
ATOM      9  C   UNL     1      37.046  -0.961  14.328  0.00  0.00    +0.000 A 
ATOM     10  C   UNL     1      36.125  -1.070  15.340  0.00  0.00    +0.000 A 
ATOM     11  C   UNL     1      35.580  -2.290  15.641  0.00  0.00    +0.000 A 
ATOM     12  C   UNL     1      34.658  -2.430  16.645  0.00  0.00    +0.000 A 
ATOM     13  C   UNL     1      34.283  -1.328  17.351  0.00  0.00    +0.000 A 
ATOM     14  C   UNL     1      34.805  -0.086  17.080  0.00  0.00    +0.000 A 
ATOM     15  C   UNL     1      35.724   0.047  16.078  0.00  0.00    +0.000 A 
ENDBRANCH   3   6
BRANCH   2  16
ATOM     16  C   UNL     1      37.927   4.044  16.419  0.00  0.00    +0.000 C 
ATOM     17  O   UNL     1      38.977   4.128  15.786  0.00  0.00    +0.000 OA
ATOM     18  N   UNL     1      37.951   4.392  17.801  0.00  0.00    +0.000 NA
BRANCH  18  19
ATOM     19  C   UNL     1      39.203   4.823  18.385  0.00  0.00    +0.000 C 
BRANCH  19  20
ATOM     20  C   UNL     1      39.055   6.210  18.910  0.00  0.00    +0.000 C 
BRANCH  20  21
ATOM     21  O   UNL     1      40.174   6.965  18.565  0.00  0.00    +0.000 OA
BRANCH  21  22
ATOM     22  C   UNL     1      41.425   6.832  19.118  0.00  0.00    +0.000 A 
ATOM     23  C   UNL     1      41.559   6.616  20.467  0.00  0.00    +0.000 A 
ATOM     24  C   UNL     1      42.818   6.481  21.016  0.00  0.00    +0.000 A 
ATOM     25  C   UNL     1      43.901   6.571  20.170  0.00  0.00    +0.000 A 
ATOM     26  C   UNL     1      43.760   6.786  18.824  0.00  0.00    +0.000 A 
ATOM     27  C   UNL     1      42.508   6.924  18.252  0.00  0.00    +0.000 A 
ENDBRANCH  21  22
ENDBRANCH  20  21
ENDBRANCH  19  20
ENDBRANCH  18  19
ENDBRANCH   2  16
BRANCH   1  28
ATOM     28  C   UNL     1      36.603   4.885  13.711  0.00  0.00    +0.000 C 
BRANCH  28  29
ATOM     29  C   UNL     1      36.606   6.281  14.266  0.00  0.00    +0.000 C 
BRANCH  29  30
ATOM     30  C   UNL     1      35.834   7.151  13.308  0.00  0.00    +0.000 C 
BRANCH  30  31
ATOM     31  C   UNL     1      34.561   7.572  14.039  0.00  0.00    +0.000 C 
BRANCH  31  33
ATOM     32  C   UNL     1      33.680   7.151  11.796  0.00  0.00    +0.000 C 
ATOM     33  C   UNL     1      33.409   6.937  13.270  0.00  0.00    +0.000 C 
ENDBRANCH  31  33
ENDBRANCH  30  31
ENDBRANCH  29  30
ENDBRANCH  28  29
ENDBRANCH   1  28
TORSDOF 11
ENDMDL
