MODEL 1
REMARK VINA RESULT:      -7.5      0.000      0.000
REMARK  Name = 
REMARK  3 active torsions:
REMARK  status: ('A' for Active; 'I' for Inactive)
REMARK    1  A    between atoms: C_4  and  N_5
REMARK    2  A    between atoms: N_5  and  N_6
REMARK    3  A    between atoms: C_7  and  C_9
REMARK                            x       y       z     vdW  Elec       q    Type
REMARK                         _______ _______ _______ _____ _____    ______ ____
ROOT
ATOM      1  N   UNL     1      16.930  11.199  33.926  0.00  0.00    +0.000 NA
ATOM      2  C   UNL     1      15.635  11.143  33.342  0.00  0.00    +0.000 C 
ATOM      3  O   UNL     1      15.103  10.022  33.242  0.00  0.00    +0.000 OA
ENDROOT
BRANCH   2   4
ATOM      4  C   UNL     1      14.959  12.354  32.879  0.00  0.00    +0.000 A 
ATOM      5  C   UNL     1      14.257  13.152  33.753  0.00  0.00    +0.000 A 
ATOM      6  C   UNL     1      13.609  14.301  33.331  0.00  0.00    +0.000 A 
ATOM      7 CL   UNL     1      12.710  15.340  34.406  0.00  0.00    +0.000 Cl
ATOM      8  C   UNL     1      13.686  14.625  32.002  0.00  0.00    +0.000 A 
ATOM      9  C   UNL     1      14.386  13.833  31.116  0.00  0.00    +0.000 A 
ATOM     10  C   UNL     1      15.028  12.688  31.562  0.00  0.00    +0.000 A 
ATOM     11  O   UNL     1      15.745  11.860  30.695  0.00  0.00    +0.000 OA
ENDBRANCH   2   4
BRANCH   1  12
ATOM     12  N   UNL     1      17.545  10.008  34.359  0.00  0.00    +0.000 NA
BRANCH  12  16
ATOM     13  C   UNL     1      18.404   8.915  38.209  0.00  0.00    +0.000 C 
ATOM     14  C   UNL     1      19.667   9.698  37.549  0.00  0.00    +0.000 C 
ATOM     15  C   UNL     1      19.155   9.671  36.048  0.00  0.00    +0.000 C 
ATOM     16  C   UNL     1      17.984  10.042  35.725  0.00  0.00    +0.000 C 
ATOM     17  C   UNL     1      16.999  10.531  36.724  0.00  0.00    +0.000 C 
ATOM     18  C   UNL     1      17.689  11.283  37.830  0.00  0.00    +0.000 C 
ATOM     19  C   UNL     1      19.136  11.194  37.863  0.00  0.00    +0.000 C 
ENDBRANCH  12  16
ENDBRANCH   1  12
TORSDOF 3
ENDMDL
MODEL 2
REMARK VINA RESULT:      -6.2      3.246      4.673
REMARK  Name = 
REMARK  3 active torsions:
REMARK  status: ('A' for Active; 'I' for Inactive)
REMARK    1  A    between atoms: C_4  and  N_5
REMARK    2  A    between atoms: N_5  and  N_6
REMARK    3  A    between atoms: C_7  and  C_9
REMARK                            x       y       z     vdW  Elec       q    Type
REMARK                         _______ _______ _______ _____ _____    ______ ____
ROOT
ATOM      1  N   UNL     1      17.517   9.807  37.997  0.00  0.00    +0.000 NA
ATOM      2  C   UNL     1      17.683  10.981  37.213  0.00  0.00    +0.000 C 
ATOM      3  O   UNL     1      18.576  11.776  37.558  0.00  0.00    +0.000 OA
ENDROOT
BRANCH   2   4
ATOM      4  C   UNL     1      16.837  11.241  36.049  0.00  0.00    +0.000 A 
ATOM      5  C   UNL     1      15.828  12.176  36.100  0.00  0.00    +0.000 A 
ATOM      6  C   UNL     1      15.016  12.433  35.007  0.00  0.00    +0.000 A 
ATOM      7 CL   UNL     1      13.728  13.609  35.030  0.00  0.00    +0.000 Cl
ATOM      8  C   UNL     1      15.249  11.722  33.859  0.00  0.00    +0.000 A 
ATOM      9  C   UNL     1      16.257  10.782  33.795  0.00  0.00    +0.000 A 
ATOM     10  C   UNL     1      17.057  10.543  34.901  0.00  0.00    +0.000 A 
ATOM     11  O   UNL     1      18.087   9.599  34.877  0.00  0.00    +0.000 OA
ENDBRANCH   2   4
BRANCH   1  12
ATOM     12  N   UNL     1      18.354   9.595  39.110  0.00  0.00    +0.000 NA
BRANCH  12  16
ATOM     13  C   UNL     1      17.399   8.524  42.944  0.00  0.00    +0.000 C 
ATOM     14  C   UNL     1      16.089   9.107  42.177  0.00  0.00    +0.000 C 
ATOM     15  C   UNL     1      16.846   9.706  40.918  0.00  0.00    +0.000 C 
ATOM     16  C   UNL     1      17.683   9.029  40.245  0.00  0.00    +0.000 C 
ATOM     17  C   UNL     1      18.022   7.622  40.579  0.00  0.00    +0.000 C 
ATOM     18  C   UNL     1      16.822   6.900  41.129  0.00  0.00    +0.000 C 
ATOM     19  C   UNL     1      15.671   7.721  41.455  0.00  0.00    +0.000 C 
ENDBRANCH  12  16
ENDBRANCH   1  12
TORSDOF 3
ENDMDL
MODEL 3
REMARK VINA RESULT:      -6.2      3.423      4.821
REMARK  Name = 
REMARK  3 active torsions:
REMARK  status: ('A' for Active; 'I' for Inactive)
REMARK    1  A    between atoms: C_4  and  N_5
REMARK    2  A    between atoms: N_5  and  N_6
REMARK    3  A    between atoms: C_7  and  C_9
REMARK                            x       y       z     vdW  Elec       q    Type
REMARK                         _______ _______ _______ _____ _____    ______ ____
ROOT
ATOM      1  N   UNL     1      17.331   9.792  37.691  0.00  0.00    +0.000 NA
ATOM      2  C   UNL     1      17.795  10.122  36.389  0.00  0.00    +0.000 C 
ATOM      3  O   UNL     1      18.986   9.871  36.128  0.00  0.00    +0.000 OA
ENDROOT
BRANCH   2   4
ATOM      4  C   UNL     1      16.909  10.731  35.399  0.00  0.00    +0.000 A 
ATOM      5  C   UNL     1      16.928  10.325  34.084  0.00  0.00    +0.000 A 
ATOM      6  C   UNL     1      16.096  10.892  33.133  0.00  0.00    +0.000 A 
ATOM      7 CL   UNL     1      16.090  10.405  31.458  0.00  0.00    +0.000 Cl
ATOM      8  C   UNL     1      15.243  11.882  33.542  0.00  0.00    +0.000 A 
ATOM      9  C   UNL     1      15.214  12.299  34.857  0.00  0.00    +0.000 A 
ATOM     10  C   UNL     1      16.055  11.715  35.791  0.00  0.00    +0.000 A 
ATOM     11  O   UNL     1      16.056  12.111  37.131  0.00  0.00    +0.000 OA
ENDBRANCH   2   4
BRANCH   1  12
ATOM     12  N   UNL     1      18.219   9.206  38.614  0.00  0.00    +0.000 NA
BRANCH  12  16
ATOM     13  C   UNL     1      17.406   9.071  42.624  0.00  0.00    +0.000 C 
ATOM     14  C   UNL     1      16.036   9.295  41.776  0.00  0.00    +0.000 C 
ATOM     15  C   UNL     1      16.716   9.623  40.382  0.00  0.00    +0.000 C 
ATOM     16  C   UNL     1      17.620   8.887  39.878  0.00  0.00    +0.000 C 
ATOM     17  C   UNL     1      18.113   7.658  40.551  0.00  0.00    +0.000 C 
ATOM     18  C   UNL     1      17.002   6.981  41.308  0.00  0.00    +0.000 C 
ATOM     19  C   UNL     1      15.769   7.733  41.450  0.00  0.00    +0.000 C 
ENDBRANCH  12  16
ENDBRANCH   1  12
TORSDOF 3
ENDMDL
MODEL 4
REMARK VINA RESULT:      -6.2      2.807      3.929
REMARK  Name = 
REMARK  3 active torsions:
REMARK  status: ('A' for Active; 'I' for Inactive)
REMARK    1  A    between atoms: C_4  and  N_5
REMARK    2  A    between atoms: N_5  and  N_6
REMARK    3  A    between atoms: C_7  and  C_9
REMARK                            x       y       z     vdW  Elec       q    Type
REMARK                         _______ _______ _______ _____ _____    ______ ____
ROOT
ATOM      1  N   UNL     1      18.256  10.284  36.721  0.00  0.00    +0.000 NA
ATOM      2  C   UNL     1      17.448   9.804  35.654  0.00  0.00    +0.000 C 
ATOM      3  O   UNL     1      17.491   8.583  35.412  0.00  0.00    +0.000 OA
ENDROOT
BRANCH   2   4
ATOM      4  C   UNL     1      16.603  10.707  34.876  0.00  0.00    +0.000 A 
ATOM      5  C   UNL     1      16.759  10.828  33.514  0.00  0.00    +0.000 A 
ATOM      6  C   UNL     1      15.968  11.681  32.762  0.00  0.00    +0.000 A 
ATOM      7 CL   UNL     1      16.133  11.861  31.034  0.00  0.00    +0.000 Cl
ATOM      8  C   UNL     1      15.014  12.411  33.420  0.00  0.00    +0.000 A 
ATOM      9  C   UNL     1      14.848  12.300  34.785  0.00  0.00    +0.000 A 
ATOM     10  C   UNL     1      15.650  11.439  35.516  0.00  0.00    +0.000 A 
ATOM     11  O   UNL     1      15.514  11.300  36.900  0.00  0.00    +0.000 OA
ENDBRANCH   2   4
BRANCH   1  12
ATOM     12  N   UNL     1      19.054   9.378  37.446  0.00  0.00    +0.000 NA
BRANCH  12  16
ATOM     13  C   UNL     1      23.133   9.280  37.787  0.00  0.00    +0.000 C 
ATOM     14  C   UNL     1      22.686  10.351  36.648  0.00  0.00    +0.000 C 
ATOM     15  C   UNL     1      21.167   9.909  36.544  0.00  0.00    +0.000 C 
ATOM     16  C   UNL     1      20.427   9.779  37.568  0.00  0.00    +0.000 C 
ATOM     17  C   UNL     1      20.922  10.031  38.945  0.00  0.00    +0.000 C 
ATOM     18  C   UNL     1      21.936  11.143  38.954  0.00  0.00    +0.000 C 
ATOM     19  C   UNL     1      22.415  11.586  37.658  0.00  0.00    +0.000 C 
ENDBRANCH  12  16
ENDBRANCH   1  12
TORSDOF 3
ENDMDL
MODEL 5
REMARK VINA RESULT:      -6.1     20.310     22.290
REMARK  Name = 
REMARK  3 active torsions:
REMARK  status: ('A' for Active; 'I' for Inactive)
REMARK    1  A    between atoms: C_4  and  N_5
REMARK    2  A    between atoms: N_5  and  N_6
REMARK    3  A    between atoms: C_7  and  C_9
REMARK                            x       y       z     vdW  Elec       q    Type
REMARK                         _______ _______ _______ _____ _____    ______ ____
ROOT
ATOM      1  N   UNL     1      29.723  24.375  22.497  0.00  0.00    +0.000 NA
ATOM      2  C   UNL     1      28.842  23.434  23.097  0.00  0.00    +0.000 C 
ATOM      3  O   UNL     1      27.967  22.930  22.371  0.00  0.00    +0.000 OA
ENDROOT
BRANCH   2   4
ATOM      4  C   UNL     1      28.962  23.077  24.510  0.00  0.00    +0.000 A 
ATOM      5  C   UNL     1      27.907  23.249  25.377  0.00  0.00    +0.000 A 
ATOM      6  C   UNL     1      28.005  22.917  26.719  0.00  0.00    +0.000 A 
ATOM      7 CL   UNL     1      26.692  23.118  27.850  0.00  0.00    +0.000 Cl
ATOM      8  C   UNL     1      29.195  22.407  27.164  0.00  0.00    +0.000 A 
ATOM      9  C   UNL     1      30.260  22.230  26.305  0.00  0.00    +0.000 A 
ATOM     10  C   UNL     1      30.139  22.568  24.966  0.00  0.00    +0.000 A 
ATOM     11  O   UNL     1      31.194  22.405  24.066  0.00  0.00    +0.000 OA
ENDBRANCH   2   4
BRANCH   1  12
ATOM     12  N   UNL     1      29.573  24.690  21.133  0.00  0.00    +0.000 NA
BRANCH  12  16
ATOM     13  C   UNL     1      29.359  28.775  21.289  0.00  0.00    +0.000 C 
ATOM     14  C   UNL     1      29.394  28.269  19.744  0.00  0.00    +0.000 C 
ATOM     15  C   UNL     1      29.799  26.764  20.036  0.00  0.00    +0.000 C 
ATOM     16  C   UNL     1      29.186  26.050  20.887  0.00  0.00    +0.000 C 
ATOM     17  C   UNL     1      28.037  26.562  21.678  0.00  0.00    +0.000 C 
ATOM     18  C   UNL     1      27.225  27.537  20.868  0.00  0.00    +0.000 C 
ATOM     19  C   UNL     1      27.808  27.975  19.614  0.00  0.00    +0.000 C 
ENDBRANCH  12  16
ENDBRANCH   1  12
TORSDOF 3
ENDMDL
MODEL 6
REMARK VINA RESULT:      -6.0     20.957     22.312
REMARK  Name = 
REMARK  3 active torsions:
REMARK  status: ('A' for Active; 'I' for Inactive)
REMARK    1  A    between atoms: C_4  and  N_5
REMARK    2  A    between atoms: N_5  and  N_6
REMARK    3  A    between atoms: C_7  and  C_9
REMARK                            x       y       z     vdW  Elec       q    Type
REMARK                         _______ _______ _______ _____ _____    ______ ____
ROOT
ATOM      1  N   UNL     1      16.606  -9.288  26.418  0.00  0.00    +0.000 NA
ATOM      2  C   UNL     1      17.550  -8.636  27.258  0.00  0.00    +0.000 C 
ATOM      3  O   UNL     1      17.589  -8.989  28.451  0.00  0.00    +0.000 OA
ENDROOT
BRANCH   2   4
ATOM      4  C   UNL     1      18.436  -7.596  26.739  0.00  0.00    +0.000 A 
ATOM      5  C   UNL     1      19.659  -7.914  26.191  0.00  0.00    +0.000 A 
ATOM      6  C   UNL     1      20.511  -6.940  25.697  0.00  0.00    +0.000 A 
ATOM      7 CL   UNL     1      22.067  -7.301  24.994  0.00  0.00    +0.000 Cl
ATOM      8  C   UNL     1      20.100  -5.636  25.771  0.00  0.00    +0.000 A 
ATOM      9  C   UNL     1      18.878  -5.304  26.318  0.00  0.00    +0.000 A 
ATOM     10  C   UNL     1      18.041  -6.295  26.805  0.00  0.00    +0.000 A 
ATOM     11  O   UNL     1      16.797  -6.000  27.368  0.00  0.00    +0.000 OA
ENDBRANCH   2   4
BRANCH   1  12
ATOM     12  N   UNL     1      15.772 -10.285  26.958  0.00  0.00    +0.000 NA
BRANCH  12  16
ATOM     13  C   UNL     1      12.065 -10.579  25.247  0.00  0.00    +0.000 C 
ATOM     14  C   UNL     1      11.951 -10.687  26.866  0.00  0.00    +0.000 C 
ATOM     15  C   UNL     1      13.498 -10.871  27.162  0.00  0.00    +0.000 C 
ATOM     16  C   UNL     1      14.378 -10.097  26.674  0.00  0.00    +0.000 C 
ATOM     17  C   UNL     1      14.033  -8.957  25.787  0.00  0.00    +0.000 C 
ATOM     18  C   UNL     1      12.714  -8.351  26.185  0.00  0.00    +0.000 C 
ATOM     19  C   UNL     1      11.930  -9.095  27.153  0.00  0.00    +0.000 C 
ENDBRANCH  12  16
ENDBRANCH   1  12
TORSDOF 3
ENDMDL
MODEL 7
REMARK VINA RESULT:      -5.9      7.029      8.516
REMARK  Name = 
REMARK  3 active torsions:
REMARK  status: ('A' for Active; 'I' for Inactive)
REMARK    1  A    between atoms: C_4  and  N_5
REMARK    2  A    between atoms: N_5  and  N_6
REMARK    3  A    between atoms: C_7  and  C_9
REMARK                            x       y       z     vdW  Elec       q    Type
REMARK                         _______ _______ _______ _____ _____    ______ ____
ROOT
ATOM      1  N   UNL     1      20.021   9.789  39.041  0.00  0.00    +0.000 NA
ATOM      2  C   UNL     1      18.885   8.988  38.742  0.00  0.00    +0.000 C 
ATOM      3  O   UNL     1      18.375   9.120  37.614  0.00  0.00    +0.000 OA
ENDROOT
BRANCH   2   4
ATOM      4  C   UNL     1      18.340   8.049  39.721  0.00  0.00    +0.000 A 
ATOM      5  C   UNL     1      18.905   6.807  39.904  0.00  0.00    +0.000 A 
ATOM      6  C   UNL     1      18.400   5.905  40.826  0.00  0.00    +0.000 A 
ATOM      7 CL   UNL     1      19.087   4.323  41.088  0.00  0.00    +0.000 Cl
ATOM      8  C   UNL     1      17.308   6.287  41.559  0.00  0.00    +0.000 A 
ATOM      9  C   UNL     1      16.732   7.529  41.385  0.00  0.00    +0.000 A 
ATOM     10  C   UNL     1      17.256   8.416  40.458  0.00  0.00    +0.000 A 
ATOM     11  O   UNL     1      16.700   9.681  40.252  0.00  0.00    +0.000 OA
ENDBRANCH   2   4
BRANCH   1  12
ATOM     12  N   UNL     1      20.514  10.680  38.069  0.00  0.00    +0.000 NA
BRANCH  12  16
ATOM     13  C   UNL     1      24.201   8.943  37.685  0.00  0.00    +0.000 C 
ATOM     14  C   UNL     1      23.556   9.231  36.220  0.00  0.00    +0.000 C 
ATOM     15  C   UNL     1      22.086   9.564  36.712  0.00  0.00    +0.000 C 
ATOM     16  C   UNL     1      21.854  10.396  37.642  0.00  0.00    +0.000 C 
ATOM     17  C   UNL     1      22.940  11.127  38.346  0.00  0.00    +0.000 C 
ATOM     18  C   UNL     1      24.077  11.428  37.407  0.00  0.00    +0.000 C 
ATOM     19  C   UNL     1      24.032  10.773  36.113  0.00  0.00    +0.000 C 
ENDBRANCH  12  16
ENDBRANCH   1  12
TORSDOF 3
ENDMDL
MODEL 8
REMARK VINA RESULT:      -5.7     19.505     20.739
REMARK  Name = 
REMARK  3 active torsions:
REMARK  status: ('A' for Active; 'I' for Inactive)
REMARK    1  A    between atoms: C_4  and  N_5
REMARK    2  A    between atoms: N_5  and  N_6
REMARK    3  A    between atoms: C_7  and  C_9
REMARK                            x       y       z     vdW  Elec       q    Type
REMARK                         _______ _______ _______ _____ _____    ______ ____
ROOT
ATOM      1  N   UNL     1      24.477   3.243  16.864  0.00  0.00    +0.000 NA
ATOM      2  C   UNL     1      23.771   2.175  17.482  0.00  0.00    +0.000 C 
ATOM      3  O   UNL     1      24.449   1.274  18.010  0.00  0.00    +0.000 OA
ENDROOT
BRANCH   2   4
ATOM      4  C   UNL     1      22.310   2.139  17.497  0.00  0.00    +0.000 A 
ATOM      5  C   UNL     1      21.587   3.007  18.283  0.00  0.00    +0.000 A 
ATOM      6  C   UNL     1      20.202   2.984  18.310  0.00  0.00    +0.000 A 
ATOM      7 CL   UNL     1      19.249   4.068  19.291  0.00  0.00    +0.000 Cl
ATOM      8  C   UNL     1      19.564   2.063  17.523  0.00  0.00    +0.000 A 
ATOM      9  C   UNL     1      20.277   1.187  16.731  0.00  0.00    +0.000 A 
ATOM     10  C   UNL     1      21.662   1.228  16.719  0.00  0.00    +0.000 A 
ATOM     11  O   UNL     1      22.420   0.358  15.932  0.00  0.00    +0.000 OA
ENDBRANCH   2   4
BRANCH   1  12
ATOM     12  N   UNL     1      25.885   3.239  16.874  0.00  0.00    +0.000 NA
BRANCH  12  16
ATOM     13  C   UNL     1      27.696   6.267  18.949  0.00  0.00    +0.000 C 
ATOM     14  C   UNL     1      28.396   6.082  17.493  0.00  0.00    +0.000 C 
ATOM     15  C   UNL     1      27.722   4.695  17.123  0.00  0.00    +0.000 C 
ATOM     16  C   UNL     1      26.470   4.504  17.215  0.00  0.00    +0.000 C 
ATOM     17  C   UNL     1      25.535   5.562  17.675  0.00  0.00    +0.000 C 
ATOM     18  C   UNL     1      26.002   6.920  17.226  0.00  0.00    +0.000 C 
ATOM     19  C   UNL     1      27.340   6.988  16.668  0.00  0.00    +0.000 C 
ENDBRANCH  12  16
ENDBRANCH   1  12
TORSDOF 3
ENDMDL
MODEL 9
REMARK VINA RESULT:      -5.7     21.054     22.597
REMARK  Name = 
REMARK  3 active torsions:
REMARK  status: ('A' for Active; 'I' for Inactive)
REMARK    1  A    between atoms: C_4  and  N_5
REMARK    2  A    between atoms: N_5  and  N_6
REMARK    3  A    between atoms: C_7  and  C_9
REMARK                            x       y       z     vdW  Elec       q    Type
REMARK                         _______ _______ _______ _____ _____    ______ ____
ROOT
ATOM      1  N   UNL     1      15.732  -7.895  25.662  0.00  0.00    +0.000 NA
ATOM      2  C   UNL     1      16.876  -8.084  26.485  0.00  0.00    +0.000 C 
ATOM      3  O   UNL     1      16.737  -8.791  27.499  0.00  0.00    +0.000 OA
ENDROOT
BRANCH   2   4
ATOM      4  C   UNL     1      18.160  -7.472  26.150  0.00  0.00    +0.000 A 
ATOM      5  C   UNL     1      19.151  -8.197  25.527  0.00  0.00    +0.000 A 
ATOM      6  C   UNL     1      20.374  -7.633  25.205  0.00  0.00    +0.000 A 
ATOM      7 CL   UNL     1      21.654  -8.516  24.414  0.00  0.00    +0.000 Cl
ATOM      8  C   UNL     1      20.574  -6.317  25.529  0.00  0.00    +0.000 A 
ATOM      9  C   UNL     1      19.590  -5.580  26.154  0.00  0.00    +0.000 A 
ATOM     10  C   UNL     1      18.374  -6.165  26.466  0.00  0.00    +0.000 A 
ATOM     11  O   UNL     1      17.353  -5.452  27.100  0.00  0.00    +0.000 OA
ENDBRANCH   2   4
BRANCH   1  12
ATOM     12  N   UNL     1      14.514  -8.503  26.021  0.00  0.00    +0.000 NA
BRANCH  12  16
ATOM     13  C   UNL     1      11.945 -10.153  23.293  0.00  0.00    +0.000 C 
ATOM     14  C   UNL     1      11.307  -8.796  23.922  0.00  0.00    +0.000 C 
ATOM     15  C   UNL     1      12.342  -8.622  25.111  0.00  0.00    +0.000 C 
ATOM     16  C   UNL     1      13.598  -8.665  24.927  0.00  0.00    +0.000 C 
ATOM     17  C   UNL     1      14.200  -8.880  23.587  0.00  0.00    +0.000 C 
ATOM     18  C   UNL     1      13.360  -8.241  22.515  0.00  0.00    +0.000 C 
ATOM     19  C   UNL     1      12.051  -7.766  22.922  0.00  0.00    +0.000 C 
ENDBRANCH  12  16
ENDBRANCH   1  12
TORSDOF 3
ENDMDL
MODEL 10
REMARK VINA RESULT:      -5.6     17.144     17.842
REMARK  Name = 
REMARK  3 active torsions:
REMARK  status: ('A' for Active; 'I' for Inactive)
REMARK    1  A    between atoms: C_4  and  N_5
REMARK    2  A    between atoms: N_5  and  N_6
REMARK    3  A    between atoms: C_7  and  C_9
REMARK                            x       y       z     vdW  Elec       q    Type
REMARK                         _______ _______ _______ _____ _____    ______ ____
ROOT
ATOM      1  N   UNL     1      28.575  23.156  30.327  0.00  0.00    +0.000 NA
ATOM      2  C   UNL     1      27.255  22.784  29.953  0.00  0.00    +0.000 C 
ATOM      3  O   UNL     1      26.851  21.668  30.328  0.00  0.00    +0.000 OA
ENDROOT
BRANCH   2   4
ATOM      4  C   UNL     1      26.411  23.676  29.161  0.00  0.00    +0.000 A 
ATOM      5  C   UNL     1      26.372  23.583  27.788  0.00  0.00    +0.000 A 
ATOM      6  C   UNL     1      25.578  24.422  27.022  0.00  0.00    +0.000 A 
ATOM      7 CL   UNL     1      25.500  24.335  25.282  0.00  0.00    +0.000 Cl
ATOM      8  C   UNL     1      24.824  25.358  27.677  0.00  0.00    +0.000 A 
ATOM      9  C   UNL     1      24.855  25.462  29.053  0.00  0.00    +0.000 A 
ATOM     10  C   UNL     1      25.655  24.612  29.798  0.00  0.00    +0.000 A 
ATOM     11  O   UNL     1      25.714  24.686  31.192  0.00  0.00    +0.000 OA
ENDBRANCH   2   4
BRANCH   1  12
ATOM     12  N   UNL     1      29.355  22.267  31.091  0.00  0.00    +0.000 NA
BRANCH  12  16
ATOM     13  C   UNL     1      33.377  23.024  31.004  0.00  0.00    +0.000 C 
ATOM     14  C   UNL     1      33.101  21.424  30.923  0.00  0.00    +0.000 C 
ATOM     15  C   UNL     1      31.562  21.468  31.304  0.00  0.00    +0.000 C 
ATOM     16  C   UNL     1      30.743  22.247  30.727  0.00  0.00    +0.000 C 
ATOM     17  C   UNL     1      31.157  23.180  29.648  0.00  0.00    +0.000 C 
ATOM     18  C   UNL     1      32.254  22.577  28.812  0.00  0.00    +0.000 C 
ATOM     19  C   UNL     1      32.859  21.362  29.325  0.00  0.00    +0.000 C 
ENDBRANCH  12  16
ENDBRANCH   1  12
TORSDOF 3
ENDMDL
