MODEL 1
REMARK VINA RESULT:      -7.1      0.000      0.000
REMARK  Name = 
REMARK  3 active torsions:
REMARK  status: ('A' for Active; 'I' for Inactive)
REMARK    1  A    between atoms: C_2  and  C_12
REMARK    2  A    between atoms: N_3  and  N_4
REMARK    3  A    between atoms: N_4  and  C_5
REMARK                            x       y       z     vdW  Elec       q    Type
REMARK                         _______ _______ _______ _____ _____    ______ ____
ROOT
ATOM      1  O   UNL     1      14.396  11.658  37.073  0.00  0.00    +0.000 OA
ATOM      2  C   UNL     1      15.520  11.442  36.523  0.00  0.00    +0.000 C 
ATOM      3  N   UNL     1      15.701  11.984  35.226  0.00  0.00    +0.000 NA
ENDROOT
BRANCH   2   4
ATOM      4  C   UNL     1      16.494  10.668  37.267  0.00  0.00    +0.000 A 
ATOM      5  C   UNL     1      16.337  10.518  38.645  0.00  0.00    +0.000 A 
ATOM      6  C   UNL     1      17.206   9.810  39.405  0.00  0.00    +0.000 A 
ATOM      7  C   UNL     1      18.313   9.201  38.794  0.00  0.00    +0.000 A 
ATOM      8 BR   UNL     1      19.551   8.200  39.833  0.00  0.00    +0.000 Br
ATOM      9  C   UNL     1      18.469   9.348  37.450  0.00  0.00    +0.000 A 
ATOM     10  C   UNL     1      17.588  10.069  36.658  0.00  0.00    +0.000 A 
ENDBRANCH   2   4
BRANCH   3  11
ATOM     11  N   UNL     1      14.719  12.719  34.561  0.00  0.00    +0.000 NA
BRANCH  11  12
ATOM     12  C   UNL     1      14.598  12.519  33.155  0.00  0.00    +0.000 C 
ATOM     13  C   UNL     1      14.053  13.527  32.454  0.00  0.00    +0.000 C 
ATOM     14  C   UNL     1      13.832  13.531  30.990  0.00  0.00    +0.000 C 
ATOM     15  C   UNL     1      15.049  13.188  30.197  0.00  0.00    +0.000 C 
ATOM     16  C   UNL     1      16.188  12.726  31.070  0.00  0.00    +0.000 C 
ATOM     17  C   UNL     1      15.991  11.295  31.500  0.00  0.00    +0.000 C 
ATOM     18  C   UNL     1      15.098  11.203  32.692  0.00  0.00    +0.000 C 
ENDBRANCH  11  12
ENDBRANCH   3  11
TORSDOF 3
ENDMDL
MODEL 2
REMARK VINA RESULT:      -6.6      2.278      2.611
REMARK  Name = 
REMARK  3 active torsions:
REMARK  status: ('A' for Active; 'I' for Inactive)
REMARK    1  A    between atoms: C_2  and  C_12
REMARK    2  A    between atoms: N_3  and  N_4
REMARK    3  A    between atoms: N_4  and  C_5
REMARK                            x       y       z     vdW  Elec       q    Type
REMARK                         _______ _______ _______ _____ _____    ______ ____
ROOT
ATOM      1  O   UNL     1      17.575   8.551  35.206  0.00  0.00    +0.000 OA
ATOM      2  C   UNL     1      17.780   9.797  35.331  0.00  0.00    +0.000 C 
ATOM      3  N   UNL     1      17.138  10.639  34.390  0.00  0.00    +0.000 NA
ENDROOT
BRANCH   2   4
ATOM      4  C   UNL     1      18.644  10.230  36.412  0.00  0.00    +0.000 A 
ATOM      5  C   UNL     1      18.190  11.206  37.299  0.00  0.00    +0.000 A 
ATOM      6  C   UNL     1      18.942  11.659  38.331  0.00  0.00    +0.000 A 
ATOM      7  C   UNL     1      20.229  11.135  38.524  0.00  0.00    +0.000 A 
ATOM      8 BR   UNL     1      21.308  11.749  39.965  0.00  0.00    +0.000 Br
ATOM      9  C   UNL     1      20.674  10.184  37.659  0.00  0.00    +0.000 A 
ATOM     10  C   UNL     1      19.917   9.708  36.598  0.00  0.00    +0.000 A 
ENDBRANCH   2   4
BRANCH   3  11
ATOM     11  N   UNL     1      16.318  10.158  33.368  0.00  0.00    +0.000 NA
BRANCH  11  12
ATOM     12  C   UNL     1      15.304  11.033  32.882  0.00  0.00    +0.000 C 
ATOM     13  C   UNL     1      15.130  12.180  33.560  0.00  0.00    +0.000 C 
ATOM     14  C   UNL     1      14.137  13.227  33.232  0.00  0.00    +0.000 C 
ATOM     15  C   UNL     1      14.187  13.680  31.810  0.00  0.00    +0.000 C 
ATOM     16  C   UNL     1      15.114  12.834  30.974  0.00  0.00    +0.000 C 
ATOM     17  C   UNL     1      14.458  11.529  30.598  0.00  0.00    +0.000 C 
ATOM     18  C   UNL     1      14.591  10.519  31.688  0.00  0.00    +0.000 C 
ENDBRANCH  11  12
ENDBRANCH   3  11
TORSDOF 3
ENDMDL
MODEL 3
REMARK VINA RESULT:      -6.6      3.637      7.922
REMARK  Name = 
REMARK  3 active torsions:
REMARK  status: ('A' for Active; 'I' for Inactive)
REMARK    1  A    between atoms: C_2  and  C_12
REMARK    2  A    between atoms: N_3  and  N_4
REMARK    3  A    between atoms: N_4  and  C_5
REMARK                            x       y       z     vdW  Elec       q    Type
REMARK                         _______ _______ _______ _____ _____    ______ ____
ROOT
ATOM      1  O   UNL     1      18.930   9.400  35.860  0.00  0.00    +0.000 OA
ATOM      2  C   UNL     1      17.841   9.944  36.220  0.00  0.00    +0.000 C 
ATOM      3  N   UNL     1      17.533   9.884  37.602  0.00  0.00    +0.000 NA
ENDROOT
BRANCH   2   4
ATOM      4  C   UNL     1      17.028  10.563  35.192  0.00  0.00    +0.000 A 
ATOM      5  C   UNL     1      17.301  10.291  33.850  0.00  0.00    +0.000 A 
ATOM      6  C   UNL     1      16.585  10.833  32.837  0.00  0.00    +0.000 A 
ATOM      7  C   UNL     1      15.527  11.706  33.134  0.00  0.00    +0.000 A 
ATOM      8 BR   UNL     1      14.502  12.482  31.733  0.00  0.00    +0.000 Br
ATOM      9  C   UNL     1      15.261  11.974  34.442  0.00  0.00    +0.000 A 
ATOM     10  C   UNL     1      15.983  11.426  35.491  0.00  0.00    +0.000 A 
ENDBRANCH   2   4
BRANCH   3  11
ATOM     11  N   UNL     1      18.359   9.268  38.543  0.00  0.00    +0.000 NA
BRANCH  11  12
ATOM     12  C   UNL     1      17.818   9.059  39.844  0.00  0.00    +0.000 C 
ATOM     13  C   UNL     1      16.570   9.512  40.051  0.00  0.00    +0.000 C 
ATOM     14  C   UNL     1      15.820   9.404  41.323  0.00  0.00    +0.000 C 
ATOM     15  C   UNL     1      15.771   8.018  41.877  0.00  0.00    +0.000 C 
ATOM     16  C   UNL     1      16.661   7.067  41.116  0.00  0.00    +0.000 C 
ATOM     17  C   UNL     1      18.104   7.243  41.517  0.00  0.00    +0.000 C 
ATOM     18  C   UNL     1      18.743   8.367  40.774  0.00  0.00    +0.000 C 
ENDBRANCH  11  12
ENDBRANCH   3  11
TORSDOF 3
ENDMDL
MODEL 4
REMARK VINA RESULT:      -6.5      3.443      7.164
REMARK  Name = 
REMARK  3 active torsions:
REMARK  status: ('A' for Active; 'I' for Inactive)
REMARK    1  A    between atoms: C_2  and  C_12
REMARK    2  A    between atoms: N_3  and  N_4
REMARK    3  A    between atoms: N_4  and  C_5
REMARK                            x       y       z     vdW  Elec       q    Type
REMARK                         _______ _______ _______ _____ _____    ______ ____
ROOT
ATOM      1  O   UNL     1      15.349  11.784  37.354  0.00  0.00    +0.000 OA
ATOM      2  C   UNL     1      15.884  11.386  36.274  0.00  0.00    +0.000 C 
ATOM      3  N   UNL     1      16.928  10.437  36.401  0.00  0.00    +0.000 NA
ENDROOT
BRANCH   2   4
ATOM      4  C   UNL     1      15.381  11.939  35.032  0.00  0.00    +0.000 A 
ATOM      5  C   UNL     1      15.813  11.399  33.820  0.00  0.00    +0.000 A 
ATOM      6  C   UNL     1      15.386  11.863  32.622  0.00  0.00    +0.000 A 
ATOM      7  C   UNL     1      14.477  12.931  32.584  0.00  0.00    +0.000 A 
ATOM      8 BR   UNL     1      13.858  13.605  30.917  0.00  0.00    +0.000 Br
ATOM      9  C   UNL     1      14.055  13.461  33.765  0.00  0.00    +0.000 A 
ATOM     10  C   UNL     1      14.481  12.996  35.000  0.00  0.00    +0.000 A 
ENDBRANCH   2   4
BRANCH   3  11
ATOM     11  N   UNL     1      17.369   9.945  37.630  0.00  0.00    +0.000 NA
BRANCH  11  12
ATOM     12  C   UNL     1      18.776   9.925  37.855  0.00  0.00    +0.000 C 
ATOM     13  C   UNL     1      19.554   9.832  36.763  0.00  0.00    +0.000 C 
ATOM     14  C   UNL     1      21.034   9.793  36.766  0.00  0.00    +0.000 C 
ATOM     15  C   UNL     1      21.664  10.907  37.534  0.00  0.00    +0.000 C 
ATOM     16  C   UNL     1      20.648  11.720  38.298  0.00  0.00    +0.000 C 
ATOM     17  C   UNL     1      20.227  11.007  39.559  0.00  0.00    +0.000 C 
ATOM     18  C   UNL     1      19.155  10.005  39.286  0.00  0.00    +0.000 C 
ENDBRANCH  11  12
ENDBRANCH   3  11
TORSDOF 3
ENDMDL
MODEL 5
REMARK VINA RESULT:      -6.4     20.048     21.096
REMARK  Name = 
REMARK  3 active torsions:
REMARK  status: ('A' for Active; 'I' for Inactive)
REMARK    1  A    between atoms: C_2  and  C_12
REMARK    2  A    between atoms: N_3  and  N_4
REMARK    3  A    between atoms: N_4  and  C_5
REMARK                            x       y       z     vdW  Elec       q    Type
REMARK                         _______ _______ _______ _____ _____    ______ ____
ROOT
ATOM      1  O   UNL     1      34.059   1.679  32.438  0.00  0.00    +0.000 OA
ATOM      2  C   UNL     1      33.658   1.391  33.608  0.00  0.00    +0.000 C 
ATOM      3  N   UNL     1      33.566   2.468  34.525  0.00  0.00    +0.000 NA
ENDROOT
BRANCH   2   4
ATOM      4  C   UNL     1      33.341   0.004  33.886  0.00  0.00    +0.000 A 
ATOM      5  C   UNL     1      32.367  -0.294  34.840  0.00  0.00    +0.000 A 
ATOM      6  C   UNL     1      32.018  -1.565  35.151  0.00  0.00    +0.000 A 
ATOM      7  C   UNL     1      32.656  -2.631  34.500  0.00  0.00    +0.000 A 
ATOM      8 BR   UNL     1      32.188  -4.427  34.915  0.00  0.00    +0.000 Br
ATOM      9  C   UNL     1      33.608  -2.342  33.571  0.00  0.00    +0.000 A 
ATOM     10  C   UNL     1      33.976  -1.047  33.239  0.00  0.00    +0.000 A 
ENDBRANCH   2   4
BRANCH   3  11
ATOM     11  N   UNL     1      33.890   3.784  34.194  0.00  0.00    +0.000 NA
BRANCH  11  12
ATOM     12  C   UNL     1      34.531   4.567  35.197  0.00  0.00    +0.000 C 
ATOM     13  C   UNL     1      34.780   3.952  36.365  0.00  0.00    +0.000 C 
ATOM     14  C   UNL     1      35.432   4.575  37.539  0.00  0.00    +0.000 C 
ATOM     15  C   UNL     1      36.731   5.240  37.224  0.00  0.00    +0.000 C 
ATOM     16  C   UNL     1      37.000   5.294  35.741  0.00  0.00    +0.000 C 
ATOM     17  C   UNL     1      36.207   6.400  35.091  0.00  0.00    +0.000 C 
ATOM     18  C   UNL     1      34.815   5.960  34.778  0.00  0.00    +0.000 C 
ENDBRANCH  11  12
ENDBRANCH   3  11
TORSDOF 3
ENDMDL
MODEL 6
REMARK VINA RESULT:      -6.3      4.269      7.620
REMARK  Name = 
REMARK  3 active torsions:
REMARK  status: ('A' for Active; 'I' for Inactive)
REMARK    1  A    between atoms: C_2  and  C_12
REMARK    2  A    between atoms: N_3  and  N_4
REMARK    3  A    between atoms: N_4  and  C_5
REMARK                            x       y       z     vdW  Elec       q    Type
REMARK                         _______ _______ _______ _____ _____    ______ ____
ROOT
ATOM      1  O   UNL     1      17.532  11.077  37.605  0.00  0.00    +0.000 OA
ATOM      2  C   UNL     1      17.953  10.582  36.514  0.00  0.00    +0.000 C 
ATOM      3  N   UNL     1      19.180   9.876  36.576  0.00  0.00    +0.000 NA
ENDROOT
BRANCH   2   4
ATOM      4  C   UNL     1      17.148  10.789  35.327  0.00  0.00    +0.000 A 
ATOM      5  C   UNL     1      17.579  10.263  34.109  0.00  0.00    +0.000 A 
ATOM      6  C   UNL     1      16.879  10.416  32.960  0.00  0.00    +0.000 A 
ATOM      7  C   UNL     1      15.673  11.133  32.982  0.00  0.00    +0.000 A 
ATOM      8 BR   UNL     1      14.667  11.364  31.385  0.00  0.00    +0.000 Br
ATOM      9  C   UNL     1      15.251  11.649  34.169  0.00  0.00    +0.000 A 
ATOM     10  C   UNL     1      15.955  11.499  35.355  0.00  0.00    +0.000 A 
ENDBRANCH   2   4
BRANCH   3  11
ATOM     11  N   UNL     1      19.911   9.715  37.754  0.00  0.00    +0.000 NA
BRANCH  11  12
ATOM     12  C   UNL     1      21.331   9.786  37.652  0.00  0.00    +0.000 C 
ATOM     13  C   UNL     1      21.837   9.861  36.410  0.00  0.00    +0.000 C 
ATOM     14  C   UNL     1      23.277   9.941  36.075  0.00  0.00    +0.000 C 
ATOM     15  C   UNL     1      24.005  11.023  36.802  0.00  0.00    +0.000 C 
ATOM     16  C   UNL     1      23.151  11.674  37.861  0.00  0.00    +0.000 C 
ATOM     17  C   UNL     1      23.075  10.812  39.096  0.00  0.00    +0.000 C 
ATOM     18  C   UNL     1      22.027   9.758  38.961  0.00  0.00    +0.000 C 
ENDBRANCH  11  12
ENDBRANCH   3  11
TORSDOF 3
ENDMDL
MODEL 7
REMARK VINA RESULT:      -6.2      3.924      8.384
REMARK  Name = 
REMARK  3 active torsions:
REMARK  status: ('A' for Active; 'I' for Inactive)
REMARK    1  A    between atoms: C_2  and  C_12
REMARK    2  A    between atoms: N_3  and  N_4
REMARK    3  A    between atoms: N_4  and  C_5
REMARK                            x       y       z     vdW  Elec       q    Type
REMARK                         _______ _______ _______ _____ _____    ______ ____
ROOT
ATOM      1  O   UNL     1      19.043   9.306  37.658  0.00  0.00    +0.000 OA
ATOM      2  C   UNL     1      17.897   9.852  37.638  0.00  0.00    +0.000 C 
ATOM      3  N   UNL     1      17.239   9.983  38.886  0.00  0.00    +0.000 NA
ENDROOT
BRANCH   2   4
ATOM      4  C   UNL     1      17.380  10.280  36.353  0.00  0.00    +0.000 A 
ATOM      5  C   UNL     1      17.951   9.774  35.185  0.00  0.00    +0.000 A 
ATOM      6  C   UNL     1      17.521  10.128  33.951  0.00  0.00    +0.000 A 
ATOM      7  C   UNL     1      16.463  11.042  33.829  0.00  0.00    +0.000 A 
ATOM      8 BR   UNL     1      15.835  11.558  32.110  0.00  0.00    +0.000 Br
ATOM      9  C   UNL     1      15.906  11.538  34.967  0.00  0.00    +0.000 A 
ATOM     10  C   UNL     1      16.334  11.185  36.238  0.00  0.00    +0.000 A 
ENDBRANCH   2   4
BRANCH   3  11
ATOM     11  N   UNL     1      17.792   9.545  40.091  0.00  0.00    +0.000 NA
BRANCH  11  12
ATOM     12  C   UNL     1      17.281   8.332  40.637  0.00  0.00    +0.000 C 
ATOM     13  C   UNL     1      18.058   7.245  40.504  0.00  0.00    +0.000 C 
ATOM     14  C   UNL     1      17.723   5.888  40.994  0.00  0.00    +0.000 C 
ATOM     15  C   UNL     1      17.330   5.848  42.433  0.00  0.00    +0.000 C 
ATOM     16  C   UNL     1      17.175   7.227  43.022  0.00  0.00    +0.000 C 
ATOM     17  C   UNL     1      15.859   7.842  42.617  0.00  0.00    +0.000 C 
ATOM     18  C   UNL     1      15.947   8.475  41.268  0.00  0.00    +0.000 C 
ENDBRANCH  11  12
ENDBRANCH   3  11
TORSDOF 3
ENDMDL
MODEL 8
REMARK VINA RESULT:      -6.1     22.566     25.171
REMARK  Name = 
REMARK  3 active torsions:
REMARK  status: ('A' for Active; 'I' for Inactive)
REMARK    1  A    between atoms: C_2  and  C_12
REMARK    2  A    between atoms: N_3  and  N_4
REMARK    3  A    between atoms: N_4  and  C_5
REMARK                            x       y       z     vdW  Elec       q    Type
REMARK                         _______ _______ _______ _____ _____    ______ ____
ROOT
ATOM      1  O   UNL     1      27.904  26.263  21.151  0.00  0.00    +0.000 OA
ATOM      2  C   UNL     1      29.068  26.093  20.674  0.00  0.00    +0.000 C 
ATOM      3  N   UNL     1      29.664  24.827  20.903  0.00  0.00    +0.000 NA
ENDROOT
BRANCH   2   4
ATOM      4  C   UNL     1      29.667  27.199  19.954  0.00  0.00    +0.000 A 
ATOM      5  C   UNL     1      30.366  26.946  18.773  0.00  0.00    +0.000 A 
ATOM      6  C   UNL     1      30.950  27.929  18.047  0.00  0.00    +0.000 A 
ATOM      7  C   UNL     1      30.859  29.257  18.491  0.00  0.00    +0.000 A 
ATOM      8 BR   UNL     1      31.668  30.659  17.493  0.00  0.00    +0.000 Br
ATOM      9  C   UNL     1      30.178  29.505  19.643  0.00  0.00    +0.000 A 
ATOM     10  C   UNL     1      29.573  28.511  20.397  0.00  0.00    +0.000 A 
ENDBRANCH   2   4
BRANCH   3  11
ATOM     11  N   UNL     1      29.035  23.802  21.609  0.00  0.00    +0.000 NA
BRANCH  11  12
ATOM     12  C   UNL     1      29.208  23.786  23.024  0.00  0.00    +0.000 C 
ATOM     13  C   UNL     1      28.265  23.145  23.733  0.00  0.00    +0.000 C 
ATOM     14  C   UNL     1      28.246  23.008  25.207  0.00  0.00    +0.000 C 
ATOM     15  C   UNL     1      29.518  22.474  25.778  0.00  0.00    +0.000 C 
ATOM     16  C   UNL     1      30.610  22.372  24.743  0.00  0.00    +0.000 C 
ATOM     17  C   UNL     1      31.226  23.722  24.474  0.00  0.00    +0.000 C 
ATOM     18  C   UNL     1      30.422  24.500  23.486  0.00  0.00    +0.000 C 
ENDBRANCH  11  12
ENDBRANCH   3  11
TORSDOF 3
ENDMDL
MODEL 9
REMARK VINA RESULT:      -6.1     19.291     20.756
REMARK  Name = 
REMARK  3 active torsions:
REMARK  status: ('A' for Active; 'I' for Inactive)
REMARK    1  A    between atoms: C_2  and  C_12
REMARK    2  A    between atoms: N_3  and  N_4
REMARK    3  A    between atoms: N_4  and  C_5
REMARK                            x       y       z     vdW  Elec       q    Type
REMARK                         _______ _______ _______ _____ _____    ______ ____
ROOT
ATOM      1  O   UNL     1      33.588   3.241  32.518  0.00  0.00    +0.000 OA
ATOM      2  C   UNL     1      33.710   2.849  33.719  0.00  0.00    +0.000 C 
ATOM      3  N   UNL     1      33.822   3.862  34.704  0.00  0.00    +0.000 NA
ENDROOT
BRANCH   2   4
ATOM      4  C   UNL     1      33.726   1.420  33.960  0.00  0.00    +0.000 A 
ATOM      5  C   UNL     1      33.963   0.551  32.894  0.00  0.00    +0.000 A 
ATOM      6  C   UNL     1      33.993  -0.794  33.044  0.00  0.00    +0.000 A 
ATOM      7  C   UNL     1      33.775  -1.348  34.315  0.00  0.00    +0.000 A 
ATOM      8 BR   UNL     1      33.811  -3.234  34.558  0.00  0.00    +0.000 Br
ATOM      9  C   UNL     1      33.541  -0.502  35.355  0.00  0.00    +0.000 A 
ATOM     10  C   UNL     1      33.510   0.877  35.219  0.00  0.00    +0.000 A 
ENDBRANCH   2   4
BRANCH   3  11
ATOM     11  N   UNL     1      33.804   5.225  34.405  0.00  0.00    +0.000 NA
BRANCH  11  12
ATOM     12  C   UNL     1      34.718   6.058  35.112  0.00  0.00    +0.000 C 
ATOM     13  C   UNL     1      34.179   7.028  35.868  0.00  0.00    +0.000 C 
ATOM     14  C   UNL     1      34.940   8.004  36.681  0.00  0.00    +0.000 C 
ATOM     15  C   UNL     1      35.937   7.376  37.597  0.00  0.00    +0.000 C 
ATOM     16  C   UNL     1      36.083   5.895  37.355  0.00  0.00    +0.000 C 
ATOM     17  C   UNL     1      36.939   5.629  36.142  0.00  0.00    +0.000 C 
ATOM     18  C   UNL     1      36.142   5.713  34.884  0.00  0.00    +0.000 C 
ENDBRANCH  11  12
ENDBRANCH   3  11
TORSDOF 3
ENDMDL
MODEL 10
REMARK VINA RESULT:      -6.0     20.978     23.234
REMARK  Name = 
REMARK  3 active torsions:
REMARK  status: ('A' for Active; 'I' for Inactive)
REMARK    1  A    between atoms: C_2  and  C_12
REMARK    2  A    between atoms: N_3  and  N_4
REMARK    3  A    between atoms: N_4  and  C_5
REMARK                            x       y       z     vdW  Elec       q    Type
REMARK                         _______ _______ _______ _____ _____    ______ ____
ROOT
ATOM      1  O   UNL     1      33.786  -2.940  35.369  0.00  0.00    +0.000 OA
ATOM      2  C   UNL     1      33.664  -2.503  34.184  0.00  0.00    +0.000 C 
ATOM      3  N   UNL     1      33.547  -3.479  33.162  0.00  0.00    +0.000 NA
ENDROOT
BRANCH   2   4
ATOM      4  C   UNL     1      33.659  -1.066  33.995  0.00  0.00    +0.000 A 
ATOM      5  C   UNL     1      33.237  -0.242  35.039  0.00  0.00    +0.000 A 
ATOM      6  C   UNL     1      33.206   1.108  34.935  0.00  0.00    +0.000 A 
ATOM      7  C   UNL     1      33.610   1.713  33.735  0.00  0.00    +0.000 A 
ATOM      8 BR   UNL     1      33.579   3.606  33.558  0.00  0.00    +0.000 Br
ATOM      9  C   UNL     1      34.020   0.911  32.715  0.00  0.00    +0.000 A 
ATOM     10  C   UNL     1      34.059  -0.473  32.806  0.00  0.00    +0.000 A 
ENDBRANCH   2   4
BRANCH   3  11
ATOM     11  N   UNL     1      33.561  -4.851  33.411  0.00  0.00    +0.000 NA
BRANCH  11  12
ATOM     12  C   UNL     1      33.537  -5.717  32.279  0.00  0.00    +0.000 C 
ATOM     13  C   UNL     1      32.326  -6.132  31.871  0.00  0.00    +0.000 C 
ATOM     14  C   UNL     1      32.070  -7.032  30.724  0.00  0.00    +0.000 C 
ATOM     15  C   UNL     1      32.720  -6.589  29.455  0.00  0.00    +0.000 C 
ATOM     16  C   UNL     1      33.652  -5.422  29.667  0.00  0.00    +0.000 C 
ATOM     17  C   UNL     1      34.964  -5.881  30.250  0.00  0.00    +0.000 C 
ATOM     18  C   UNL     1      34.880  -6.028  31.733  0.00  0.00    +0.000 C 
ENDBRANCH  11  12
ENDBRANCH   3  11
TORSDOF 3
ENDMDL
