MODEL 1
REMARK VINA RESULT:      -6.9      0.000      0.000
REMARK  Name = 
REMARK  4 active torsions:
REMARK  status: ('A' for Active; 'I' for Inactive)
REMARK    1  A    between atoms: C_2  and  C_3
REMARK    2  A    between atoms: C_4  and  C_5
REMARK    3  A    between atoms: N_13  and  C_14
REMARK    4  A    between atoms: C_20  and  C_21
REMARK                            x       y       z     vdW  Elec       q    Type
REMARK                         _______ _______ _______ _____ _____    ______ ____
ROOT
ATOM      1  C   UNL     1      18.992   9.647  40.409  0.00  0.00    +0.000 A 
ATOM      2  C   UNL     1      17.635   9.434  40.609  0.00  0.00    +0.000 A 
ATOM      3  N   UNL     1      17.015   9.710  39.453  0.00  0.00    +0.000 NA
ATOM      4  N   UNL     1      17.867  10.087  38.515  0.00  0.00    +0.000 N 
ATOM      5  C   UNL     1      19.084  10.054  39.086  0.00  0.00    +0.000 A 
ENDROOT
BRANCH   2   6
ATOM      6  C   UNL     1      17.043   8.993  41.851  0.00  0.00    +0.000 A 
ATOM      7  C   UNL     1      16.797   9.860  42.888  0.00  0.00    +0.000 A 
ATOM      8  C   UNL     1      16.235   9.393  44.051  0.00  0.00    +0.000 A 
ATOM      9  C   UNL     1      15.915   8.052  44.181  0.00  0.00    +0.000 A 
ATOM     10  O   UNL     1      15.345   7.590  45.365  0.00  0.00    +0.000 OA
ATOM     11  C   UNL     1      16.148   7.174  43.165  0.00  0.00    +0.000 A 
ATOM     12  C   UNL     1      16.719   7.665  41.997  0.00  0.00    +0.000 A 
ENDBRANCH   2   6
BRANCH   5  13
ATOM     13  C   UNL     1      20.347  10.396  38.415  0.00  0.00    +0.000 A 
ATOM     14  C   UNL     1      20.984  11.590  38.674  0.00  0.00    +0.000 A 
ATOM     15  C   UNL     1      22.180  11.931  38.049  0.00  0.00    +0.000 A 
ATOM     16  C   UNL     1      22.770  11.076  37.142  0.00  0.00    +0.000 A 
ATOM     17  O   UNL     1      23.967  11.393  36.502  0.00  0.00    +0.000 OA
ATOM     18  C   UNL     1      22.131   9.882  36.884  0.00  0.00    +0.000 A 
ATOM     19  C   UNL     1      20.932   9.542  37.511  0.00  0.00    +0.000 A 
ENDBRANCH   5  13
BRANCH   4  20
ATOM     20  C   UNL     1      17.561  10.456  37.165  0.00  0.00    +0.000 A 
ATOM     21  C   UNL     1      17.197  11.755  36.887  0.00  0.00    +0.000 A 
ATOM     22  C   UNL     1      16.889  12.172  35.608  0.00  0.00    +0.000 A 
ATOM     23  C   UNL     1      16.945  11.258  34.553  0.00  0.00    +0.000 A 
ATOM     24  C   UNL     1      17.303   9.965  34.810  0.00  0.00    +0.000 A 
ATOM     25  C   UNL     1      17.610   9.568  36.112  0.00  0.00    +0.000 A 
ENDBRANCH   4  20
BRANCH   1  27
ATOM     26  C   UNL     1      20.673   8.076  41.316  0.00  0.00    +0.000 C 
ATOM     27  C   UNL     1      20.097   9.478  41.393  0.00  0.00    +0.000 C 
ENDBRANCH   1  27
TORSDOF 4
ENDMDL
MODEL 2
REMARK VINA RESULT:      -6.8     19.368     22.192
REMARK  Name = 
REMARK  4 active torsions:
REMARK  status: ('A' for Active; 'I' for Inactive)
REMARK    1  A    between atoms: C_2  and  C_3
REMARK    2  A    between atoms: C_4  and  C_5
REMARK    3  A    between atoms: N_13  and  C_14
REMARK    4  A    between atoms: C_20  and  C_21
REMARK                            x       y       z     vdW  Elec       q    Type
REMARK                         _______ _______ _______ _____ _____    ______ ____
ROOT
ATOM      1  C   UNL     1      32.479  -4.484  34.126  0.00  0.00    +0.000 A 
ATOM      2  C   UNL     1      33.334  -3.472  33.713  0.00  0.00    +0.000 A 
ATOM      3  N   UNL     1      33.816  -3.823  32.513  0.00  0.00    +0.000 NA
ATOM      4  N   UNL     1      33.340  -4.989  32.112  0.00  0.00    +0.000 N 
ATOM      5  C   UNL     1      32.518  -5.408  33.091  0.00  0.00    +0.000 A 
ENDROOT
BRANCH   2   6
ATOM      6  C   UNL     1      33.621  -2.275  34.470  0.00  0.00    +0.000 A 
ATOM      7  C   UNL     1      34.668  -2.207  35.357  0.00  0.00    +0.000 A 
ATOM      8  C   UNL     1      34.899  -1.048  36.055  0.00  0.00    +0.000 A 
ATOM      9  C   UNL     1      34.080   0.053  35.868  0.00  0.00    +0.000 A 
ATOM     10  O   UNL     1      34.324   1.224  36.583  0.00  0.00    +0.000 OA
ATOM     11  C   UNL     1      33.036   0.010  34.994  0.00  0.00    +0.000 A 
ATOM     12  C   UNL     1      32.817  -1.172  34.296  0.00  0.00    +0.000 A 
ENDBRANCH   2   6
BRANCH   5  13
ATOM     13  C   UNL     1      31.757  -6.666  33.081  0.00  0.00    +0.000 A 
ATOM     14  C   UNL     1      30.506  -6.732  32.508  0.00  0.00    +0.000 A 
ATOM     15  C   UNL     1      29.772  -7.913  32.488  0.00  0.00    +0.000 A 
ATOM     16  C   UNL     1      30.277  -9.068  33.048  0.00  0.00    +0.000 A 
ATOM     17  O   UNL     1      29.563 -10.264  33.043  0.00  0.00    +0.000 OA
ATOM     18  C   UNL     1      31.529  -9.000  33.623  0.00  0.00    +0.000 A 
ATOM     19  C   UNL     1      32.265  -7.815  33.641  0.00  0.00    +0.000 A 
ENDBRANCH   5  13
BRANCH   4  20
ATOM     20  C   UNL     1      33.635  -5.670  30.888  0.00  0.00    +0.000 A 
ATOM     21  C   UNL     1      34.592  -6.661  30.880  0.00  0.00    +0.000 A 
ATOM     22  C   UNL     1      34.922  -7.354  29.733  0.00  0.00    +0.000 A 
ATOM     23  C   UNL     1      34.272  -7.050  28.534  0.00  0.00    +0.000 A 
ATOM     24  C   UNL     1      33.321  -6.069  28.522  0.00  0.00    +0.000 A 
ATOM     25  C   UNL     1      33.005  -5.384  29.695  0.00  0.00    +0.000 A 
ENDBRANCH   4  20
BRANCH   1  27
ATOM     26  C   UNL     1      32.519  -5.217  36.487  0.00  0.00    +0.000 C 
ATOM     27  C   UNL     1      31.699  -4.562  35.392  0.00  0.00    +0.000 C 
ENDBRANCH   1  27
TORSDOF 4
ENDMDL
MODEL 3
REMARK VINA RESULT:      -6.8      3.044      5.373
REMARK  Name = 
REMARK  4 active torsions:
REMARK  status: ('A' for Active; 'I' for Inactive)
REMARK    1  A    between atoms: C_2  and  C_3
REMARK    2  A    between atoms: C_4  and  C_5
REMARK    3  A    between atoms: N_13  and  C_14
REMARK    4  A    between atoms: C_20  and  C_21
REMARK                            x       y       z     vdW  Elec       q    Type
REMARK                         _______ _______ _______ _____ _____    ______ ____
ROOT
ATOM      1  C   UNL     1      16.972   9.791  39.406  0.00  0.00    +0.000 A 
ATOM      2  C   UNL     1      16.600  10.597  38.340  0.00  0.00    +0.000 A 
ATOM      3  N   UNL     1      17.722  10.938  37.689  0.00  0.00    +0.000 NA
ATOM      4  N   UNL     1      18.797  10.415  38.254  0.00  0.00    +0.000 N 
ATOM      5  C   UNL     1      18.354   9.709  39.308  0.00  0.00    +0.000 A 
ENDROOT
BRANCH   2   6
ATOM      6  C   UNL     1      15.241  10.973  38.023  0.00  0.00    +0.000 A 
ATOM      7  C   UNL     1      14.178  10.579  38.799  0.00  0.00    +0.000 A 
ATOM      8  C   UNL     1      12.904  10.960  38.456  0.00  0.00    +0.000 A 
ATOM      9  C   UNL     1      12.688  11.738  37.331  0.00  0.00    +0.000 A 
ATOM     10  O   UNL     1      11.391  12.117  36.992  0.00  0.00    +0.000 OA
ATOM     11  C   UNL     1      13.727  12.141  36.547  0.00  0.00    +0.000 A 
ATOM     12  C   UNL     1      15.010  11.745  36.909  0.00  0.00    +0.000 A 
ENDBRANCH   2   6
BRANCH   5  13
ATOM     13  C   UNL     1      19.202   8.947  40.238  0.00  0.00    +0.000 A 
ATOM     14  C   UNL     1      19.824   9.569  41.299  0.00  0.00    +0.000 A 
ATOM     15  C   UNL     1      20.629   8.865  42.189  0.00  0.00    +0.000 A 
ATOM     16  C   UNL     1      20.833   7.510  42.035  0.00  0.00    +0.000 A 
ATOM     17  O   UNL     1      21.635   6.781  42.911  0.00  0.00    +0.000 OA
ATOM     18  C   UNL     1      20.211   6.889  40.972  0.00  0.00    +0.000 A 
ATOM     19  C   UNL     1      19.403   7.597  40.081  0.00  0.00    +0.000 A 
ENDBRANCH   5  13
BRANCH   4  20
ATOM     20  C   UNL     1      20.157  10.567  37.831  0.00  0.00    +0.000 A 
ATOM     21  C   UNL     1      20.917  11.590  38.354  0.00  0.00    +0.000 A 
ATOM     22  C   UNL     1      22.232  11.790  37.987  0.00  0.00    +0.000 A 
ATOM     23  C   UNL     1      22.824  10.933  37.056  0.00  0.00    +0.000 A 
ATOM     24  C   UNL     1      22.086   9.913  36.525  0.00  0.00    +0.000 A 
ATOM     25  C   UNL     1      20.758   9.732  36.913  0.00  0.00    +0.000 A 
ENDBRANCH   4  20
BRANCH   1  27
ATOM     26  C   UNL     1      16.325   9.773  41.793  0.00  0.00    +0.000 C 
ATOM     27  C   UNL     1      16.089   9.160  40.425  0.00  0.00    +0.000 C 
ENDBRANCH   1  27
TORSDOF 4
ENDMDL
MODEL 4
REMARK VINA RESULT:      -6.6      2.980      6.542
REMARK  Name = 
REMARK  4 active torsions:
REMARK  status: ('A' for Active; 'I' for Inactive)
REMARK    1  A    between atoms: C_2  and  C_3
REMARK    2  A    between atoms: C_4  and  C_5
REMARK    3  A    between atoms: N_13  and  C_14
REMARK    4  A    between atoms: C_20  and  C_21
REMARK                            x       y       z     vdW  Elec       q    Type
REMARK                         _______ _______ _______ _____ _____    ______ ____
ROOT
ATOM      1  C   UNL     1      21.262   9.982  38.445  0.00  0.00    +0.000 A 
ATOM      2  C   UNL     1      21.878   9.421  39.555  0.00  0.00    +0.000 A 
ATOM      3  N   UNL     1      20.913   8.882  40.315  0.00  0.00    +0.000 NA
ATOM      4  N   UNL     1      19.715   9.051  39.783  0.00  0.00    +0.000 N 
ATOM      5  C   UNL     1      19.911   9.725  38.636  0.00  0.00    +0.000 A 
ENDROOT
BRANCH   2   6
ATOM      6  C   UNL     1      23.301   9.436  39.805  0.00  0.00    +0.000 A 
ATOM      7  C   UNL     1      23.912  10.468  40.474  0.00  0.00    +0.000 A 
ATOM      8  C   UNL     1      25.269  10.438  40.685  0.00  0.00    +0.000 A 
ATOM      9  C   UNL     1      26.022   9.371  40.225  0.00  0.00    +0.000 A 
ATOM     10  O   UNL     1      27.397   9.352  40.445  0.00  0.00    +0.000 OA
ATOM     11  C   UNL     1      25.438   8.336  39.560  0.00  0.00    +0.000 A 
ATOM     12  C   UNL     1      24.064   8.384  39.355  0.00  0.00    +0.000 A 
ENDBRANCH   2   6
BRANCH   5  13
ATOM     13  C   UNL     1      18.854  10.136  37.700  0.00  0.00    +0.000 A 
ATOM     14  C   UNL     1      18.299  11.396  37.770  0.00  0.00    +0.000 A 
ATOM     15  C   UNL     1      17.299  11.803  36.894  0.00  0.00    +0.000 A 
ATOM     16  C   UNL     1      16.826  10.951  35.918  0.00  0.00    +0.000 A 
ATOM     17  O   UNL     1      15.824  11.334  35.028  0.00  0.00    +0.000 OA
ATOM     18  C   UNL     1      17.382   9.691  35.850  0.00  0.00    +0.000 A 
ATOM     19  C   UNL     1      18.385   9.284  36.729  0.00  0.00    +0.000 A 
ENDBRANCH   5  13
BRANCH   4  20
ATOM     20  C   UNL     1      18.461   8.609  40.315  0.00  0.00    +0.000 A 
ATOM     21  C   UNL     1      18.213   7.258  40.424  0.00  0.00    +0.000 A 
ATOM     22  C   UNL     1      17.026   6.768  40.929  0.00  0.00    +0.000 A 
ATOM     23  C   UNL     1      16.035   7.661  41.346  0.00  0.00    +0.000 A 
ATOM     24  C   UNL     1      16.263   9.004  41.245  0.00  0.00    +0.000 A 
ATOM     25  C   UNL     1      17.472   9.474  40.732  0.00  0.00    +0.000 A 
ENDBRANCH   4  20
BRANCH   1  27
ATOM     26  C   UNL     1      22.384   9.716  36.257  0.00  0.00    +0.000 C 
ATOM     27  C   UNL     1      21.904  10.699  37.309  0.00  0.00    +0.000 C 
ENDBRANCH   1  27
TORSDOF 4
ENDMDL
MODEL 5
REMARK VINA RESULT:      -6.6     20.340     22.240
REMARK  Name = 
REMARK  4 active torsions:
REMARK  status: ('A' for Active; 'I' for Inactive)
REMARK    1  A    between atoms: C_2  and  C_3
REMARK    2  A    between atoms: C_4  and  C_5
REMARK    3  A    between atoms: N_13  and  C_14
REMARK    4  A    between atoms: C_20  and  C_21
REMARK                            x       y       z     vdW  Elec       q    Type
REMARK                         _______ _______ _______ _____ _____    ______ ____
ROOT
ATOM      1  C   UNL     1      25.770  25.559  25.767  0.00  0.00    +0.000 A 
ATOM      2  C   UNL     1      25.507  25.418  27.122  0.00  0.00    +0.000 A 
ATOM      3  N   UNL     1      26.555  24.785  27.667  0.00  0.00    +0.000 NA
ATOM      4  N   UNL     1      27.482  24.501  26.768  0.00  0.00    +0.000 N 
ATOM      5  C   UNL     1      27.015  24.970  25.597  0.00  0.00    +0.000 A 
ENDROOT
BRANCH   2   6
ATOM      6  C   UNL     1      24.310  25.886  27.783  0.00  0.00    +0.000 A 
ATOM      7  C   UNL     1      23.099  25.950  27.138  0.00  0.00    +0.000 A 
ATOM      8  C   UNL     1      21.990  26.404  27.808  0.00  0.00    +0.000 A 
ATOM      9  C   UNL     1      22.088  26.797  29.132  0.00  0.00    +0.000 A 
ATOM     10  O   UNL     1      20.956  27.256  29.802  0.00  0.00    +0.000 OA
ATOM     11  C   UNL     1      23.278  26.741  29.794  0.00  0.00    +0.000 A 
ATOM     12  C   UNL     1      24.390  26.280  29.099  0.00  0.00    +0.000 A 
ENDBRANCH   2   6
BRANCH   5  13
ATOM     13  C   UNL     1      27.715  24.881  24.307  0.00  0.00    +0.000 A 
ATOM     14  C   UNL     1      28.598  25.862  23.912  0.00  0.00    +0.000 A 
ATOM     15  C   UNL     1      29.270  25.795  22.695  0.00  0.00    +0.000 A 
ATOM     16  C   UNL     1      29.070  24.733  21.837  0.00  0.00    +0.000 A 
ATOM     17  O   UNL     1      29.729  24.642  20.613  0.00  0.00    +0.000 OA
ATOM     18  C   UNL     1      28.185  23.753  22.234  0.00  0.00    +0.000 A 
ATOM     19  C   UNL     1      27.513  23.821  23.454  0.00  0.00    +0.000 A 
ENDBRANCH   5  13
BRANCH   4  20
ATOM     20  C   UNL     1      28.729  23.834  26.991  0.00  0.00    +0.000 A 
ATOM     21  C   UNL     1      29.799  24.549  27.481  0.00  0.00    +0.000 A 
ATOM     22  C   UNL     1      31.027  23.964  27.717  0.00  0.00    +0.000 A 
ATOM     23  C   UNL     1      31.202  22.603  27.454  0.00  0.00    +0.000 A 
ATOM     24  C   UNL     1      30.152  21.877  26.966  0.00  0.00    +0.000 A 
ATOM     25  C   UNL     1      28.921  22.492  26.737  0.00  0.00    +0.000 A 
ENDBRANCH   4  20
BRANCH   1  27
ATOM     26  C   UNL     1      25.245  27.670  24.590  0.00  0.00    +0.000 C 
ATOM     27  C   UNL     1      24.911  26.196  24.731  0.00  0.00    +0.000 C 
ENDBRANCH   1  27
TORSDOF 4
ENDMDL
MODEL 6
REMARK VINA RESULT:      -6.5      2.205      6.730
REMARK  Name = 
REMARK  4 active torsions:
REMARK  status: ('A' for Active; 'I' for Inactive)
REMARK    1  A    between atoms: C_2  and  C_3
REMARK    2  A    between atoms: C_4  and  C_5
REMARK    3  A    between atoms: N_13  and  C_14
REMARK    4  A    between atoms: C_20  and  C_21
REMARK                            x       y       z     vdW  Elec       q    Type
REMARK                         _______ _______ _______ _____ _____    ______ ____
ROOT
ATOM      1  C   UNL     1      21.411   9.325  39.363  0.00  0.00    +0.000 A 
ATOM      2  C   UNL     1      22.158   9.849  38.317  0.00  0.00    +0.000 A 
ATOM      3  N   UNL     1      21.302  10.156  37.332  0.00  0.00    +0.000 NA
ATOM      4  N   UNL     1      20.053   9.871  37.658  0.00  0.00    +0.000 N 
ATOM      5  C   UNL     1      20.103   9.360  38.901  0.00  0.00    +0.000 A 
ENDROOT
BRANCH   2   6
ATOM      6  C   UNL     1      23.593  10.016  38.331  0.00  0.00    +0.000 A 
ATOM      7  C   UNL     1      24.449   8.990  38.013  0.00  0.00    +0.000 A 
ATOM      8  C   UNL     1      25.806   9.198  38.043  0.00  0.00    +0.000 A 
ATOM      9  C   UNL     1      26.314  10.437  38.393  0.00  0.00    +0.000 A 
ATOM     10  O   UNL     1      27.693  10.636  38.421  0.00  0.00    +0.000 OA
ATOM     11  C   UNL     1      25.484  11.471  38.712  0.00  0.00    +0.000 A 
ATOM     12  C   UNL     1      24.114  11.242  38.676  0.00  0.00    +0.000 A 
ENDBRANCH   2   6
BRANCH   5  13
ATOM     13  C   UNL     1      18.942   8.900  39.677  0.00  0.00    +0.000 A 
ATOM     14  C   UNL     1      18.661   7.557  39.800  0.00  0.00    +0.000 A 
ATOM     15  C   UNL     1      17.568   7.102  40.531  0.00  0.00    +0.000 A 
ATOM     16  C   UNL     1      16.722   7.991  41.161  0.00  0.00    +0.000 A 
ATOM     17  O   UNL     1      15.620   7.563  41.899  0.00  0.00    +0.000 OA
ATOM     18  C   UNL     1      17.005   9.335  41.037  0.00  0.00    +0.000 A 
ATOM     19  C   UNL     1      18.101   9.789  40.304  0.00  0.00    +0.000 A 
ENDBRANCH   5  13
BRANCH   4  20
ATOM     20  C   UNL     1      18.883  10.065  36.855  0.00  0.00    +0.000 A 
ATOM     21  C   UNL     1      18.091  11.171  37.073  0.00  0.00    +0.000 A 
ATOM     22  C   UNL     1      16.951  11.414  36.334  0.00  0.00    +0.000 A 
ATOM     23  C   UNL     1      16.578  10.518  35.328  0.00  0.00    +0.000 A 
ATOM     24  C   UNL     1      17.351   9.416  35.098  0.00  0.00    +0.000 A 
ATOM     25  C   UNL     1      18.499   9.192  35.859  0.00  0.00    +0.000 A 
ENDBRANCH   4  20
BRANCH   1  27
ATOM     26  C   UNL     1      21.893   9.955  41.705  0.00  0.00    +0.000 C 
ATOM     27  C   UNL     1      21.902   8.836  40.681  0.00  0.00    +0.000 C 
ENDBRANCH   1  27
TORSDOF 4
ENDMDL
MODEL 7
REMARK VINA RESULT:      -6.5      1.289      2.184
REMARK  Name = 
REMARK  4 active torsions:
REMARK  status: ('A' for Active; 'I' for Inactive)
REMARK    1  A    between atoms: C_2  and  C_3
REMARK    2  A    between atoms: C_4  and  C_5
REMARK    3  A    between atoms: N_13  and  C_14
REMARK    4  A    between atoms: C_20  and  C_21
REMARK                            x       y       z     vdW  Elec       q    Type
REMARK                         _______ _______ _______ _____ _____    ______ ____
ROOT
ATOM      1  C   UNL     1      19.775   8.488  39.859  0.00  0.00    +0.000 A 
ATOM      2  C   UNL     1      18.450   8.169  40.122  0.00  0.00    +0.000 A 
ATOM      3  N   UNL     1      17.700   8.811  39.214  0.00  0.00    +0.000 NA
ATOM      4  N   UNL     1      18.438   9.524  38.381  0.00  0.00    +0.000 N 
ATOM      5  C   UNL     1      19.713   9.336  38.763  0.00  0.00    +0.000 A 
ENDROOT
BRANCH   2   6
ATOM      6  C   UNL     1      18.005   7.300  41.187  0.00  0.00    +0.000 A 
ATOM      7  C   UNL     1      17.920   5.938  41.028  0.00  0.00    +0.000 A 
ATOM      8  C   UNL     1      17.489   5.154  42.070  0.00  0.00    +0.000 A 
ATOM      9  C   UNL     1      17.140   5.732  43.278  0.00  0.00    +0.000 A 
ATOM     10  O   UNL     1      16.703   4.926  44.328  0.00  0.00    +0.000 OA
ATOM     11  C   UNL     1      17.216   7.080  43.460  0.00  0.00    +0.000 A 
ATOM     12  C   UNL     1      17.654   7.858  42.394  0.00  0.00    +0.000 A 
ENDBRANCH   2   6
BRANCH   5  13
ATOM     13  C   UNL     1      20.891   9.937  38.119  0.00  0.00    +0.000 A 
ATOM     14  C   UNL     1      21.432   9.385  36.979  0.00  0.00    +0.000 A 
ATOM     15  C   UNL     1      22.545   9.939  36.355  0.00  0.00    +0.000 A 
ATOM     16  C   UNL     1      23.149  11.070  36.864  0.00  0.00    +0.000 A 
ATOM     17  O   UNL     1      24.265  11.646  36.260  0.00  0.00    +0.000 OA
ATOM     18  C   UNL     1      22.606  11.621  38.006  0.00  0.00    +0.000 A 
ATOM     19  C   UNL     1      21.490  11.064  38.630  0.00  0.00    +0.000 A 
ENDBRANCH   5  13
BRANCH   4  20
ATOM     20  C   UNL     1      17.977  10.332  37.292  0.00  0.00    +0.000 A 
ATOM     21  C   UNL     1      17.802   9.757  36.052  0.00  0.00    +0.000 A 
ATOM     22  C   UNL     1      17.361  10.481  34.963  0.00  0.00    +0.000 A 
ATOM     23  C   UNL     1      17.081  11.842  35.109  0.00  0.00    +0.000 A 
ATOM     24  C   UNL     1      17.250  12.430  36.331  0.00  0.00    +0.000 A 
ATOM     25  C   UNL     1      17.696  11.676  37.416  0.00  0.00    +0.000 A 
ENDBRANCH   4  20
BRANCH   1  27
ATOM     26  C   UNL     1      21.305   8.955  41.745  0.00  0.00    +0.000 C 
ATOM     27  C   UNL     1      20.987   8.024  40.590  0.00  0.00    +0.000 C 
ENDBRANCH   1  27
TORSDOF 4
ENDMDL
MODEL 8
REMARK VINA RESULT:      -6.4     18.994     23.368
REMARK  Name = 
REMARK  4 active torsions:
REMARK  status: ('A' for Active; 'I' for Inactive)
REMARK    1  A    between atoms: C_2  and  C_3
REMARK    2  A    between atoms: C_4  and  C_5
REMARK    3  A    between atoms: N_13  and  C_14
REMARK    4  A    between atoms: C_20  and  C_21
REMARK                            x       y       z     vdW  Elec       q    Type
REMARK                         _______ _______ _______ _____ _____    ______ ____
ROOT
ATOM      1  C   UNL     1      30.651  24.249  25.502  0.00  0.00    +0.000 A 
ATOM      2  C   UNL     1      29.495  24.703  24.882  0.00  0.00    +0.000 A 
ATOM      3  N   UNL     1      28.489  24.548  25.755  0.00  0.00    +0.000 NA
ATOM      4  N   UNL     1      28.903  24.026  26.897  0.00  0.00    +0.000 N 
ATOM      5  C   UNL     1      30.227  23.837  26.758  0.00  0.00    +0.000 A 
ENDROOT
BRANCH   2   6
ATOM      6  C   UNL     1      29.434  25.238  23.541  0.00  0.00    +0.000 A 
ATOM      7  C   UNL     1      29.356  24.425  22.436  0.00  0.00    +0.000 A 
ATOM      8  C   UNL     1      29.302  24.981  21.182  0.00  0.00    +0.000 A 
ATOM      9  C   UNL     1      29.326  26.357  21.028  0.00  0.00    +0.000 A 
ATOM     10  O   UNL     1      29.271  26.910  19.750  0.00  0.00    +0.000 OA
ATOM     11  C   UNL     1      29.401  27.183  22.109  0.00  0.00    +0.000 A 
ATOM     12  C   UNL     1      29.456  26.602  23.371  0.00  0.00    +0.000 A 
ENDBRANCH   2   6
BRANCH   5  13
ATOM     13  C   UNL     1      31.117  23.275  27.785  0.00  0.00    +0.000 A 
ATOM     14  C   UNL     1      31.332  21.917  27.868  0.00  0.00    +0.000 A 
ATOM     15  C   UNL     1      32.171  21.367  28.832  0.00  0.00    +0.000 A 
ATOM     16  C   UNL     1      32.820  22.172  29.744  0.00  0.00    +0.000 A 
ATOM     17  O   UNL     1      33.665  21.648  30.721  0.00  0.00    +0.000 OA
ATOM     18  C   UNL     1      32.603  23.532  29.661  0.00  0.00    +0.000 A 
ATOM     19  C   UNL     1      31.762  24.081  28.693  0.00  0.00    +0.000 A 
ENDBRANCH   5  13
BRANCH   4  20
ATOM     20  C   UNL     1      28.108  23.724  28.049  0.00  0.00    +0.000 A 
ATOM     21  C   UNL     1      27.614  24.755  28.818  0.00  0.00    +0.000 A 
ATOM     22  C   UNL     1      26.843  24.530  29.940  0.00  0.00    +0.000 A 
ATOM     23  C   UNL     1      26.545  23.219  30.319  0.00  0.00    +0.000 A 
ATOM     24  C   UNL     1      27.026  22.183  29.569  0.00  0.00    +0.000 A 
ATOM     25  C   UNL     1      27.804  22.437  28.439  0.00  0.00    +0.000 A 
ENDBRANCH   4  20
BRANCH   1  27
ATOM     26  C   UNL     1      32.740  25.534  25.180  0.00  0.00    +0.000 C 
ATOM     27  C   UNL     1      32.031  24.212  24.946  0.00  0.00    +0.000 C 
ENDBRANCH   1  27
TORSDOF 4
ENDMDL
MODEL 9
REMARK VINA RESULT:      -6.3     21.451     23.442
REMARK  Name = 
REMARK  4 active torsions:
REMARK  status: ('A' for Active; 'I' for Inactive)
REMARK    1  A    between atoms: C_2  and  C_3
REMARK    2  A    between atoms: C_4  and  C_5
REMARK    3  A    between atoms: N_13  and  C_14
REMARK    4  A    between atoms: C_20  and  C_21
REMARK                            x       y       z     vdW  Elec       q    Type
REMARK                         _______ _______ _______ _____ _____    ______ ____
ROOT
ATOM      1  C   UNL     1      15.296  -9.649  26.745  0.00  0.00    +0.000 A 
ATOM      2  C   UNL     1      14.665  -8.713  25.938  0.00  0.00    +0.000 A 
ATOM      3  N   UNL     1      15.560  -7.750  25.673  0.00  0.00    +0.000 NA
ATOM      4  N   UNL     1      16.726  -7.989  26.248  0.00  0.00    +0.000 N 
ATOM      5  C   UNL     1      16.580  -9.150  26.910  0.00  0.00    +0.000 A 
ENDROOT
BRANCH   2   6
ATOM      6  C   UNL     1      13.295  -8.800  25.487  0.00  0.00    +0.000 A 
ATOM      7  C   UNL     1      12.239  -8.809  26.366  0.00  0.00    +0.000 A 
ATOM      8  C   UNL     1      10.954  -8.896  25.889  0.00  0.00    +0.000 A 
ATOM      9  C   UNL     1      10.720  -8.976  24.527  0.00  0.00    +0.000 A 
ATOM     10  O   UNL     1       9.412  -9.064  24.055  0.00  0.00    +0.000 OA
ATOM     11  C   UNL     1      11.752  -8.968  23.636  0.00  0.00    +0.000 A 
ATOM     12  C   UNL     1      13.045  -8.880  24.137  0.00  0.00    +0.000 A 
ENDBRANCH   2   6
BRANCH   5  13
ATOM     13  C   UNL     1      17.627  -9.814  27.701  0.00  0.00    +0.000 A 
ATOM     14  C   UNL     1      17.922  -9.391  28.979  0.00  0.00    +0.000 A 
ATOM     15  C   UNL     1      18.908 -10.008  29.743  0.00  0.00    +0.000 A 
ATOM     16  C   UNL     1      19.629 -11.071  29.240  0.00  0.00    +0.000 A 
ATOM     17  O   UNL     1      20.622 -11.705  29.984  0.00  0.00    +0.000 OA
ATOM     18  C   UNL     1      19.332 -11.492  27.961  0.00  0.00    +0.000 A 
ATOM     19  C   UNL     1      18.343 -10.873  27.197  0.00  0.00    +0.000 A 
ENDBRANCH   5  13
BRANCH   4  20
ATOM     20  C   UNL     1      17.906  -7.179  26.182  0.00  0.00    +0.000 A 
ATOM     21  C   UNL     1      17.877  -5.901  26.693  0.00  0.00    +0.000 A 
ATOM     22  C   UNL     1      18.979  -5.071  26.659  0.00  0.00    +0.000 A 
ATOM     23  C   UNL     1      20.170  -5.532  26.090  0.00  0.00    +0.000 A 
ATOM     24  C   UNL     1      20.217  -6.797  25.577  0.00  0.00    +0.000 A 
ATOM     25  C   UNL     1      19.089  -7.616  25.624  0.00  0.00    +0.000 A 
ENDBRANCH   4  20
BRANCH   1  27
ATOM     26  C   UNL     1      14.832 -12.038  26.308  0.00  0.00    +0.000 C 
ATOM     27  C   UNL     1      14.723 -10.903  27.308  0.00  0.00    +0.000 C 
ENDBRANCH   1  27
TORSDOF 4
ENDMDL
MODEL 10
REMARK VINA RESULT:      -6.3     21.244     22.880
REMARK  Name = 
REMARK  4 active torsions:
REMARK  status: ('A' for Active; 'I' for Inactive)
REMARK    1  A    between atoms: C_2  and  C_3
REMARK    2  A    between atoms: C_4  and  C_5
REMARK    3  A    between atoms: N_13  and  C_14
REMARK    4  A    between atoms: C_20  and  C_21
REMARK                            x       y       z     vdW  Elec       q    Type
REMARK                         _______ _______ _______ _____ _____    ______ ____
ROOT
ATOM      1  C   UNL     1      16.677 -10.307  28.354  0.00  0.00    +0.000 A 
ATOM      2  C   UNL     1      17.449  -9.975  29.458  0.00  0.00    +0.000 A 
ATOM      3  N   UNL     1      18.196  -8.915  29.118  0.00  0.00    +0.000 NA
ATOM      4  N   UNL     1      17.967  -8.531  27.873  0.00  0.00    +0.000 N 
ATOM      5  C   UNL     1      17.038  -9.375  27.391  0.00  0.00    +0.000 A 
ENDROOT
BRANCH   2   6
ATOM      6  C   UNL     1      17.422 -10.672  30.724  0.00  0.00    +0.000 A 
ATOM      7  C   UNL     1      16.460 -10.420  31.673  0.00  0.00    +0.000 A 
ATOM      8  C   UNL     1      16.477 -11.106  32.862  0.00  0.00    +0.000 A 
ATOM      9  C   UNL     1      17.460 -12.050  33.108  0.00  0.00    +0.000 A 
ATOM     10  O   UNL     1      17.467 -12.739  34.319  0.00  0.00    +0.000 OA
ATOM     11  C   UNL     1      18.423 -12.317  32.182  0.00  0.00    +0.000 A 
ATOM     12  C   UNL     1      18.390 -11.612  30.984  0.00  0.00    +0.000 A 
ENDBRANCH   2   6
BRANCH   5  13
ATOM     13  C   UNL     1      16.471  -9.330  26.035  0.00  0.00    +0.000 A 
ATOM     14  C   UNL     1      17.077  -9.996  24.993  0.00  0.00    +0.000 A 
ATOM     15  C   UNL     1      16.554  -9.965  23.704  0.00  0.00    +0.000 A 
ATOM     16  C   UNL     1      15.403  -9.259  23.425  0.00  0.00    +0.000 A 
ATOM     17  O   UNL     1      14.859  -9.211  22.143  0.00  0.00    +0.000 OA
ATOM     18  C   UNL     1      14.799  -8.591  24.470  0.00  0.00    +0.000 A 
ATOM     19  C   UNL     1      15.323  -8.624  25.762  0.00  0.00    +0.000 A 
ENDBRANCH   5  13
BRANCH   4  20
ATOM     20  C   UNL     1      18.581  -7.440  27.178  0.00  0.00    +0.000 A 
ATOM     21  C   UNL     1      19.704  -7.672  26.416  0.00  0.00    +0.000 A 
ATOM     22  C   UNL     1      20.342  -6.663  25.722  0.00  0.00    +0.000 A 
ATOM     23  C   UNL     1      19.842  -5.360  25.787  0.00  0.00    +0.000 A 
ATOM     24  C   UNL     1      18.728  -5.111  26.539  0.00  0.00    +0.000 A 
ATOM     25  C   UNL     1      18.102  -6.148  27.230  0.00  0.00    +0.000 A 
ENDBRANCH   4  20
BRANCH   1  27
ATOM     26  C   UNL     1      16.361 -12.684  27.750  0.00  0.00    +0.000 C 
ATOM     27  C   UNL     1      15.687 -11.412  28.231  0.00  0.00    +0.000 C 
ENDBRANCH   1  27
TORSDOF 4
ENDMDL
