MODEL 1
REMARK VINA RESULT:      -7.0      0.000      0.000
REMARK  Name = 
REMARK  3 active torsions:
REMARK  status: ('A' for Active; 'I' for Inactive)
REMARK    1  A    between atoms: C_2  and  C_3
REMARK    2  A    between atoms: C_3  and  N_4
REMARK    3  A    between atoms: C_15  and  O_16
REMARK                            x       y       z     vdW  Elec       q    Type
REMARK                         _______ _______ _______ _____ _____    ______ ____
ROOT
ATOM      1  N   UNL     1      16.710  10.501  38.460  0.00  0.00    +0.000 NA
ATOM      2  C   UNL     1      16.826  10.309  37.057  0.00  0.00    +0.000 A 
ATOM      3  N   UNL     1      17.607   9.360  36.515  0.00  0.00    +0.000 NA
ATOM      4  C   UNL     1      17.693   9.206  35.181  0.00  0.00    +0.000 A 
ATOM      5  N   UNL     1      17.000   9.999  34.318  0.00  0.00    +0.000 NA
ATOM      6  C   UNL     1      16.202  10.965  34.813  0.00  0.00    +0.000 A 
ATOM      7  C   UNL     1      16.115  11.122  36.200  0.00  0.00    +0.000 A 
ATOM      8  N   UNL     1      15.274  12.133  36.483  0.00  0.00    +0.000 NA
ATOM      9  C   UNL     1      14.807  12.644  35.318  0.00  0.00    +0.000 A 
ATOM     10  C   UNL     1      13.940  13.663  34.980  0.00  0.00    +0.000 A 
ATOM     11  C   UNL     1      13.639  13.970  33.659  0.00  0.00    +0.000 A 
ATOM     12  C   UNL     1      14.226  13.235  32.635  0.00  0.00    +0.000 A 
ATOM     13  C   UNL     1      15.094  12.213  32.947  0.00  0.00    +0.000 A 
ATOM     14  C   UNL     1      15.372  11.933  34.274  0.00  0.00    +0.000 A 
ENDROOT
BRANCH  12  15
ATOM     15  O   UNL     1      13.890  13.583  31.342  0.00  0.00    +0.000 OA
ATOM     16  C   UNL     1      14.554  13.147  30.193  0.00  0.00    +0.000 C 
ENDBRANCH  12  15
BRANCH   1  17
ATOM     17  C   UNL     1      17.399   9.719  39.437  0.00  0.00    +0.000 C 
BRANCH  17  19
ATOM     18  C   UNL     1      16.534   8.378  41.327  0.00  0.00    +0.000 C 
ATOM     19  C   UNL     1      16.470   9.428  40.551  0.00  0.00    +0.000 C 
ENDBRANCH  17  19
ENDBRANCH   1  17
TORSDOF 3
ENDMDL
MODEL 2
REMARK VINA RESULT:      -6.2      2.175      2.732
REMARK  Name = 
REMARK  3 active torsions:
REMARK  status: ('A' for Active; 'I' for Inactive)
REMARK    1  A    between atoms: C_2  and  C_3
REMARK    2  A    between atoms: C_3  and  N_4
REMARK    3  A    between atoms: C_15  and  O_16
REMARK                            x       y       z     vdW  Elec       q    Type
REMARK                         _______ _______ _______ _____ _____    ______ ____
ROOT
ATOM      1  N   UNL     1      17.011   9.167  40.226  0.00  0.00    +0.000 NA
ATOM      2  C   UNL     1      17.375   9.806  39.010  0.00  0.00    +0.000 A 
ATOM      3  N   UNL     1      18.614   9.733  38.493  0.00  0.00    +0.000 NA
ATOM      4  C   UNL     1      18.924  10.350  37.339  0.00  0.00    +0.000 A 
ATOM      5  N   UNL     1      18.008  11.077  36.641  0.00  0.00    +0.000 NA
ATOM      6  C   UNL     1      16.752  11.180  37.119  0.00  0.00    +0.000 A 
ATOM      7  C   UNL     1      16.433  10.536  38.319  0.00  0.00    +0.000 A 
ATOM      8  N   UNL     1      15.141  10.763  38.616  0.00  0.00    +0.000 NA
ATOM      9  C   UNL     1      14.604  11.539  37.644  0.00  0.00    +0.000 A 
ATOM     10  C   UNL     1      13.358  12.082  37.409  0.00  0.00    +0.000 A 
ATOM     11  C   UNL     1      13.090  12.862  36.291  0.00  0.00    +0.000 A 
ATOM     12  C   UNL     1      14.103  13.111  35.372  0.00  0.00    +0.000 A 
ATOM     13  C   UNL     1      15.355  12.579  35.584  0.00  0.00    +0.000 A 
ATOM     14  C   UNL     1      15.588  11.806  36.708  0.00  0.00    +0.000 A 
ENDROOT
BRANCH  12  15
ATOM     15  O   UNL     1      13.780  13.892  34.279  0.00  0.00    +0.000 OA
ATOM     16  C   UNL     1      13.012  15.058  34.323  0.00  0.00    +0.000 C 
ENDBRANCH  12  15
BRANCH   1  17
ATOM     17  C   UNL     1      17.904   8.387  41.022  0.00  0.00    +0.000 C 
BRANCH  17  19
ATOM     18  C   UNL     1      17.407   5.974  41.243  0.00  0.00    +0.000 C 
ATOM     19  C   UNL     1      17.859   6.987  40.549  0.00  0.00    +0.000 C 
ENDBRANCH  17  19
ENDBRANCH   1  17
TORSDOF 3
ENDMDL
MODEL 3
REMARK VINA RESULT:      -5.9     28.589     31.561
REMARK  Name = 
REMARK  3 active torsions:
REMARK  status: ('A' for Active; 'I' for Inactive)
REMARK    1  A    between atoms: C_2  and  C_3
REMARK    2  A    between atoms: C_3  and  N_4
REMARK    3  A    between atoms: C_15  and  O_16
REMARK                            x       y       z     vdW  Elec       q    Type
REMARK                         _______ _______ _______ _____ _____    ______ ____
ROOT
ATOM      1  N   UNL     1      29.433  23.437  12.413  0.00  0.00    +0.000 NA
ATOM      2  C   UNL     1      30.224  22.287  12.147  0.00  0.00    +0.000 A 
ATOM      3  N   UNL     1      30.551  21.394  13.097  0.00  0.00    +0.000 NA
ATOM      4  C   UNL     1      31.302  20.315  12.810  0.00  0.00    +0.000 A 
ATOM      5  N   UNL     1      31.769  20.076  11.553  0.00  0.00    +0.000 NA
ATOM      6  C   UNL     1      31.468  20.942  10.566  0.00  0.00    +0.000 A 
ATOM      7  C   UNL     1      30.686  22.062  10.868  0.00  0.00    +0.000 A 
ATOM      8  N   UNL     1      30.504  22.792   9.753  0.00  0.00    +0.000 NA
ATOM      9  C   UNL     1      31.145  22.182   8.728  0.00  0.00    +0.000 A 
ATOM     10  C   UNL     1      31.311  22.451   7.385  0.00  0.00    +0.000 A 
ATOM     11  C   UNL     1      32.046  21.619   6.549  0.00  0.00    +0.000 A 
ATOM     12  C   UNL     1      32.637  20.474   7.072  0.00  0.00    +0.000 A 
ATOM     13  C   UNL     1      32.486  20.184   8.409  0.00  0.00    +0.000 A 
ATOM     14  C   UNL     1      31.748  21.035   9.213  0.00  0.00    +0.000 A 
ENDROOT
BRANCH  12  15
ATOM     15  O   UNL     1      33.354  19.684   6.195  0.00  0.00    +0.000 OA
ATOM     16  C   UNL     1      33.097  18.336   5.932  0.00  0.00    +0.000 C 
ENDBRANCH  12  15
BRANCH   1  17
ATOM     17  C   UNL     1      28.903  23.768  13.697  0.00  0.00    +0.000 C 
BRANCH  17  19
ATOM     18  C   UNL     1      26.722  23.024  12.797  0.00  0.00    +0.000 C 
ATOM     19  C   UNL     1      27.426  23.763  13.615  0.00  0.00    +0.000 C 
ENDBRANCH  17  19
ENDBRANCH   1  17
TORSDOF 3
ENDMDL
MODEL 4
REMARK VINA RESULT:      -5.7     20.125     22.705
REMARK  Name = 
REMARK  3 active torsions:
REMARK  status: ('A' for Active; 'I' for Inactive)
REMARK    1  A    between atoms: C_2  and  C_3
REMARK    2  A    between atoms: C_3  and  N_4
REMARK    3  A    between atoms: C_15  and  O_16
REMARK                            x       y       z     vdW  Elec       q    Type
REMARK                         _______ _______ _______ _____ _____    ______ ____
ROOT
ATOM      1  N   UNL     1      21.835  -7.209  24.767  0.00  0.00    +0.000 NA
ATOM      2  C   UNL     1      20.674  -6.915  25.531  0.00  0.00    +0.000 A 
ATOM      3  N   UNL     1      20.080  -5.709  25.516  0.00  0.00    +0.000 NA
ATOM      4  C   UNL     1      18.981  -5.464  26.252  0.00  0.00    +0.000 A 
ATOM      5  N   UNL     1      18.418  -6.418  27.046  0.00  0.00    +0.000 NA
ATOM      6  C   UNL     1      18.977  -7.643  27.095  0.00  0.00    +0.000 A 
ATOM      7  C   UNL     1      20.119  -7.893  26.327  0.00  0.00    +0.000 A 
ATOM      8  N   UNL     1      20.514  -9.165  26.518  0.00  0.00    +0.000 NA
ATOM      9  C   UNL     1      19.662  -9.756  27.390  0.00  0.00    +0.000 A 
ATOM     10  C   UNL     1      19.560 -11.012  27.952  0.00  0.00    +0.000 A 
ATOM     11  C   UNL     1      18.547 -11.342  28.845  0.00  0.00    +0.000 A 
ATOM     12  C   UNL     1      17.602 -10.383  29.191  0.00  0.00    +0.000 A 
ATOM     13  C   UNL     1      17.683  -9.122  28.644  0.00  0.00    +0.000 A 
ATOM     14  C   UNL     1      18.704  -8.827  27.757  0.00  0.00    +0.000 A 
ENDROOT
BRANCH  12  15
ATOM     15  O   UNL     1      16.618 -10.768  30.082  0.00  0.00    +0.000 OA
ATOM     16  C   UNL     1      16.548 -10.375  31.421  0.00  0.00    +0.000 C 
ENDBRANCH  12  15
BRANCH   1  17
ATOM     17  C   UNL     1      22.491  -6.273  23.910  0.00  0.00    +0.000 C 
BRANCH  17  19
ATOM     18  C   UNL     1      24.863  -6.914  23.628  0.00  0.00    +0.000 C 
ATOM     19  C   UNL     1      23.929  -6.246  24.253  0.00  0.00    +0.000 C 
ENDBRANCH  17  19
ENDBRANCH   1  17
TORSDOF 3
ENDMDL
MODEL 5
REMARK VINA RESULT:      -5.7     18.063     19.368
REMARK  Name = 
REMARK  3 active torsions:
REMARK  status: ('A' for Active; 'I' for Inactive)
REMARK    1  A    between atoms: C_2  and  C_3
REMARK    2  A    between atoms: C_3  and  N_4
REMARK    3  A    between atoms: C_15  and  O_16
REMARK                            x       y       z     vdW  Elec       q    Type
REMARK                         _______ _______ _______ _____ _____    ______ ____
ROOT
ATOM      1  N   UNL     1      30.014  22.517  30.767  0.00  0.00    +0.000 NA
ATOM      2  C   UNL     1      28.879  22.720  29.936  0.00  0.00    +0.000 A 
ATOM      3  N   UNL     1      27.640  22.893  30.427  0.00  0.00    +0.000 NA
ATOM      4  C   UNL     1      26.587  23.083  29.612  0.00  0.00    +0.000 A 
ATOM      5  N   UNL     1      26.721  23.109  28.256  0.00  0.00    +0.000 NA
ATOM      6  C   UNL     1      27.944  22.941  27.716  0.00  0.00    +0.000 A 
ATOM      7  C   UNL     1      29.036  22.744  28.567  0.00  0.00    +0.000 A 
ATOM      8  N   UNL     1      30.153  22.598  27.832  0.00  0.00    +0.000 NA
ATOM      9  C   UNL     1      29.823  22.695  26.521  0.00  0.00    +0.000 A 
ATOM     10  C   UNL     1      30.523  22.628  25.334  0.00  0.00    +0.000 A 
ATOM     11  C   UNL     1      29.900  22.767  24.100  0.00  0.00    +0.000 A 
ATOM     12  C   UNL     1      28.527  22.979  24.047  0.00  0.00    +0.000 A 
ATOM     13  C   UNL     1      27.807  23.049  25.219  0.00  0.00    +0.000 A 
ATOM     14  C   UNL     1      28.459  22.907  26.431  0.00  0.00    +0.000 A 
ENDROOT
BRANCH  12  15
ATOM     15  O   UNL     1      27.962  23.110  22.794  0.00  0.00    +0.000 OA
ATOM     16  C   UNL     1      28.360  24.034  21.825  0.00  0.00    +0.000 C 
ENDBRANCH  12  15
BRANCH   1  17
ATOM     17  C   UNL     1      29.968  22.474  32.194  0.00  0.00    +0.000 C 
BRANCH  17  19
ATOM     18  C   UNL     1      32.035  21.129  32.005  0.00  0.00    +0.000 C 
ATOM     19  C   UNL     1      30.971  21.498  32.670  0.00  0.00    +0.000 C 
ENDBRANCH  17  19
ENDBRANCH   1  17
TORSDOF 3
ENDMDL
MODEL 6
REMARK VINA RESULT:      -5.4     19.382     20.299
REMARK  Name = 
REMARK  3 active torsions:
REMARK  status: ('A' for Active; 'I' for Inactive)
REMARK    1  A    between atoms: C_2  and  C_3
REMARK    2  A    between atoms: C_3  and  N_4
REMARK    3  A    between atoms: C_15  and  O_16
REMARK                            x       y       z     vdW  Elec       q    Type
REMARK                         _______ _______ _______ _____ _____    ______ ____
ROOT
ATOM      1  N   UNL     1      34.356   8.225  35.749  0.00  0.00    +0.000 NA
ATOM      2  C   UNL     1      34.461   7.026  36.504  0.00  0.00    +0.000 A 
ATOM      3  N   UNL     1      34.782   7.015  37.810  0.00  0.00    +0.000 NA
ATOM      4  C   UNL     1      34.873   5.862  38.495  0.00  0.00    +0.000 A 
ATOM      5  N   UNL     1      34.647   4.654  37.907  0.00  0.00    +0.000 NA
ATOM      6  C   UNL     1      34.322   4.613  36.600  0.00  0.00    +0.000 A 
ATOM      7  C   UNL     1      34.228   5.815  35.891  0.00  0.00    +0.000 A 
ATOM      8  N   UNL     1      33.896   5.553  34.614  0.00  0.00    +0.000 NA
ATOM      9  C   UNL     1      33.769   4.212  34.466  0.00  0.00    +0.000 A 
ATOM     10  C   UNL     1      33.454   3.374  33.417  0.00  0.00    +0.000 A 
ATOM     11  C   UNL     1      33.398   1.993  33.565  0.00  0.00    +0.000 A 
ATOM     12  C   UNL     1      33.666   1.427  34.806  0.00  0.00    +0.000 A 
ATOM     13  C   UNL     1      33.982   2.243  35.869  0.00  0.00    +0.000 A 
ATOM     14  C   UNL     1      34.029   3.615  35.687  0.00  0.00    +0.000 A 
ENDROOT
BRANCH  12  15
ATOM     15  O   UNL     1      33.594   0.051  34.895  0.00  0.00    +0.000 OA
ATOM     16  C   UNL     1      32.411  -0.692  34.936  0.00  0.00    +0.000 C 
ENDBRANCH  12  15
BRANCH   1  17
ATOM     17  C   UNL     1      34.575   9.532  36.281  0.00  0.00    +0.000 C 
BRANCH  17  19
ATOM     18  C   UNL     1      35.640  11.435  35.115  0.00  0.00    +0.000 C 
ATOM     19  C   UNL     1      35.648  10.186  35.501  0.00  0.00    +0.000 C 
ENDBRANCH  17  19
ENDBRANCH   1  17
TORSDOF 3
ENDMDL
MODEL 7
REMARK VINA RESULT:      -5.3     18.209     20.518
REMARK  Name = 
REMARK  3 active torsions:
REMARK  status: ('A' for Active; 'I' for Inactive)
REMARK    1  A    between atoms: C_2  and  C_3
REMARK    2  A    between atoms: C_3  and  N_4
REMARK    3  A    between atoms: C_15  and  O_16
REMARK                            x       y       z     vdW  Elec       q    Type
REMARK                         _______ _______ _______ _____ _____    ______ ____
ROOT
ATOM      1  N   UNL     1      27.382  23.204  24.211  0.00  0.00    +0.000 NA
ATOM      2  C   UNL     1      27.137  23.357  25.603  0.00  0.00    +0.000 A 
ATOM      3  N   UNL     1      25.955  23.770  26.092  0.00  0.00    +0.000 NA
ATOM      4  C   UNL     1      25.757  23.904  27.415  0.00  0.00    +0.000 A 
ATOM      5  N   UNL     1      26.737  23.631  28.322  0.00  0.00    +0.000 NA
ATOM      6  C   UNL     1      27.940  23.214  27.881  0.00  0.00    +0.000 A 
ATOM      7  C   UNL     1      28.141  23.076  26.503  0.00  0.00    +0.000 A 
ATOM      8  N   UNL     1      29.398  22.652  26.278  0.00  0.00    +0.000 NA
ATOM      9  C   UNL     1      30.026  22.509  27.469  0.00  0.00    +0.000 A 
ATOM     10  C   UNL     1      31.289  22.117  27.863  0.00  0.00    +0.000 A 
ATOM     11  C   UNL     1      31.663  22.064  29.200  0.00  0.00    +0.000 A 
ATOM     12  C   UNL     1      30.744  22.417  30.182  0.00  0.00    +0.000 A 
ATOM     13  C   UNL     1      29.478  22.812  29.814  0.00  0.00    +0.000 A 
ATOM     14  C   UNL     1      29.138  22.853  28.473  0.00  0.00    +0.000 A 
ENDROOT
BRANCH  12  15
ATOM     15  O   UNL     1      31.171  22.346  31.494  0.00  0.00    +0.000 OA
ATOM     16  C   UNL     1      30.559  21.593  32.499  0.00  0.00    +0.000 C 
ENDBRANCH  12  15
BRANCH   1  17
ATOM     17  C   UNL     1      26.416  23.466  23.192  0.00  0.00    +0.000 C 
BRANCH  17  19
ATOM     18  C   UNL     1      28.411  24.086  21.869  0.00  0.00    +0.000 C 
ATOM     19  C   UNL     1      27.113  24.022  22.012  0.00  0.00    +0.000 C 
ENDBRANCH  17  19
ENDBRANCH   1  17
TORSDOF 3
ENDMDL
MODEL 8
REMARK VINA RESULT:      -5.3      4.409      6.302
REMARK  Name = 
REMARK  3 active torsions:
REMARK  status: ('A' for Active; 'I' for Inactive)
REMARK    1  A    between atoms: C_2  and  C_3
REMARK    2  A    between atoms: C_3  and  N_4
REMARK    3  A    between atoms: C_15  and  O_16
REMARK                            x       y       z     vdW  Elec       q    Type
REMARK                         _______ _______ _______ _____ _____    ______ ____
ROOT
ATOM      1  N   UNL     1      23.157   9.291  37.577  0.00  0.00    +0.000 NA
ATOM      2  C   UNL     1      22.111   9.983  38.244  0.00  0.00    +0.000 A 
ATOM      3  N   UNL     1      22.284  10.592  39.431  0.00  0.00    +0.000 NA
ATOM      4  C   UNL     1      21.271  11.238  40.036  0.00  0.00    +0.000 A 
ATOM      5  N   UNL     1      20.028  11.308  39.483  0.00  0.00    +0.000 NA
ATOM      6  C   UNL     1      19.805  10.714  38.294  0.00  0.00    +0.000 A 
ATOM      7  C   UNL     1      20.861  10.043  37.669  0.00  0.00    +0.000 A 
ATOM      8  N   UNL     1      20.431   9.524  36.504  0.00  0.00    +0.000 NA
ATOM      9  C   UNL     1      19.122   9.837  36.349  0.00  0.00    +0.000 A 
ATOM     10  C   UNL     1      18.169   9.588  35.383  0.00  0.00    +0.000 A 
ATOM     11  C   UNL     1      16.863  10.050  35.496  0.00  0.00    +0.000 A 
ATOM     12  C   UNL     1      16.493  10.786  36.616  0.00  0.00    +0.000 A 
ATOM     13  C   UNL     1      17.426  11.048  37.594  0.00  0.00    +0.000 A 
ATOM     14  C   UNL     1      18.718  10.574  37.449  0.00  0.00    +0.000 A 
ENDROOT
BRANCH  12  15
ATOM     15  O   UNL     1      15.183  11.220  36.674  0.00  0.00    +0.000 OA
ATOM     16  C   UNL     1      14.597  12.132  35.793  0.00  0.00    +0.000 C 
ENDBRANCH  12  15
BRANCH   1  17
ATOM     17  C   UNL     1      24.488   9.167  38.080  0.00  0.00    +0.000 C 
BRANCH  17  19
ATOM     18  C   UNL     1      25.055  10.452  36.045  0.00  0.00    +0.000 C 
ATOM     19  C   UNL     1      25.413   9.840  37.143  0.00  0.00    +0.000 C 
ENDBRANCH  17  19
ENDBRANCH   1  17
TORSDOF 3
ENDMDL
MODEL 9
REMARK VINA RESULT:      -5.2      3.027      5.145
REMARK  Name = 
REMARK  3 active torsions:
REMARK  status: ('A' for Active; 'I' for Inactive)
REMARK    1  A    between atoms: C_2  and  C_3
REMARK    2  A    between atoms: C_3  and  N_4
REMARK    3  A    between atoms: C_15  and  O_16
REMARK                            x       y       z     vdW  Elec       q    Type
REMARK                         _______ _______ _______ _____ _____    ______ ____
ROOT
ATOM      1  N   UNL     1      19.673   7.509  40.513  0.00  0.00    +0.000 NA
ATOM      2  C   UNL     1      18.448   8.222  40.609  0.00  0.00    +0.000 A 
ATOM      3  N   UNL     1      17.691   8.221  41.721  0.00  0.00    +0.000 NA
ATOM      4  C   UNL     1      16.536   8.907  41.777  0.00  0.00    +0.000 A 
ATOM      5  N   UNL     1      16.074   9.631  40.719  0.00  0.00    +0.000 NA
ATOM      6  C   UNL     1      16.797   9.662  39.582  0.00  0.00    +0.000 A 
ATOM      7  C   UNL     1      17.998   8.948  39.528  0.00  0.00    +0.000 A 
ATOM      8  N   UNL     1      18.558   9.110  38.315  0.00  0.00    +0.000 NA
ATOM      9  C   UNL     1      17.756   9.911  37.573  0.00  0.00    +0.000 A 
ATOM     10  C   UNL     1      17.804  10.417  36.290  0.00  0.00    +0.000 A 
ATOM     11  C   UNL     1      16.806  11.240  35.783  0.00  0.00    +0.000 A 
ATOM     12  C   UNL     1      15.720  11.572  36.584  0.00  0.00    +0.000 A 
ATOM     13  C   UNL     1      15.650  11.080  37.868  0.00  0.00    +0.000 A 
ATOM     14  C   UNL     1      16.661  10.263  38.342  0.00  0.00    +0.000 A 
ENDROOT
BRANCH  12  15
ATOM     15  O   UNL     1      14.760  12.395  36.028  0.00  0.00    +0.000 OA
ATOM     16  C   UNL     1      13.463  12.563  36.519  0.00  0.00    +0.000 C 
ENDBRANCH  12  15
BRANCH   1  17
ATOM     17  C   UNL     1      20.232   6.726  41.569  0.00  0.00    +0.000 C 
BRANCH  17  19
ATOM     18  C   UNL     1      19.556   4.838  40.121  0.00  0.00    +0.000 C 
ATOM     19  C   UNL     1      20.062   5.295  41.237  0.00  0.00    +0.000 C 
ENDBRANCH  17  19
ENDBRANCH   1  17
TORSDOF 3
ENDMDL
MODEL 10
REMARK VINA RESULT:      -5.1     10.916     13.429
REMARK  Name = 
REMARK  3 active torsions:
REMARK  status: ('A' for Active; 'I' for Inactive)
REMARK    1  A    between atoms: C_2  and  C_3
REMARK    2  A    between atoms: C_3  and  N_4
REMARK    3  A    between atoms: C_15  and  O_16
REMARK                            x       y       z     vdW  Elec       q    Type
REMARK                         _______ _______ _______ _____ _____    ______ ____
ROOT
ATOM      1  N   UNL     1      12.640  23.831  33.955  0.00  0.00    +0.000 NA
ATOM      2  C   UNL     1      13.741  24.001  34.837  0.00  0.00    +0.000 A 
ATOM      3  N   UNL     1      13.715  24.855  35.875  0.00  0.00    +0.000 NA
ATOM      4  C   UNL     1      14.775  24.992  36.691  0.00  0.00    +0.000 A 
ATOM      5  N   UNL     1      15.923  24.280  36.508  0.00  0.00    +0.000 NA
ATOM      6  C   UNL     1      15.997  23.412  35.480  0.00  0.00    +0.000 A 
ATOM      7  C   UNL     1      14.892  23.272  34.635  0.00  0.00    +0.000 A 
ATOM      8  N   UNL     1      15.173  22.364  33.682  0.00  0.00    +0.000 NA
ATOM      9  C   UNL     1      16.432  21.905  33.880  0.00  0.00    +0.000 A 
ATOM     10  C   UNL     1      17.246  20.991  33.244  0.00  0.00    +0.000 A 
ATOM     11  C   UNL     1      18.534  20.715  33.686  0.00  0.00    +0.000 A 
ATOM     12  C   UNL     1      19.030  21.375  34.804  0.00  0.00    +0.000 A 
ATOM     13  C   UNL     1      18.236  22.292  35.457  0.00  0.00    +0.000 A 
ATOM     14  C   UNL     1      16.957  22.543  34.990  0.00  0.00    +0.000 A 
ENDROOT
BRANCH  12  15
ATOM     15  O   UNL     1      20.315  21.061  35.199  0.00  0.00    +0.000 OA
ATOM     16  C   UNL     1      20.863  21.340  36.454  0.00  0.00    +0.000 C 
ENDBRANCH  12  15
BRANCH   1  17
ATOM     17  C   UNL     1      11.402  24.533  34.070  0.00  0.00    +0.000 C 
BRANCH  17  19
ATOM     18  C   UNL     1      10.378  26.185  32.540  0.00  0.00    +0.000 C 
ATOM     19  C   UNL     1      11.040  25.076  32.742  0.00  0.00    +0.000 C 
ENDBRANCH  17  19
ENDBRANCH   1  17
TORSDOF 3
ENDMDL
