MODEL 1
REMARK VINA RESULT:      -6.3      0.000      0.000
REMARK  Name = 
REMARK  3 active torsions:
REMARK  status: ('A' for Active; 'I' for Inactive)
REMARK    1  A    between atoms: C_4  and  N_5
REMARK    2  A    between atoms: C_6  and  C_8
REMARK    3  A    between atoms: C_14  and  C_15
REMARK                            x       y       z     vdW  Elec       q    Type
REMARK                         _______ _______ _______ _____ _____    ______ ____
ROOT
ATOM      1  C   UNL     1      15.273  11.883  36.485  0.00  0.00    +0.000 C 
ATOM      2  C   UNL     1      16.191  11.100  37.369  0.00  0.00    +0.000 A 
ATOM      3  C   UNL     1      17.486  10.853  36.960  0.00  0.00    +0.000 A 
ATOM      4  C   UNL     1      18.370  10.136  37.742  0.00  0.00    +0.000 A 
ATOM      5  C   UNL     1      17.935   9.658  38.961  0.00  0.00    +0.000 A 
ATOM      6  C   UNL     1      16.630   9.914  39.357  0.00  0.00    +0.000 A 
ATOM      7  C   UNL     1      15.743  10.630  38.581  0.00  0.00    +0.000 A 
ATOM      8  O   UNL     1      14.446  10.858  39.027  0.00  0.00    +0.000 OA
ENDROOT
BRANCH   4   9
ATOM      9  N   UNL     1      19.707   9.883  37.316  0.00  0.00    +0.000 NA
ATOM     10  C   UNL     1      20.733  10.812  37.608  0.00  0.00    +0.000 C 
ATOM     11  O   UNL     1      20.406  11.845  38.246  0.00  0.00    +0.000 OA
BRANCH  10  12
ATOM     12  C   UNL     1      22.120  10.626  37.208  0.00  0.00    +0.000 A 
ATOM     13  C   UNL     1      22.479   9.552  36.443  0.00  0.00    +0.000 A 
ATOM     14  C   UNL     1      23.807   9.400  36.078  0.00  0.00    +0.000 A 
ATOM     15  C   UNL     1      24.782  10.297  36.458  0.00  0.00    +0.000 A 
ATOM     16  C   UNL     1      24.416  11.371  37.225  0.00  0.00    +0.000 A 
ATOM     17  C   UNL     1      23.084  11.522  37.591  0.00  0.00    +0.000 A 
ENDBRANCH  10  12
ENDBRANCH   4   9
BRANCH   5  18
ATOM     18  C   UNL     1      18.885   8.896  39.783  0.00  0.00    +0.000 C 
ATOM     19  C   UNL     1      19.098   9.519  41.135  0.00  0.00    +0.000 C 
ATOM     20  C   UNL     1      18.556   7.424  39.865  0.00  0.00    +0.000 C 
ENDBRANCH   5  18
TORSDOF 3
ENDMDL
MODEL 2
REMARK VINA RESULT:      -6.3      1.003      2.821
REMARK  Name = 
REMARK  3 active torsions:
REMARK  status: ('A' for Active; 'I' for Inactive)
REMARK    1  A    between atoms: C_4  and  N_5
REMARK    2  A    between atoms: C_6  and  C_8
REMARK    3  A    between atoms: C_14  and  C_15
REMARK                            x       y       z     vdW  Elec       q    Type
REMARK                         _______ _______ _______ _____ _____    ______ ____
ROOT
ATOM      1  C   UNL     1      16.996   9.337  41.629  0.00  0.00    +0.000 C 
ATOM      2  C   UNL     1      17.167   9.649  40.176  0.00  0.00    +0.000 A 
ATOM      3  C   UNL     1      18.413   9.531  39.594  0.00  0.00    +0.000 A 
ATOM      4  C   UNL     1      18.618   9.808  38.257  0.00  0.00    +0.000 A 
ATOM      5  C   UNL     1      17.543  10.212  37.493  0.00  0.00    +0.000 A 
ATOM      6  C   UNL     1      16.298  10.327  38.094  0.00  0.00    +0.000 A 
ATOM      7  C   UNL     1      16.086  10.052  39.428  0.00  0.00    +0.000 A 
ATOM      8  O   UNL     1      14.815  10.183  39.979  0.00  0.00    +0.000 OA
ENDROOT
BRANCH   4   9
ATOM      9  N   UNL     1      19.908   9.684  37.659  0.00  0.00    +0.000 NA
ATOM     10  C   UNL     1      20.877  10.696  37.847  0.00  0.00    +0.000 C 
ATOM     11  O   UNL     1      20.545  11.684  38.550  0.00  0.00    +0.000 OA
BRANCH  10  12
ATOM     12  C   UNL     1      22.213  10.643  37.271  0.00  0.00    +0.000 A 
ATOM     13  C   UNL     1      22.540   9.662  36.377  0.00  0.00    +0.000 A 
ATOM     14  C   UNL     1      23.819   9.635  35.845  0.00  0.00    +0.000 A 
ATOM     15  C   UNL     1      24.777  10.567  36.186  0.00  0.00    +0.000 A 
ATOM     16  C   UNL     1      24.444  11.547  37.082  0.00  0.00    +0.000 A 
ATOM     17  C   UNL     1      23.160  11.571  37.615  0.00  0.00    +0.000 A 
ENDBRANCH  10  12
ENDBRANCH   4   9
BRANCH   5  18
ATOM     18  C   UNL     1      17.775  10.504  36.072  0.00  0.00    +0.000 C 
ATOM     19  C   UNL     1      17.566   9.296  35.201  0.00  0.00    +0.000 C 
ATOM     20  C   UNL     1      17.019  11.716  35.581  0.00  0.00    +0.000 C 
ENDBRANCH   5  18
TORSDOF 3
ENDMDL
MODEL 3
REMARK VINA RESULT:      -6.0     21.006     22.245
REMARK  Name = 
REMARK  3 active torsions:
REMARK  status: ('A' for Active; 'I' for Inactive)
REMARK    1  A    between atoms: C_4  and  N_5
REMARK    2  A    between atoms: C_6  and  C_8
REMARK    3  A    between atoms: C_14  and  C_15
REMARK                            x       y       z     vdW  Elec       q    Type
REMARK                         _______ _______ _______ _____ _____    ______ ____
ROOT
ATOM      1  C   UNL     1      18.832  -4.403  26.375  0.00  0.00    +0.000 C 
ATOM      2  C   UNL     1      19.137  -5.868  26.369  0.00  0.00    +0.000 A 
ATOM      3  C   UNL     1      20.381  -6.304  25.961  0.00  0.00    +0.000 A 
ATOM      4  C   UNL     1      20.708  -7.646  25.939  0.00  0.00    +0.000 A 
ATOM      5  C   UNL     1      19.758  -8.563  26.337  0.00  0.00    +0.000 A 
ATOM      6  C   UNL     1      18.512  -8.108  26.743  0.00  0.00    +0.000 A 
ATOM      7  C   UNL     1      18.179  -6.770  26.768  0.00  0.00    +0.000 A 
ATOM      8  O   UNL     1      16.915  -6.368  27.184  0.00  0.00    +0.000 OA
ENDROOT
BRANCH   4   9
ATOM      9  N   UNL     1      21.995  -8.092  25.517  0.00  0.00    +0.000 NA
ATOM     10  C   UNL     1      22.691  -7.395  24.503  0.00  0.00    +0.000 C 
ATOM     11  O   UNL     1      22.125  -6.388  24.007  0.00  0.00    +0.000 OA
BRANCH  10  12
ATOM     12  C   UNL     1      24.007  -7.788  24.018  0.00  0.00    +0.000 A 
ATOM     13  C   UNL     1      24.377  -9.104  24.019  0.00  0.00    +0.000 A 
ATOM     14  C   UNL     1      25.635  -9.449  23.553  0.00  0.00    +0.000 A 
ATOM     15  C   UNL     1      26.530  -8.510  23.085  0.00  0.00    +0.000 A 
ATOM     16  C   UNL     1      26.153  -7.193  23.086  0.00  0.00    +0.000 A 
ATOM     17  C   UNL     1      24.891  -6.849  23.555  0.00  0.00    +0.000 A 
ENDBRANCH  10  12
ENDBRANCH   4   9
BRANCH   5  18
ATOM     18  C   UNL     1      20.119  -9.988  26.309  0.00  0.00    +0.000 C 
ATOM     19  C   UNL     1      20.184 -10.587  27.686  0.00  0.00    +0.000 C 
ATOM     20  C   UNL     1      19.270 -10.799  25.359  0.00  0.00    +0.000 C 
ENDBRANCH   5  18
TORSDOF 3
ENDMDL
MODEL 4
REMARK VINA RESULT:      -5.9     21.958     24.055
REMARK  Name = 
REMARK  3 active torsions:
REMARK  status: ('A' for Active; 'I' for Inactive)
REMARK    1  A    between atoms: C_4  and  N_5
REMARK    2  A    between atoms: C_6  and  C_8
REMARK    3  A    between atoms: C_14  and  C_15
REMARK                            x       y       z     vdW  Elec       q    Type
REMARK                         _______ _______ _______ _____ _____    ______ ____
ROOT
ATOM      1  C   UNL     1      23.938 -12.993  25.414  0.00  0.00    +0.000 C 
ATOM      2  C   UNL     1      23.946 -11.583  24.910  0.00  0.00    +0.000 A 
ATOM      3  C   UNL     1      23.135 -10.640  25.508  0.00  0.00    +0.000 A 
ATOM      4  C   UNL     1      23.109  -9.328  25.078  0.00  0.00    +0.000 A 
ATOM      5  C   UNL     1      23.919  -8.963  24.022  0.00  0.00    +0.000 A 
ATOM      6  C   UNL     1      24.728  -9.924  23.433  0.00  0.00    +0.000 A 
ATOM      7  C   UNL     1      24.758 -11.235  23.857  0.00  0.00    +0.000 A 
ATOM      8  O   UNL     1      25.589 -12.158  23.229  0.00  0.00    +0.000 OA
ENDROOT
BRANCH   4   9
ATOM      9  N   UNL     1      22.270  -8.357  25.698  0.00  0.00    +0.000 NA
ATOM     10  C   UNL     1      20.901  -8.276  25.352  0.00  0.00    +0.000 C 
ATOM     11  O   UNL     1      20.479  -9.087  24.488  0.00  0.00    +0.000 OA
BRANCH  10  12
ATOM     12  C   UNL     1      19.981  -7.313  25.940  0.00  0.00    +0.000 A 
ATOM     13  C   UNL     1      20.139  -5.975  25.704  0.00  0.00    +0.000 A 
ATOM     14  C   UNL     1      19.249  -5.082  26.277  0.00  0.00    +0.000 A 
ATOM     15  C   UNL     1      18.204  -5.495  27.078  0.00  0.00    +0.000 A 
ATOM     16  C   UNL     1      18.051  -6.835  27.310  0.00  0.00    +0.000 A 
ATOM     17  C   UNL     1      18.946  -7.730  26.735  0.00  0.00    +0.000 A 
ENDBRANCH  10  12
ENDBRANCH   4   9
BRANCH   5  18
ATOM     18  C   UNL     1      23.882  -7.564  23.574  0.00  0.00    +0.000 C 
ATOM     19  C   UNL     1      25.256  -6.964  23.465  0.00  0.00    +0.000 C 
ATOM     20  C   UNL     1      23.055  -7.360  22.327  0.00  0.00    +0.000 C 
ENDBRANCH   5  18
TORSDOF 3
ENDMDL
MODEL 5
REMARK VINA RESULT:      -5.8     16.981     19.758
REMARK  Name = 
REMARK  3 active torsions:
REMARK  status: ('A' for Active; 'I' for Inactive)
REMARK    1  A    between atoms: C_4  and  N_5
REMARK    2  A    between atoms: C_6  and  C_8
REMARK    3  A    between atoms: C_14  and  C_15
REMARK                            x       y       z     vdW  Elec       q    Type
REMARK                         _______ _______ _______ _____ _____    ______ ____
ROOT
ATOM      1  C   UNL     1      30.486  22.935  25.477  0.00  0.00    +0.000 C 
ATOM      2  C   UNL     1      29.449  22.941  26.555  0.00  0.00    +0.000 A 
ATOM      3  C   UNL     1      28.171  23.379  26.271  0.00  0.00    +0.000 A 
ATOM      4  C   UNL     1      27.181  23.402  27.234  0.00  0.00    +0.000 A 
ATOM      5  C   UNL     1      27.490  22.975  28.509  0.00  0.00    +0.000 A 
ATOM      6  C   UNL     1      28.779  22.539  28.778  0.00  0.00    +0.000 A 
ATOM      7  C   UNL     1      29.772  22.513  27.822  0.00  0.00    +0.000 A 
ATOM      8  O   UNL     1      31.048  22.065  28.146  0.00  0.00    +0.000 OA
ENDROOT
BRANCH   4   9
ATOM      9  N   UNL     1      25.862  23.855  26.935  0.00  0.00    +0.000 NA
ATOM     10  C   UNL     1      25.588  25.240  26.857  0.00  0.00    +0.000 C 
ATOM     11  O   UNL     1      26.547  26.027  27.061  0.00  0.00    +0.000 OA
BRANCH  10  12
ATOM     12  C   UNL     1      24.269  25.780  26.558  0.00  0.00    +0.000 A 
ATOM     13  C   UNL     1      23.297  25.797  27.519  0.00  0.00    +0.000 A 
ATOM     14  C   UNL     1      22.051  26.316  27.206  0.00  0.00    +0.000 A 
ATOM     15  C   UNL     1      21.757  26.821  25.956  0.00  0.00    +0.000 A 
ATOM     16  C   UNL     1      22.735  26.801  24.998  0.00  0.00    +0.000 A 
ATOM     17  C   UNL     1      23.984  26.278  25.314  0.00  0.00    +0.000 A 
ENDBRANCH  10  12
ENDBRANCH   4   9
BRANCH   5  18
ATOM     18  C   UNL     1      26.427  23.005  29.523  0.00  0.00    +0.000 C 
ATOM     19  C   UNL     1      26.389  21.748  30.347  0.00  0.00    +0.000 C 
ATOM     20  C   UNL     1      26.446  24.256  30.369  0.00  0.00    +0.000 C 
ENDBRANCH   5  18
TORSDOF 3
ENDMDL
MODEL 6
REMARK VINA RESULT:      -5.8     14.950     16.640
REMARK  Name = 
REMARK  3 active torsions:
REMARK  status: ('A' for Active; 'I' for Inactive)
REMARK    1  A    between atoms: C_4  and  N_5
REMARK    2  A    between atoms: C_6  and  C_8
REMARK    3  A    between atoms: C_14  and  C_15
REMARK                            x       y       z     vdW  Elec       q    Type
REMARK                         _______ _______ _______ _____ _____    ______ ____
ROOT
ATOM      1  C   UNL     1      35.640   2.787  39.329  0.00  0.00    +0.000 C 
ATOM      2  C   UNL     1      35.151   3.225  37.985  0.00  0.00    +0.000 A 
ATOM      3  C   UNL     1      35.461   4.488  37.524  0.00  0.00    +0.000 A 
ATOM      4  C   UNL     1      35.032   4.936  36.290  0.00  0.00    +0.000 A 
ATOM      5  C   UNL     1      34.275   4.089  35.507  0.00  0.00    +0.000 A 
ATOM      6  C   UNL     1      33.972   2.823  35.985  0.00  0.00    +0.000 A 
ATOM      7  C   UNL     1      34.397   2.369  37.216  0.00  0.00    +0.000 A 
ATOM      8  O   UNL     1      34.064   1.090  37.647  0.00  0.00    +0.000 OA
ENDROOT
BRANCH   4   9
ATOM      9  N   UNL     1      35.355   6.242  35.817  0.00  0.00    +0.000 NA
ATOM     10  C   UNL     1      34.730   7.377  36.385  0.00  0.00    +0.000 C 
ATOM     11  O   UNL     1      33.897   7.173  37.304  0.00  0.00    +0.000 OA
BRANCH  10  12
ATOM     12  C   UNL     1      35.006   8.741  35.958  0.00  0.00    +0.000 A 
ATOM     13  C   UNL     1      34.156   9.756  36.301  0.00  0.00    +0.000 A 
ATOM     14  C   UNL     1      34.442  11.044  35.880  0.00  0.00    +0.000 A 
ATOM     15  C   UNL     1      35.559  11.341  35.128  0.00  0.00    +0.000 A 
ATOM     16  C   UNL     1      36.407  10.321  34.788  0.00  0.00    +0.000 A 
ATOM     17  C   UNL     1      36.117   9.029  35.210  0.00  0.00    +0.000 A 
ENDBRANCH  10  12
ENDBRANCH   4   9
BRANCH   5  18
ATOM     18  C   UNL     1      33.825   4.578  34.196  0.00  0.00    +0.000 C 
ATOM     19  C   UNL     1      33.687   3.468  33.191  0.00  0.00    +0.000 C 
ATOM     20  C   UNL     1      32.595   5.450  34.275  0.00  0.00    +0.000 C 
ENDBRANCH   5  18
TORSDOF 3
ENDMDL
MODEL 7
REMARK VINA RESULT:      -5.8     19.352     21.553
REMARK  Name = 
REMARK  3 active torsions:
REMARK  status: ('A' for Active; 'I' for Inactive)
REMARK    1  A    between atoms: C_4  and  N_5
REMARK    2  A    between atoms: C_6  and  C_8
REMARK    3  A    between atoms: C_14  and  C_15
REMARK                            x       y       z     vdW  Elec       q    Type
REMARK                         _______ _______ _______ _____ _____    ______ ____
ROOT
ATOM      1  C   UNL     1      30.135  21.948  26.850  0.00  0.00    +0.000 C 
ATOM      2  C   UNL     1      29.372  22.663  25.780  0.00  0.00    +0.000 A 
ATOM      3  C   UNL     1      28.067  23.049  26.014  0.00  0.00    +0.000 A 
ATOM      4  C   UNL     1      27.324  23.711  25.056  0.00  0.00    +0.000 A 
ATOM      5  C   UNL     1      27.911  23.987  23.838  0.00  0.00    +0.000 A 
ATOM      6  C   UNL     1      29.222  23.590  23.619  0.00  0.00    +0.000 A 
ATOM      7  C   UNL     1      29.970  22.929  24.571  0.00  0.00    +0.000 A 
ATOM      8  O   UNL     1      31.281  22.555  24.298  0.00  0.00    +0.000 OA
ENDROOT
BRANCH   4   9
ATOM      9  N   UNL     1      25.977  24.110  25.302  0.00  0.00    +0.000 NA
ATOM     10  C   UNL     1      25.704  25.372  25.878  0.00  0.00    +0.000 C 
ATOM     11  O   UNL     1      26.690  26.102  26.153  0.00  0.00    +0.000 OA
BRANCH  10  12
ATOM     12  C   UNL     1      24.358  25.851  26.159  0.00  0.00    +0.000 A 
ATOM     13  C   UNL     1      23.880  25.850  27.440  0.00  0.00    +0.000 A 
ATOM     14  C   UNL     1      22.595  26.310  27.678  0.00  0.00    +0.000 A 
ATOM     15  C   UNL     1      21.779  26.773  26.667  0.00  0.00    +0.000 A 
ATOM     16  C   UNL     1      22.264  26.771  25.386  0.00  0.00    +0.000 A 
ATOM     17  C   UNL     1      23.553  26.307  25.149  0.00  0.00    +0.000 A 
ENDBRANCH  10  12
ENDBRANCH   4   9
BRANCH   5  18
ATOM     18  C   UNL     1      27.109  24.691  22.828  0.00  0.00    +0.000 C 
ATOM     19  C   UNL     1      27.759  25.967  22.372  0.00  0.00    +0.000 C 
ATOM     20  C   UNL     1      26.689  23.806  21.678  0.00  0.00    +0.000 C 
ENDBRANCH   5  18
TORSDOF 3
ENDMDL
MODEL 8
REMARK VINA RESULT:      -5.7     17.000     19.280
REMARK  Name = 
REMARK  3 active torsions:
REMARK  status: ('A' for Active; 'I' for Inactive)
REMARK    1  A    between atoms: C_4  and  N_5
REMARK    2  A    between atoms: C_6  and  C_8
REMARK    3  A    between atoms: C_14  and  C_15
REMARK                            x       y       z     vdW  Elec       q    Type
REMARK                         _______ _______ _______ _____ _____    ______ ____
ROOT
ATOM      1  C   UNL     1      30.891  21.358  33.199  0.00  0.00    +0.000 C 
ATOM      2  C   UNL     1      30.910  21.822  31.777  0.00  0.00    +0.000 A 
ATOM      3  C   UNL     1      29.892  22.628  31.309  0.00  0.00    +0.000 A 
ATOM      4  C   UNL     1      29.866  23.081  30.005  0.00  0.00    +0.000 A 
ATOM      5  C   UNL     1      30.890  22.711  29.157  0.00  0.00    +0.000 A 
ATOM      6  C   UNL     1      31.905  21.900  29.643  0.00  0.00    +0.000 A 
ATOM      7  C   UNL     1      31.937  21.445  30.944  0.00  0.00    +0.000 A 
ATOM      8  O   UNL     1      32.979  20.633  31.379  0.00  0.00    +0.000 OA
ENDROOT
BRANCH   4   9
ATOM      9  N   UNL     1      28.813  23.914  29.525  0.00  0.00    +0.000 NA
ATOM     10  C   UNL     1      27.592  23.341  29.101  0.00  0.00    +0.000 C 
ATOM     11  O   UNL     1      27.492  22.090  29.169  0.00  0.00    +0.000 OA
BRANCH  10  12
ATOM     12  C   UNL     1      26.470  24.123  28.600  0.00  0.00    +0.000 A 
ATOM     13  C   UNL     1      25.820  25.001  29.422  0.00  0.00    +0.000 A 
ATOM     14  C   UNL     1      24.756  25.732  28.919  0.00  0.00    +0.000 A 
ATOM     15  C   UNL     1      24.329  25.605  27.613  0.00  0.00    +0.000 A 
ATOM     16  C   UNL     1      24.984  24.724  26.795  0.00  0.00    +0.000 A 
ATOM     17  C   UNL     1      26.050  23.991  27.302  0.00  0.00    +0.000 A 
ENDBRANCH  10  12
ENDBRANCH   4   9
BRANCH   5  18
ATOM     18  C   UNL     1      30.851  23.200  27.772  0.00  0.00    +0.000 C 
ATOM     19  C   UNL     1      32.155  23.816  27.347  0.00  0.00    +0.000 C 
ATOM     20  C   UNL     1      30.346  22.169  26.790  0.00  0.00    +0.000 C 
ENDBRANCH   5  18
TORSDOF 3
ENDMDL
MODEL 9
REMARK VINA RESULT:      -5.6     19.767     22.612
REMARK  Name = 
REMARK  3 active torsions:
REMARK  status: ('A' for Active; 'I' for Inactive)
REMARK    1  A    between atoms: C_4  and  N_5
REMARK    2  A    between atoms: C_6  and  C_8
REMARK    3  A    between atoms: C_14  and  C_15
REMARK                            x       y       z     vdW  Elec       q    Type
REMARK                         _______ _______ _______ _____ _____    ______ ____
ROOT
ATOM      1  C   UNL     1      27.816  23.454  22.722  0.00  0.00    +0.000 C 
ATOM      2  C   UNL     1      28.710  23.341  23.917  0.00  0.00    +0.000 A 
ATOM      3  C   UNL     1      30.062  23.583  23.783  0.00  0.00    +0.000 A 
ATOM      4  C   UNL     1      30.925  23.491  24.857  0.00  0.00    +0.000 A 
ATOM      5  C   UNL     1      30.410  23.149  26.091  0.00  0.00    +0.000 A 
ATOM      6  C   UNL     1      29.049  22.909  26.207  0.00  0.00    +0.000 A 
ATOM      7  C   UNL     1      28.182  22.998  25.139  0.00  0.00    +0.000 A 
ATOM      8  O   UNL     1      26.825  22.747  25.313  0.00  0.00    +0.000 OA
ENDROOT
BRANCH   4   9
ATOM      9  N   UNL     1      32.322  23.742  24.715  0.00  0.00    +0.000 NA
ATOM     10  C   UNL     1      32.819  25.062  24.810  0.00  0.00    +0.000 C 
ATOM     11  O   UNL     1      31.982  25.977  25.021  0.00  0.00    +0.000 OA
BRANCH  10  12
ATOM     12  C   UNL     1      34.229  25.399  24.677  0.00  0.00    +0.000 A 
ATOM     13  C   UNL     1      34.667  26.662  24.967  0.00  0.00    +0.000 A 
ATOM     14  C   UNL     1      36.014  26.955  24.830  0.00  0.00    +0.000 A 
ATOM     15  C   UNL     1      36.933  26.015  24.413  0.00  0.00    +0.000 A 
ATOM     16  C   UNL     1      36.488  24.752  24.124  0.00  0.00    +0.000 A 
ATOM     17  C   UNL     1      35.136  24.461  24.260  0.00  0.00    +0.000 A 
ENDBRANCH  10  12
ENDBRANCH   4   9
BRANCH   5  18
ATOM     18  C   UNL     1      31.340  23.055  27.225  0.00  0.00    +0.000 C 
ATOM     19  C   UNL     1      31.259  24.254  28.128  0.00  0.00    +0.000 C 
ATOM     20  C   UNL     1      31.232  21.749  27.977  0.00  0.00    +0.000 C 
ENDBRANCH   5  18
TORSDOF 3
ENDMDL
MODEL 10
REMARK VINA RESULT:      -5.6     16.995     19.218
REMARK  Name = 
REMARK  3 active torsions:
REMARK  status: ('A' for Active; 'I' for Inactive)
REMARK    1  A    between atoms: C_4  and  N_5
REMARK    2  A    between atoms: C_6  and  C_8
REMARK    3  A    between atoms: C_14  and  C_15
REMARK                            x       y       z     vdW  Elec       q    Type
REMARK                         _______ _______ _______ _____ _____    ______ ____
ROOT
ATOM      1  C   UNL     1      23.805  27.276  29.986  0.00  0.00    +0.000 C 
ATOM      2  C   UNL     1      24.697  26.088  29.809  0.00  0.00    +0.000 A 
ATOM      3  C   UNL     1      24.967  25.620  28.539  0.00  0.00    +0.000 A 
ATOM      4  C   UNL     1      25.784  24.527  28.326  0.00  0.00    +0.000 A 
ATOM      5  C   UNL     1      26.338  23.894  29.420  0.00  0.00    +0.000 A 
ATOM      6  C   UNL     1      26.055  24.377  30.690  0.00  0.00    +0.000 A 
ATOM      7  C   UNL     1      25.241  25.467  30.909  0.00  0.00    +0.000 A 
ATOM      8  O   UNL     1      24.991  25.909  32.204  0.00  0.00    +0.000 OA
ENDROOT
BRANCH   4   9
ATOM      9  N   UNL     1      26.061  24.047  27.012  0.00  0.00    +0.000 NA
ATOM     10  C   UNL     1      27.054  24.672  26.224  0.00  0.00    +0.000 C 
ATOM     11  O   UNL     1      27.661  25.648  26.733  0.00  0.00    +0.000 OA
BRANCH  10  12
ATOM     12  C   UNL     1      27.395  24.242  24.875  0.00  0.00    +0.000 A 
ATOM     13  C   UNL     1      28.508  23.479  24.655  0.00  0.00    +0.000 A 
ATOM     14  C   UNL     1      28.809  23.084  23.362  0.00  0.00    +0.000 A 
ATOM     15  C   UNL     1      28.022  23.433  22.284  0.00  0.00    +0.000 A 
ATOM     16  C   UNL     1      26.908  24.197  22.511  0.00  0.00    +0.000 A 
ATOM     17  C   UNL     1      26.609  24.593  23.809  0.00  0.00    +0.000 A 
ENDBRANCH  10  12
ENDBRANCH   4   9
BRANCH   5  18
ATOM     18  C   UNL     1      27.205  22.732  29.180  0.00  0.00    +0.000 C 
ATOM     19  C   UNL     1      28.663  23.097  29.192  0.00  0.00    +0.000 C 
ATOM     20  C   UNL     1      26.889  21.558  30.077  0.00  0.00    +0.000 C 
ENDBRANCH   5  18
TORSDOF 3
ENDMDL
