MODEL 1
REMARK VINA RESULT:      -6.7      0.000      0.000
REMARK  Name = 
REMARK  4 active torsions:
REMARK  status: ('A' for Active; 'I' for Inactive)
REMARK    1  A    between atoms: C_2  and  N_3
REMARK    2  A    between atoms: C_2  and  C_13
REMARK    3  A    between atoms: N_3  and  N_4
REMARK    4  A    between atoms: C_5  and  C_7
REMARK                            x       y       z     vdW  Elec       q    Type
REMARK                         _______ _______ _______ _____ _____    ______ ____
ROOT
ATOM      1  C   UNL     1      16.921  10.367  38.274  0.00  0.00    +0.000 C 
ATOM      2  C   UNL     1      17.217  10.105  37.029  0.00  0.00    +0.000 C 
ENDROOT
BRANCH   2   3
ATOM      3  C   UNL     1      16.531  10.720  35.923  0.00  0.00    +0.000 A 
ATOM      4  C   UNL     1      15.583  11.703  36.091  0.00  0.00    +0.000 A 
ATOM      5  C   UNL     1      14.941  12.328  35.020  0.00  0.00    +0.000 A 
ATOM      6  C   UNL     1      15.253  11.963  33.731  0.00  0.00    +0.000 A 
ATOM      7  C   UNL     1      14.557  12.650  32.577  0.00  0.00    +0.000 C 
ATOM      8  C   UNL     1      16.198  10.983  33.531  0.00  0.00    +0.000 A 
ATOM      9  C   UNL     1      16.531  10.609  32.110  0.00  0.00    +0.000 C 
ATOM     10  C   UNL     1      16.829  10.367  34.595  0.00  0.00    +0.000 A 
ENDBRANCH   2   3
BRANCH   2  11
ATOM     11  N   UNL     1      18.234   9.135  36.762  0.00  0.00    +0.000 NA
BRANCH  11  12
ATOM     12  N   UNL     1      19.548   9.611  36.470  0.00  0.00    +0.000 NA
ATOM     13  C   UNL     1      20.576   9.661  37.424  0.00  0.00    +0.000 C 
ATOM     14  O   UNL     1      20.317   9.282  38.596  0.00  0.00    +0.000 OA
BRANCH  13  15
ATOM     15  C   UNL     1      21.925  10.136  37.106  0.00  0.00    +0.000 A 
ATOM     16  C   UNL     1      22.910   9.514  36.377  0.00  0.00    +0.000 A 
ATOM     17  C   UNL     1      23.999  10.396  36.401  0.00  0.00    +0.000 A 
ATOM     18  O   UNL     1      23.694  11.450  37.081  0.00  0.00    +0.000 OA
ATOM     19  C   UNL     1      22.473  11.340  37.520  0.00  0.00    +0.000 A 
ATOM     20  C   UNL     1      21.738  12.340  38.349  0.00  0.00    +0.000 C 
ENDBRANCH  13  15
ENDBRANCH  11  12
ENDBRANCH   2  11
TORSDOF 4
ENDMDL
MODEL 2
REMARK VINA RESULT:      -6.6     28.914     30.876
REMARK  Name = 
REMARK  4 active torsions:
REMARK  status: ('A' for Active; 'I' for Inactive)
REMARK    1  A    between atoms: C_2  and  N_3
REMARK    2  A    between atoms: C_2  and  C_13
REMARK    3  A    between atoms: N_3  and  N_4
REMARK    4  A    between atoms: C_5  and  C_7
REMARK                            x       y       z     vdW  Elec       q    Type
REMARK                         _______ _______ _______ _____ _____    ______ ____
ROOT
ATOM      1  C   UNL     1      31.313  20.129  12.743  0.00  0.00    +0.000 C 
ATOM      2  C   UNL     1      31.034  21.129  11.949  0.00  0.00    +0.000 C 
ENDROOT
BRANCH   2   3
ATOM      3  C   UNL     1      29.829  21.905  12.072  0.00  0.00    +0.000 A 
ATOM      4  C   UNL     1      28.756  21.749  11.224  0.00  0.00    +0.000 A 
ATOM      5  C   UNL     1      27.571  22.475  11.360  0.00  0.00    +0.000 A 
ATOM      6  C   UNL     1      27.445  23.390  12.379  0.00  0.00    +0.000 A 
ATOM      7  C   UNL     1      26.154  24.166  12.524  0.00  0.00    +0.000 C 
ATOM      8  C   UNL     1      28.500  23.567  13.244  0.00  0.00    +0.000 A 
ATOM      9  C   UNL     1      28.334  24.566  14.359  0.00  0.00    +0.000 C 
ATOM     10  C   UNL     1      29.672  22.847  13.103  0.00  0.00    +0.000 A 
ENDBRANCH   2   3
BRANCH   2  11
ATOM     11  N   UNL     1      31.949  21.429  10.890  0.00  0.00    +0.000 NA
BRANCH  11  12
ATOM     12  N   UNL     1      31.805  20.717   9.662  0.00  0.00    +0.000 NA
ATOM     13  C   UNL     1      31.291  21.300   8.493  0.00  0.00    +0.000 C 
ATOM     14  O   UNL     1      30.930  22.504   8.539  0.00  0.00    +0.000 OA
BRANCH  13  15
ATOM     15  C   UNL     1      31.165  20.562   7.233  0.00  0.00    +0.000 A 
ATOM     16  C   UNL     1      30.183  19.684   6.841  0.00  0.00    +0.000 A 
ATOM     17  C   UNL     1      30.562  19.256   5.561  0.00  0.00    +0.000 A 
ATOM     18  O   UNL     1      31.668  19.825   5.218  0.00  0.00    +0.000 OA
ATOM     19  C   UNL     1      32.064  20.609   6.178  0.00  0.00    +0.000 A 
ATOM     20  C   UNL     1      33.297  21.449   6.182  0.00  0.00    +0.000 C 
ENDBRANCH  13  15
ENDBRANCH  11  12
ENDBRANCH   2  11
TORSDOF 4
ENDMDL
MODEL 3
REMARK VINA RESULT:      -6.5      0.704      2.012
REMARK  Name = 
REMARK  4 active torsions:
REMARK  status: ('A' for Active; 'I' for Inactive)
REMARK    1  A    between atoms: C_2  and  N_3
REMARK    2  A    between atoms: C_2  and  C_13
REMARK    3  A    between atoms: N_3  and  N_4
REMARK    4  A    between atoms: C_5  and  C_7
REMARK                            x       y       z     vdW  Elec       q    Type
REMARK                         _______ _______ _______ _____ _____    ______ ____
ROOT
ATOM      1  C   UNL     1      16.563  10.487  38.114  0.00  0.00    +0.000 C 
ATOM      2  C   UNL     1      17.146  10.318  36.956  0.00  0.00    +0.000 C 
ENDROOT
BRANCH   2   3
ATOM      3  C   UNL     1      16.588  10.814  35.727  0.00  0.00    +0.000 A 
ATOM      4  C   UNL     1      16.919  10.291  34.497  0.00  0.00    +0.000 A 
ATOM      5  C   UNL     1      16.354  10.744  33.304  0.00  0.00    +0.000 A 
ATOM      6  C   UNL     1      15.422  11.756  33.332  0.00  0.00    +0.000 A 
ATOM      7  C   UNL     1      14.809  12.235  32.034  0.00  0.00    +0.000 C 
ATOM      8  C   UNL     1      15.069  12.297  34.546  0.00  0.00    +0.000 A 
ATOM      9  C   UNL     1      14.037  13.396  34.552  0.00  0.00    +0.000 C 
ATOM     10  C   UNL     1      15.633  11.845  35.724  0.00  0.00    +0.000 A 
ENDBRANCH   2   3
BRANCH   2  11
ATOM     11  N   UNL     1      18.366   9.572  36.914  0.00  0.00    +0.000 NA
BRANCH  11  12
ATOM     12  N   UNL     1      19.593  10.300  36.911  0.00  0.00    +0.000 NA
ATOM     13  C   UNL     1      20.607  10.099  37.862  0.00  0.00    +0.000 C 
ATOM     14  O   UNL     1      20.413   9.245  38.765  0.00  0.00    +0.000 OA
BRANCH  13  15
ATOM     15  C   UNL     1      21.870  10.843  37.837  0.00  0.00    +0.000 A 
ATOM     16  C   UNL     1      22.176  12.045  38.426  0.00  0.00    +0.000 A 
ATOM     17  C   UNL     1      23.507  12.302  38.069  0.00  0.00    +0.000 A 
ATOM     18  O   UNL     1      23.957  11.341  37.335  0.00  0.00    +0.000 OA
ATOM     19  C   UNL     1      23.021  10.451  37.170  0.00  0.00    +0.000 A 
ATOM     20  C   UNL     1      23.131   9.187  36.386  0.00  0.00    +0.000 C 
ENDBRANCH  13  15
ENDBRANCH  11  12
ENDBRANCH   2  11
TORSDOF 4
ENDMDL
MODEL 4
REMARK VINA RESULT:      -6.4     26.948     29.430
REMARK  Name = 
REMARK  4 active torsions:
REMARK  status: ('A' for Active; 'I' for Inactive)
REMARK    1  A    between atoms: C_2  and  N_3
REMARK    2  A    between atoms: C_2  and  C_13
REMARK    3  A    between atoms: N_3  and  N_4
REMARK    4  A    between atoms: C_5  and  C_7
REMARK                            x       y       z     vdW  Elec       q    Type
REMARK                         _______ _______ _______ _____ _____    ______ ____
ROOT
ATOM      1  C   UNL     1      37.084  19.534  15.126  0.00  0.00    +0.000 C 
ATOM      2  C   UNL     1      36.646  18.421  14.600  0.00  0.00    +0.000 C 
ENDROOT
BRANCH   2   3
ATOM      3  C   UNL     1      36.449  17.223  15.371  0.00  0.00    +0.000 A 
ATOM      4  C   UNL     1      36.753  17.144  16.711  0.00  0.00    +0.000 A 
ATOM      5  C   UNL     1      36.532  15.995  17.472  0.00  0.00    +0.000 A 
ATOM      6  C   UNL     1      35.985  14.880  16.880  0.00  0.00    +0.000 A 
ATOM      7  C   UNL     1      35.741  13.642  17.715  0.00  0.00    +0.000 C 
ATOM      8  C   UNL     1      35.670  14.929  15.542  0.00  0.00    +0.000 A 
ATOM      9  C   UNL     1      35.061  13.699  14.919  0.00  0.00    +0.000 C 
ATOM     10  C   UNL     1      35.893  16.069  14.794  0.00  0.00    +0.000 A 
ENDBRANCH   2   3
BRANCH   2  11
ATOM     11  N   UNL     1      36.394  18.390  13.192  0.00  0.00    +0.000 NA
BRANCH  11  12
ATOM     12  N   UNL     1      35.119  18.836  12.733  0.00  0.00    +0.000 NA
ATOM     13  C   UNL     1      34.932  20.040  12.036  0.00  0.00    +0.000 C 
ATOM     14  O   UNL     1      35.938  20.765  11.822  0.00  0.00    +0.000 OA
BRANCH  13  15
ATOM     15  C   UNL     1      33.618  20.478  11.555  0.00  0.00    +0.000 A 
ATOM     16  C   UNL     1      32.604  21.091  12.250  0.00  0.00    +0.000 A 
ATOM     17  C   UNL     1      31.573  21.268  11.317  0.00  0.00    +0.000 A 
ATOM     18  O   UNL     1      31.937  20.805  10.169  0.00  0.00    +0.000 OA
ATOM     19  C   UNL     1      33.143  20.325  10.261  0.00  0.00    +0.000 A 
ATOM     20  C   UNL     1      33.931  19.695   9.162  0.00  0.00    +0.000 C 
ENDBRANCH  13  15
ENDBRANCH  11  12
ENDBRANCH   2  11
TORSDOF 4
ENDMDL
MODEL 5
REMARK VINA RESULT:      -6.3     29.209     31.165
REMARK  Name = 
REMARK  4 active torsions:
REMARK  status: ('A' for Active; 'I' for Inactive)
REMARK    1  A    between atoms: C_2  and  N_3
REMARK    2  A    between atoms: C_2  and  C_13
REMARK    3  A    between atoms: N_3  and  N_4
REMARK    4  A    between atoms: C_5  and  C_7
REMARK                            x       y       z     vdW  Elec       q    Type
REMARK                         _______ _______ _______ _____ _____    ______ ____
ROOT
ATOM      1  C   UNL     1      31.418  20.077  11.955  0.00  0.00    +0.000 C 
ATOM      2  C   UNL     1      31.151  21.300  11.580  0.00  0.00    +0.000 C 
ENDROOT
BRANCH   2   3
ATOM      3  C   UNL     1      29.981  22.010  12.023  0.00  0.00    +0.000 A 
ATOM      4  C   UNL     1      30.005  22.895  13.076  0.00  0.00    +0.000 A 
ATOM      5  C   UNL     1      28.880  23.614  13.487  0.00  0.00    +0.000 A 
ATOM      6  C   UNL     1      27.685  23.447  12.826  0.00  0.00    +0.000 A 
ATOM      7  C   UNL     1      26.474  24.235  13.275  0.00  0.00    +0.000 C 
ATOM      8  C   UNL     1      27.631  22.568  11.769  0.00  0.00    +0.000 A 
ATOM      9  C   UNL     1      26.314  22.412  11.053  0.00  0.00    +0.000 C 
ATOM     10  C   UNL     1      28.747  21.859  11.367  0.00  0.00    +0.000 A 
ENDBRANCH   2   3
BRANCH   2  11
ATOM     11  N   UNL     1      32.041  21.936  10.657  0.00  0.00    +0.000 NA
BRANCH  11  12
ATOM     12  N   UNL     1      31.651  21.993   9.286  0.00  0.00    +0.000 NA
ATOM     13  C   UNL     1      32.366  21.358   8.258  0.00  0.00    +0.000 C 
ATOM     14  O   UNL     1      33.408  20.722   8.564  0.00  0.00    +0.000 OA
BRANCH  13  15
ATOM     15  C   UNL     1      31.945  21.411   6.855  0.00  0.00    +0.000 A 
ATOM     16  C   UNL     1      32.426  22.198   5.838  0.00  0.00    +0.000 A 
ATOM     17  C   UNL     1      31.658  21.859   4.715  0.00  0.00    +0.000 A 
ATOM     18  O   UNL     1      30.797  20.951   5.031  0.00  0.00    +0.000 OA
ATOM     19  C   UNL     1      30.929  20.653   6.291  0.00  0.00    +0.000 A 
ATOM     20  C   UNL     1      30.126  19.652   7.052  0.00  0.00    +0.000 C 
ENDBRANCH  13  15
ENDBRANCH  11  12
ENDBRANCH   2  11
TORSDOF 4
ENDMDL
MODEL 6
REMARK VINA RESULT:      -6.3     17.302     20.454
REMARK  Name = 
REMARK  4 active torsions:
REMARK  status: ('A' for Active; 'I' for Inactive)
REMARK    1  A    between atoms: C_2  and  N_3
REMARK    2  A    between atoms: C_2  and  C_13
REMARK    3  A    between atoms: N_3  and  N_4
REMARK    4  A    between atoms: C_5  and  C_7
REMARK                            x       y       z     vdW  Elec       q    Type
REMARK                         _______ _______ _______ _____ _____    ______ ____
ROOT
ATOM      1  C   UNL     1      34.739  -1.697  35.654  0.00  0.00    +0.000 C 
ATOM      2  C   UNL     1      33.939  -1.110  34.804  0.00  0.00    +0.000 C 
ENDROOT
BRANCH   2   3
ATOM      3  C   UNL     1      33.878   0.319  34.655  0.00  0.00    +0.000 A 
ATOM      4  C   UNL     1      33.662   0.930  33.441  0.00  0.00    +0.000 A 
ATOM      5  C   UNL     1      33.567   2.316  33.296  0.00  0.00    +0.000 A 
ATOM      6  C   UNL     1      33.688   3.127  34.401  0.00  0.00    +0.000 A 
ATOM      7  C   UNL     1      33.576   4.627  34.235  0.00  0.00    +0.000 C 
ATOM      8  C   UNL     1      33.903   2.545  35.628  0.00  0.00    +0.000 A 
ATOM      9  C   UNL     1      34.021   3.453  36.825  0.00  0.00    +0.000 C 
ATOM     10  C   UNL     1      33.998   1.173  35.765  0.00  0.00    +0.000 A 
ENDBRANCH   2   3
BRANCH   2  11
ATOM     11  N   UNL     1      33.061  -1.928  34.024  0.00  0.00    +0.000 NA
BRANCH  11  12
ATOM     12  N   UNL     1      33.645  -2.792  33.050  0.00  0.00    +0.000 NA
ATOM     13  C   UNL     1      33.366  -4.166  32.978  0.00  0.00    +0.000 C 
ATOM     14  O   UNL     1      32.573  -4.656  33.823  0.00  0.00    +0.000 OA
BRANCH  13  15
ATOM     15  C   UNL     1      33.960  -5.040  31.962  0.00  0.00    +0.000 A 
ATOM     16  C   UNL     1      33.573  -5.235  30.658  0.00  0.00    +0.000 A 
ATOM     17  C   UNL     1      34.470  -6.184  30.146  0.00  0.00    +0.000 A 
ATOM     18  O   UNL     1      35.316  -6.524  31.059  0.00  0.00    +0.000 OA
ATOM     19  C   UNL     1      35.053  -5.871  32.154  0.00  0.00    +0.000 A 
ATOM     20  C   UNL     1      35.794  -5.975  33.445  0.00  0.00    +0.000 C 
ENDBRANCH  13  15
ENDBRANCH  11  12
ENDBRANCH   2  11
TORSDOF 4
ENDMDL
MODEL 7
REMARK VINA RESULT:      -6.3     15.670     17.534
REMARK  Name = 
REMARK  4 active torsions:
REMARK  status: ('A' for Active; 'I' for Inactive)
REMARK    1  A    between atoms: C_2  and  N_3
REMARK    2  A    between atoms: C_2  and  C_13
REMARK    3  A    between atoms: N_3  and  N_4
REMARK    4  A    between atoms: C_5  and  C_7
REMARK                            x       y       z     vdW  Elec       q    Type
REMARK                         _______ _______ _______ _____ _____    ______ ____
ROOT
ATOM      1  C   UNL     1      32.624   5.066  33.850  0.00  0.00    +0.000 C 
ATOM      2  C   UNL     1      33.667   4.338  34.149  0.00  0.00    +0.000 C 
ENDROOT
BRANCH   2   3
ATOM      3  C   UNL     1      33.700   2.913  33.958  0.00  0.00    +0.000 A 
ATOM      4  C   UNL     1      33.928   2.333  32.731  0.00  0.00    +0.000 A 
ATOM      5  C   UNL     1      33.996   0.951  32.546  0.00  0.00    +0.000 A 
ATOM      6  C   UNL     1      33.832   0.111  33.623  0.00  0.00    +0.000 A 
ATOM      7  C   UNL     1      33.914  -1.386  33.415  0.00  0.00    +0.000 C 
ATOM      8  C   UNL     1      33.602   0.660  34.863  0.00  0.00    +0.000 A 
ATOM      9  C   UNL     1      33.438  -0.280  36.029  0.00  0.00    +0.000 C 
ATOM     10  C   UNL     1      33.535   2.030  35.039  0.00  0.00    +0.000 A 
ENDBRANCH   2   3
BRANCH   2  11
ATOM     11  N   UNL     1      34.803   4.987  34.729  0.00  0.00    +0.000 NA
BRANCH  11  12
ATOM     12  N   UNL     1      34.669   6.358  35.101  0.00  0.00    +0.000 NA
ATOM     13  C   UNL     1      35.683   7.078  35.754  0.00  0.00    +0.000 C 
ATOM     14  O   UNL     1      36.752   6.477  36.034  0.00  0.00    +0.000 OA
BRANCH  13  15
ATOM     15  C   UNL     1      35.539   8.491  36.116  0.00  0.00    +0.000 A 
ATOM     16  C   UNL     1      36.111   9.595  35.532  0.00  0.00    +0.000 A 
ATOM     17  C   UNL     1      35.654  10.687  36.282  0.00  0.00    +0.000 A 
ATOM     18  O   UNL     1      34.879  10.275  37.228  0.00  0.00    +0.000 OA
ATOM     19  C   UNL     1      34.780   8.979  37.169  0.00  0.00    +0.000 A 
ATOM     20  C   UNL     1      33.981   8.111  38.083  0.00  0.00    +0.000 C 
ENDBRANCH  13  15
ENDBRANCH  11  12
ENDBRANCH   2  11
TORSDOF 4
ENDMDL
MODEL 8
REMARK VINA RESULT:      -6.1     29.637     31.355
REMARK  Name = 
REMARK  4 active torsions:
REMARK  status: ('A' for Active; 'I' for Inactive)
REMARK    1  A    between atoms: C_2  and  N_3
REMARK    2  A    between atoms: C_2  and  C_13
REMARK    3  A    between atoms: N_3  and  N_4
REMARK    4  A    between atoms: C_5  and  C_7
REMARK                            x       y       z     vdW  Elec       q    Type
REMARK                         _______ _______ _______ _____ _____    ______ ____
ROOT
ATOM      1  C   UNL     1      32.300  20.556  12.079  0.00  0.00    +0.000 C 
ATOM      2  C   UNL     1      31.351  21.042  11.324  0.00  0.00    +0.000 C 
ENDROOT
BRANCH   2   3
ATOM      3  C   UNL     1      30.233  21.773  11.857  0.00  0.00    +0.000 A 
ATOM      4  C   UNL     1      30.346  22.620  12.936  0.00  0.00    +0.000 A 
ATOM      5  C   UNL     1      29.272  23.359  13.436  0.00  0.00    +0.000 A 
ATOM      6  C   UNL     1      28.036  23.254  12.841  0.00  0.00    +0.000 A 
ATOM      7  C   UNL     1      26.880  24.064  13.385  0.00  0.00    +0.000 C 
ATOM      8  C   UNL     1      27.892  22.415  11.760  0.00  0.00    +0.000 A 
ATOM      9  C   UNL     1      26.532  22.325  11.118  0.00  0.00    +0.000 C 
ATOM     10  C   UNL     1      28.959  21.685  11.270  0.00  0.00    +0.000 A 
ENDBRANCH   2   3
BRANCH   2  11
ATOM     11  N   UNL     1      31.412  20.797   9.915  0.00  0.00    +0.000 NA
BRANCH  11  12
ATOM     12  N   UNL     1      32.493  21.375   9.184  0.00  0.00    +0.000 NA
ATOM     13  C   UNL     1      32.382  22.583   8.477  0.00  0.00    +0.000 C 
ATOM     14  O   UNL     1      31.271  23.172   8.480  0.00  0.00    +0.000 OA
BRANCH  13  15
ATOM     15  C   UNL     1      33.505  23.174   7.744  0.00  0.00    +0.000 A 
ATOM     16  C   UNL     1      33.727  23.214   6.389  0.00  0.00    +0.000 A 
ATOM     17  C   UNL     1      34.953  23.876   6.236  0.00  0.00    +0.000 A 
ATOM     18  O   UNL     1      35.422  24.203   7.393  0.00  0.00    +0.000 OA
ATOM     19  C   UNL     1      34.597  23.807   8.319  0.00  0.00    +0.000 A 
ATOM     20  C   UNL     1      34.767  23.987   9.791  0.00  0.00    +0.000 C 
ENDBRANCH  13  15
ENDBRANCH  11  12
ENDBRANCH   2  11
TORSDOF 4
ENDMDL
MODEL 9
REMARK VINA RESULT:      -6.0     17.854     19.813
REMARK  Name = 
REMARK  4 active torsions:
REMARK  status: ('A' for Active; 'I' for Inactive)
REMARK    1  A    between atoms: C_2  and  N_3
REMARK    2  A    between atoms: C_2  and  C_13
REMARK    3  A    between atoms: N_3  and  N_4
REMARK    4  A    between atoms: C_5  and  C_7
REMARK                            x       y       z     vdW  Elec       q    Type
REMARK                         _______ _______ _______ _____ _____    ______ ____
ROOT
ATOM      1  C   UNL     1      26.957  24.016  22.615  0.00  0.00    +0.000 C 
ATOM      2  C   UNL     1      27.448  23.626  23.761  0.00  0.00    +0.000 C 
ENDROOT
BRANCH   2   3
ATOM      3  C   UNL     1      28.835  23.787  24.106  0.00  0.00    +0.000 A 
ATOM      4  C   UNL     1      29.722  22.734  24.125  0.00  0.00    +0.000 A 
ATOM      5  C   UNL     1      31.077  22.890  24.425  0.00  0.00    +0.000 A 
ATOM      6  C   UNL     1      31.571  24.140  24.716  0.00  0.00    +0.000 A 
ATOM      7  C   UNL     1      33.042  24.301  25.032  0.00  0.00    +0.000 C 
ATOM      8  C   UNL     1      30.709  25.212  24.704  0.00  0.00    +0.000 A 
ATOM      9  C   UNL     1      31.276  26.573  25.015  0.00  0.00    +0.000 C 
ATOM     10  C   UNL     1      29.369  25.052  24.408  0.00  0.00    +0.000 A 
ENDBRANCH   2   3
BRANCH   2  11
ATOM     11  N   UNL     1      26.573  22.975  24.688  0.00  0.00    +0.000 NA
BRANCH  11  12
ATOM     12  N   UNL     1      27.106  22.600  25.957  0.00  0.00    +0.000 NA
ATOM     13  C   UNL     1      26.932  23.367  27.120  0.00  0.00    +0.000 C 
ATOM     14  O   UNL     1      26.287  24.443  27.030  0.00  0.00    +0.000 OA
BRANCH  13  15
ATOM     15  C   UNL     1      27.471  22.961  28.421  0.00  0.00    +0.000 A 
ATOM     16  C   UNL     1      26.809  22.432  29.502  0.00  0.00    +0.000 A 
ATOM     17  C   UNL     1      27.794  22.248  30.483  0.00  0.00    +0.000 A 
ATOM     18  O   UNL     1      28.940  22.630  30.029  0.00  0.00    +0.000 OA
ATOM     19  C   UNL     1      28.798  23.061  28.809  0.00  0.00    +0.000 A 
ATOM     20  C   UNL     1      29.878  23.593  27.928  0.00  0.00    +0.000 C 
ENDBRANCH  13  15
ENDBRANCH  11  12
ENDBRANCH   2  11
TORSDOF 4
ENDMDL
MODEL 10
REMARK VINA RESULT:      -6.0     18.310     19.887
REMARK  Name = 
REMARK  4 active torsions:
REMARK  status: ('A' for Active; 'I' for Inactive)
REMARK    1  A    between atoms: C_2  and  N_3
REMARK    2  A    between atoms: C_2  and  C_13
REMARK    3  A    between atoms: N_3  and  N_4
REMARK    4  A    between atoms: C_5  and  C_7
REMARK                            x       y       z     vdW  Elec       q    Type
REMARK                         _______ _______ _______ _____ _____    ______ ____
ROOT
ATOM      1  C   UNL     1      30.044  22.328  25.577  0.00  0.00    +0.000 C 
ATOM      2  C   UNL     1      29.009  22.968  25.103  0.00  0.00    +0.000 C 
ENDROOT
BRANCH   2   3
ATOM      3  C   UNL     1      29.115  23.941  24.049  0.00  0.00    +0.000 A 
ATOM      4  C   UNL     1      29.035  23.604  22.717  0.00  0.00    +0.000 A 
ATOM      5  C   UNL     1      29.101  24.549  21.690  0.00  0.00    +0.000 A 
ATOM      6  C   UNL     1      29.252  25.881  21.999  0.00  0.00    +0.000 A 
ATOM      7  C   UNL     1      29.316  26.898  20.881  0.00  0.00    +0.000 C 
ATOM      8  C   UNL     1      29.334  26.249  23.322  0.00  0.00    +0.000 A 
ATOM      9  C   UNL     1      29.487  27.715  23.635  0.00  0.00    +0.000 C 
ATOM     10  C   UNL     1      29.269  25.309  24.333  0.00  0.00    +0.000 A 
ENDBRANCH   2   3
BRANCH   2  11
ATOM     11  N   UNL     1      27.729  22.716  25.689  0.00  0.00    +0.000 NA
BRANCH  11  12
ATOM     12  N   UNL     1      27.518  23.136  27.037  0.00  0.00    +0.000 NA
ATOM     13  C   UNL     1      26.303  23.670  27.493  0.00  0.00    +0.000 C 
ATOM     14  O   UNL     1      25.362  23.795  26.667  0.00  0.00    +0.000 OA
BRANCH  13  15
ATOM     15  C   UNL     1      26.095  24.082  28.884  0.00  0.00    +0.000 A 
ATOM     16  C   UNL     1      25.739  25.314  29.376  0.00  0.00    +0.000 A 
ATOM     17  C   UNL     1      25.700  25.158  30.768  0.00  0.00    +0.000 A 
ATOM     18  O   UNL     1      26.003  23.943  31.081  0.00  0.00    +0.000 OA
ATOM     19  C   UNL     1      26.246  23.267  29.996  0.00  0.00    +0.000 A 
ATOM     20  C   UNL     1      26.633  21.828  29.918  0.00  0.00    +0.000 C 
ENDBRANCH  13  15
ENDBRANCH  11  12
ENDBRANCH   2  11
TORSDOF 4
ENDMDL
