MODEL 1
REMARK VINA RESULT:      -6.2      0.000      0.000
REMARK  Name = 
REMARK  5 active torsions:
REMARK  status: ('A' for Active; 'I' for Inactive)
REMARK    1  A    between atoms: C_2  and  O_3
REMARK    2  A    between atoms: O_3  and  C_4
REMARK    3  A    between atoms: C_4  and  C_6
REMARK    4  A    between atoms: C_6  and  N_7
REMARK    5  A    between atoms: C_9  and  C_10
REMARK                            x       y       z     vdW  Elec       q    Type
REMARK                         _______ _______ _______ _____ _____    ______ ____
ROOT
ATOM      1  N   UNL     1      18.701   9.909  37.460  0.00  0.00    +0.000 N 
ATOM      2  N   UNL     1      18.520  10.174  36.183  0.00  0.00    +0.000 NA
ATOM      3  C   UNL     1      17.235  10.487  35.946  0.00  0.00    +0.000 A 
ATOM      4  C   UNL     1      16.591  10.407  37.160  0.00  0.00    +0.000 A 
ATOM      5  C   UNL     1      17.527  10.045  38.089  0.00  0.00    +0.000 A 
ATOM      6  N   UNL     1      17.257   9.852  39.493  0.00  0.00    +0.000 NA
ENDROOT
BRANCH   3   7
ATOM      7  C   UNL     1      16.608  10.843  34.678  0.00  0.00    +0.000 A 
ATOM      8  C   UNL     1      15.560  11.737  34.646  0.00  0.00    +0.000 A 
ATOM      9  C   UNL     1      14.955  12.083  33.439  0.00  0.00    +0.000 A 
ATOM     10  C   UNL     1      15.380  11.548  32.241  0.00  0.00    +0.000 A 
ATOM     11 CL   UNL     1      14.641  11.964  30.707  0.00  0.00    +0.000 Cl
ATOM     12  C   UNL     1      16.434  10.651  32.272  0.00  0.00    +0.000 A 
ATOM     13  C   UNL     1      17.024  10.316  33.473  0.00  0.00    +0.000 A 
ENDBRANCH   3   7
BRANCH   1  14
ATOM     14  C   UNL     1      19.936   9.535  38.103  0.00  0.00    +0.000 C 
BRANCH  14  15
ATOM     15  C   UNL     1      21.104  10.228  37.557  0.00  0.00    +0.000 C 
ATOM     16  O   UNL     1      21.321  11.429  37.838  0.00  0.00    +0.000 OA
BRANCH  15  17
ATOM     17  O   UNL     1      21.993   9.578  36.722  0.00  0.00    +0.000 OA
BRANCH  17  19
ATOM     18  C   UNL     1      24.300   9.728  36.139  0.00  0.00    +0.000 C 
ATOM     19  C   UNL     1      22.932  10.284  35.916  0.00  0.00    +0.000 C 
ENDBRANCH  17  19
ENDBRANCH  15  17
ENDBRANCH  14  15
ENDBRANCH   1  14
TORSDOF 5
ENDMDL
MODEL 2
REMARK VINA RESULT:      -6.0     20.428     21.593
REMARK  Name = 
REMARK  5 active torsions:
REMARK  status: ('A' for Active; 'I' for Inactive)
REMARK    1  A    between atoms: C_2  and  O_3
REMARK    2  A    between atoms: O_3  and  C_4
REMARK    3  A    between atoms: C_4  and  C_6
REMARK    4  A    between atoms: C_6  and  N_7
REMARK    5  A    between atoms: C_9  and  C_10
REMARK                            x       y       z     vdW  Elec       q    Type
REMARK                         _______ _______ _______ _____ _____    ______ ____
ROOT
ATOM      1  N   UNL     1      18.399  -7.276  25.900  0.00  0.00    +0.000 N 
ATOM      2  N   UNL     1      19.454  -7.869  25.379  0.00  0.00    +0.000 NA
ATOM      3  C   UNL     1      20.504  -7.031  25.366  0.00  0.00    +0.000 A 
ATOM      4  C   UNL     1      20.059  -5.849  25.914  0.00  0.00    +0.000 A 
ATOM      5  C   UNL     1      18.742  -6.028  26.239  0.00  0.00    +0.000 A 
ATOM      6  N   UNL     1      17.903  -5.021  26.842  0.00  0.00    +0.000 NA
ENDROOT
BRANCH   3   7
ATOM      7  C   UNL     1      21.856  -7.280  24.878  0.00  0.00    +0.000 A 
ATOM      8  C   UNL     1      22.604  -6.253  24.346  0.00  0.00    +0.000 A 
ATOM      9  C   UNL     1      23.897  -6.483  23.878  0.00  0.00    +0.000 A 
ATOM     10  C   UNL     1      24.471  -7.736  23.930  0.00  0.00    +0.000 A 
ATOM     11 CL   UNL     1      26.094  -8.055  23.352  0.00  0.00    +0.000 Cl
ATOM     12  C   UNL     1      23.719  -8.767  24.466  0.00  0.00    +0.000 A 
ATOM     13  C   UNL     1      22.441  -8.528  24.926  0.00  0.00    +0.000 A 
ENDBRANCH   3   7
BRANCH   1  14
ATOM     14  C   UNL     1      17.087  -7.844  26.087  0.00  0.00    +0.000 C 
BRANCH  14  15
ATOM     15  C   UNL     1      17.027  -8.810  27.185  0.00  0.00    +0.000 C 
ATOM     16  O   UNL     1      16.396  -9.884  27.054  0.00  0.00    +0.000 OA
BRANCH  15  17
ATOM     17  O   UNL     1      17.661  -8.562  28.389  0.00  0.00    +0.000 OA
BRANCH  17  19
ATOM     18  C   UNL     1      19.807  -9.600  28.423  0.00  0.00    +0.000 C 
ATOM     19  C   UNL     1      18.450  -9.549  29.046  0.00  0.00    +0.000 C 
ENDBRANCH  17  19
ENDBRANCH  15  17
ENDBRANCH  14  15
ENDBRANCH   1  14
TORSDOF 5
ENDMDL
MODEL 3
REMARK VINA RESULT:      -5.8      3.896      7.092
REMARK  Name = 
REMARK  5 active torsions:
REMARK  status: ('A' for Active; 'I' for Inactive)
REMARK    1  A    between atoms: C_2  and  O_3
REMARK    2  A    between atoms: O_3  and  C_4
REMARK    3  A    between atoms: C_4  and  C_6
REMARK    4  A    between atoms: C_6  and  N_7
REMARK    5  A    between atoms: C_9  and  C_10
REMARK                            x       y       z     vdW  Elec       q    Type
REMARK                         _______ _______ _______ _____ _____    ______ ____
ROOT
ATOM      1  N   UNL     1      18.531   9.651  36.375  0.00  0.00    +0.000 N 
ATOM      2  N   UNL     1      19.796   9.508  36.040  0.00  0.00    +0.000 NA
ATOM      3  C   UNL     1      20.595   9.843  37.066  0.00  0.00    +0.000 A 
ATOM      4  C   UNL     1      19.761  10.215  38.096  0.00  0.00    +0.000 A 
ATOM      5  C   UNL     1      18.478  10.087  37.640  0.00  0.00    +0.000 A 
ATOM      6  N   UNL     1      17.298  10.381  38.417  0.00  0.00    +0.000 NA
ENDROOT
BRANCH   3   7
ATOM      7  C   UNL     1      22.053   9.831  37.122  0.00  0.00    +0.000 A 
ATOM      8  C   UNL     1      22.702   9.432  38.270  0.00  0.00    +0.000 A 
ATOM      9  C   UNL     1      24.095   9.418  38.331  0.00  0.00    +0.000 A 
ATOM     10  C   UNL     1      24.868   9.798  37.254  0.00  0.00    +0.000 A 
ATOM     11 CL   UNL     1      26.620   9.788  37.300  0.00  0.00    +0.000 Cl
ATOM     12  C   UNL     1      24.216  10.196  36.100  0.00  0.00    +0.000 A 
ATOM     13  C   UNL     1      22.837  10.207  36.052  0.00  0.00    +0.000 A 
ENDBRANCH   3   7
BRANCH   1  14
ATOM     14  C   UNL     1      17.378   9.392  35.549  0.00  0.00    +0.000 C 
BRANCH  14  15
ATOM     15  C   UNL     1      17.097  10.468  34.596  0.00  0.00    +0.000 C 
ATOM     16  O   UNL     1      17.345  10.319  33.378  0.00  0.00    +0.000 OA
BRANCH  15  17
ATOM     17  O   UNL     1      16.555  11.669  35.015  0.00  0.00    +0.000 OA
BRANCH  17  19
ATOM     18  C   UNL     1      14.505  12.883  35.087  0.00  0.00    +0.000 C 
ATOM     19  C   UNL     1      15.286  11.744  35.657  0.00  0.00    +0.000 C 
ENDBRANCH  17  19
ENDBRANCH  15  17
ENDBRANCH  14  15
ENDBRANCH   1  14
TORSDOF 5
ENDMDL
MODEL 4
REMARK VINA RESULT:      -5.7      3.193      4.485
REMARK  Name = 
REMARK  5 active torsions:
REMARK  status: ('A' for Active; 'I' for Inactive)
REMARK    1  A    between atoms: C_2  and  O_3
REMARK    2  A    between atoms: O_3  and  C_4
REMARK    3  A    between atoms: C_4  and  C_6
REMARK    4  A    between atoms: C_6  and  N_7
REMARK    5  A    between atoms: C_9  and  C_10
REMARK                            x       y       z     vdW  Elec       q    Type
REMARK                         _______ _______ _______ _____ _____    ______ ____
ROOT
ATOM      1  N   UNL     1      17.786   9.663  39.387  0.00  0.00    +0.000 N 
ATOM      2  N   UNL     1      17.030  10.104  38.403  0.00  0.00    +0.000 NA
ATOM      3  C   UNL     1      17.693  10.041  37.237  0.00  0.00    +0.000 A 
ATOM      4  C   UNL     1      18.936   9.528  37.530  0.00  0.00    +0.000 A 
ATOM      5  C   UNL     1      18.970   9.301  38.878  0.00  0.00    +0.000 A 
ATOM      6  N   UNL     1      20.103   8.763  39.591  0.00  0.00    +0.000 NA
ENDROOT
BRANCH   3   7
ATOM      7  C   UNL     1      17.229  10.428  35.909  0.00  0.00    +0.000 A 
ATOM      8  C   UNL     1      17.825   9.901  34.783  0.00  0.00    +0.000 A 
ATOM      9  C   UNL     1      17.388  10.265  33.510  0.00  0.00    +0.000 A 
ATOM     10  C   UNL     1      16.352  11.157  33.331  0.00  0.00    +0.000 A 
ATOM     11 CL   UNL     1      15.780  11.633  31.745  0.00  0.00    +0.000 Cl
ATOM     12  C   UNL     1      15.753  11.684  34.462  0.00  0.00    +0.000 A 
ATOM     13  C   UNL     1      16.194  11.317  35.716  0.00  0.00    +0.000 A 
ENDBRANCH   3   7
BRANCH   1  14
ATOM     14  C   UNL     1      17.432   9.573  40.782  0.00  0.00    +0.000 C 
BRANCH  14  15
ATOM     15  C   UNL     1      16.242   8.756  41.024  0.00  0.00    +0.000 C 
ATOM     16  O   UNL     1      15.104   9.279  41.042  0.00  0.00    +0.000 OA
BRANCH  15  17
ATOM     17  O   UNL     1      16.342   7.394  41.238  0.00  0.00    +0.000 OA
BRANCH  17  19
ATOM     18  C   UNL     1      18.154   5.916  40.774  0.00  0.00    +0.000 C 
ATOM     19  C   UNL     1      17.511   6.799  41.793  0.00  0.00    +0.000 C 
ENDBRANCH  17  19
ENDBRANCH  15  17
ENDBRANCH  14  15
ENDBRANCH   1  14
TORSDOF 5
ENDMDL
MODEL 5
REMARK VINA RESULT:      -5.5     19.271     21.452
REMARK  Name = 
REMARK  5 active torsions:
REMARK  status: ('A' for Active; 'I' for Inactive)
REMARK    1  A    between atoms: C_2  and  O_3
REMARK    2  A    between atoms: O_3  and  C_4
REMARK    3  A    between atoms: C_4  and  C_6
REMARK    4  A    between atoms: C_6  and  N_7
REMARK    5  A    between atoms: C_9  and  C_10
REMARK                            x       y       z     vdW  Elec       q    Type
REMARK                         _______ _______ _______ _____ _____    ______ ____
ROOT
ATOM      1  N   UNL     1      33.690  -5.224  33.279  0.00  0.00    +0.000 N 
ATOM      2  N   UNL     1      33.743  -3.987  32.830  0.00  0.00    +0.000 NA
ATOM      3  C   UNL     1      33.459  -3.117  33.812  0.00  0.00    +0.000 A 
ATOM      4  C   UNL     1      33.216  -3.874  34.936  0.00  0.00    +0.000 A 
ATOM      5  C   UNL     1      33.366  -5.186  34.578  0.00  0.00    +0.000 A 
ATOM      6  N   UNL     1      33.196  -6.305  35.472  0.00  0.00    +0.000 NA
ENDROOT
BRANCH   3   7
ATOM      7  C   UNL     1      33.406  -1.661  33.747  0.00  0.00    +0.000 A 
ATOM      8  C   UNL     1      32.549  -0.958  34.565  0.00  0.00    +0.000 A 
ATOM      9  C   UNL     1      32.493   0.434  34.509  0.00  0.00    +0.000 A 
ATOM     10  C   UNL     1      33.287   1.153  33.640  0.00  0.00    +0.000 A 
ATOM     11 CL   UNL     1      33.240   2.902  33.548  0.00  0.00    +0.000 Cl
ATOM     12  C   UNL     1      34.150   0.447  32.820  0.00  0.00    +0.000 A 
ATOM     13  C   UNL     1      34.196  -0.930  32.885  0.00  0.00    +0.000 A 
ENDBRANCH   3   7
BRANCH   1  14
ATOM     14  C   UNL     1      33.932  -6.432  32.531  0.00  0.00    +0.000 C 
BRANCH  14  15
ATOM     15  C   UNL     1      35.043  -6.313  31.585  0.00  0.00    +0.000 C 
ATOM     16  O   UNL     1      36.208  -6.110  31.996  0.00  0.00    +0.000 OA
BRANCH  15  17
ATOM     17  O   UNL     1      34.836  -6.421  30.223  0.00  0.00    +0.000 OA
BRANCH  17  19
ATOM     18  C   UNL     1      33.574  -6.075  28.230  0.00  0.00    +0.000 C 
ATOM     19  C   UNL     1      34.083  -5.458  29.492  0.00  0.00    +0.000 C 
ENDBRANCH  17  19
ENDBRANCH  15  17
ENDBRANCH  14  15
ENDBRANCH   1  14
TORSDOF 5
ENDMDL
MODEL 6
REMARK VINA RESULT:      -5.5     20.559     21.883
REMARK  Name = 
REMARK  5 active torsions:
REMARK  status: ('A' for Active; 'I' for Inactive)
REMARK    1  A    between atoms: C_2  and  O_3
REMARK    2  A    between atoms: O_3  and  C_4
REMARK    3  A    between atoms: C_4  and  C_6
REMARK    4  A    between atoms: C_6  and  N_7
REMARK    5  A    between atoms: C_9  and  C_10
REMARK                            x       y       z     vdW  Elec       q    Type
REMARK                         _______ _______ _______ _____ _____    ______ ____
ROOT
ATOM      1  N   UNL     1      18.857  -7.038  26.694  0.00  0.00    +0.000 N 
ATOM      2  N   UNL     1      19.873  -7.766  26.278  0.00  0.00    +0.000 NA
ATOM      3  C   UNL     1      20.767  -6.999  25.633  0.00  0.00    +0.000 A 
ATOM      4  C   UNL     1      20.261  -5.718  25.656  0.00  0.00    +0.000 A 
ATOM      5  C   UNL     1      19.069  -5.769  26.324  0.00  0.00    +0.000 A 
ATOM      6  N   UNL     1      18.216  -4.631  26.567  0.00  0.00    +0.000 NA
ENDROOT
BRANCH   3   7
ATOM      7  C   UNL     1      22.027  -7.398  25.017  0.00  0.00    +0.000 A 
ATOM      8  C   UNL     1      22.830  -6.461  24.403  0.00  0.00    +0.000 A 
ATOM      9  C   UNL     1      24.036  -6.835  23.812  0.00  0.00    +0.000 A 
ATOM     10  C   UNL     1      24.468  -8.145  23.820  0.00  0.00    +0.000 A 
ATOM     11 CL   UNL     1      25.979  -8.644  23.087  0.00  0.00    +0.000 Cl
ATOM     12  C   UNL     1      23.662  -9.085  24.438  0.00  0.00    +0.000 A 
ATOM     13  C   UNL     1      22.471  -8.704  25.019  0.00  0.00    +0.000 A 
ENDBRANCH   3   7
BRANCH   1  14
ATOM     14  C   UNL     1      17.700  -7.497  27.422  0.00  0.00    +0.000 C 
BRANCH  14  15
ATOM     15  C   UNL     1      16.682  -8.106  26.565  0.00  0.00    +0.000 C 
ATOM     16  O   UNL     1      16.033  -7.408  25.753  0.00  0.00    +0.000 OA
BRANCH  15  17
ATOM     17  O   UNL     1      16.412  -9.461  26.629  0.00  0.00    +0.000 OA
BRANCH  17  19
ATOM     18  C   UNL     1      14.233 -10.422  26.734  0.00  0.00    +0.000 C 
ATOM     19  C   UNL     1      15.384 -10.066  25.851  0.00  0.00    +0.000 C 
ENDBRANCH  17  19
ENDBRANCH  15  17
ENDBRANCH  14  15
ENDBRANCH   1  14
TORSDOF 5
ENDMDL
MODEL 7
REMARK VINA RESULT:      -5.3     20.451     22.252
REMARK  Name = 
REMARK  5 active torsions:
REMARK  status: ('A' for Active; 'I' for Inactive)
REMARK    1  A    between atoms: C_2  and  O_3
REMARK    2  A    between atoms: O_3  and  C_4
REMARK    3  A    between atoms: C_4  and  C_6
REMARK    4  A    between atoms: C_6  and  N_7
REMARK    5  A    between atoms: C_9  and  C_10
REMARK                            x       y       z     vdW  Elec       q    Type
REMARK                         _______ _______ _______ _____ _____    ______ ____
ROOT
ATOM      1  N   UNL     1      28.859  23.619  22.892  0.00  0.00    +0.000 N 
ATOM      2  N   UNL     1      29.958  23.651  23.616  0.00  0.00    +0.000 NA
ATOM      3  C   UNL     1      29.691  23.318  24.889  0.00  0.00    +0.000 A 
ATOM      4  C   UNL     1      28.339  23.066  24.945  0.00  0.00    +0.000 A 
ATOM      5  C   UNL     1      27.842  23.261  23.686  0.00  0.00    +0.000 A 
ATOM      6  N   UNL     1      26.457  23.100  23.317  0.00  0.00    +0.000 NA
ENDROOT
BRANCH   3   7
ATOM      7  C   UNL     1      30.614  23.229  26.016  0.00  0.00    +0.000 A 
ATOM      8  C   UNL     1      30.435  22.270  26.989  0.00  0.00    +0.000 A 
ATOM      9  C   UNL     1      31.312  22.178  28.068  0.00  0.00    +0.000 A 
ATOM     10  C   UNL     1      32.384  23.036  28.201  0.00  0.00    +0.000 A 
ATOM     11 CL   UNL     1      33.505  22.944  29.545  0.00  0.00    +0.000 Cl
ATOM     12  C   UNL     1      32.565  23.998  27.223  0.00  0.00    +0.000 A 
ATOM     13  C   UNL     1      31.690  24.079  26.159  0.00  0.00    +0.000 A 
ENDBRANCH   3   7
BRANCH   1  14
ATOM     14  C   UNL     1      28.736  23.913  21.486  0.00  0.00    +0.000 C 
BRANCH  14  15
ATOM     15  C   UNL     1      28.905  25.334  21.175  0.00  0.00    +0.000 C 
ATOM     16  O   UNL     1      28.231  26.201  21.777  0.00  0.00    +0.000 OA
BRANCH  15  17
ATOM     17  O   UNL     1      29.809  25.752  20.217  0.00  0.00    +0.000 OA
BRANCH  17  19
ATOM     18  C   UNL     1      30.162  27.162  18.327  0.00  0.00    +0.000 C 
ATOM     19  C   UNL     1      29.893  27.110  19.796  0.00  0.00    +0.000 C 
ENDBRANCH  17  19
ENDBRANCH  15  17
ENDBRANCH  14  15
ENDBRANCH   1  14
TORSDOF 5
ENDMDL
MODEL 8
REMARK VINA RESULT:      -5.3     18.345     19.572
REMARK  Name = 
REMARK  5 active torsions:
REMARK  status: ('A' for Active; 'I' for Inactive)
REMARK    1  A    between atoms: C_2  and  O_3
REMARK    2  A    between atoms: O_3  and  C_4
REMARK    3  A    between atoms: C_4  and  C_6
REMARK    4  A    between atoms: C_6  and  N_7
REMARK    5  A    between atoms: C_9  and  C_10
REMARK                            x       y       z     vdW  Elec       q    Type
REMARK                         _______ _______ _______ _____ _____    ______ ____
ROOT
ATOM      1  N   UNL     1      26.438  23.152  25.994  0.00  0.00    +0.000 N 
ATOM      2  N   UNL     1      27.627  22.646  26.249  0.00  0.00    +0.000 NA
ATOM      3  C   UNL     1      28.057  23.041  27.458  0.00  0.00    +0.000 A 
ATOM      4  C   UNL     1      27.064  23.842  27.975  0.00  0.00    +0.000 A 
ATOM      5  C   UNL     1      26.065  23.896  27.043  0.00  0.00    +0.000 A 
ATOM      6  N   UNL     1      24.837  24.638  27.199  0.00  0.00    +0.000 NA
ENDROOT
BRANCH   3   7
ATOM      7  C   UNL     1      29.312  22.713  28.126  0.00  0.00    +0.000 A 
ATOM      8  C   UNL     1      29.442  22.887  29.487  0.00  0.00    +0.000 A 
ATOM      9  C   UNL     1      30.638  22.576  30.133  0.00  0.00    +0.000 A 
ATOM     10  C   UNL     1      31.725  22.086  29.440  0.00  0.00    +0.000 A 
ATOM     11 CL   UNL     1      33.240  21.685  30.224  0.00  0.00    +0.000 Cl
ATOM     12  C   UNL     1      31.593  21.910  28.074  0.00  0.00    +0.000 A 
ATOM     13  C   UNL     1      30.405  22.221  27.446  0.00  0.00    +0.000 A 
ENDBRANCH   3   7
BRANCH   1  14
ATOM     14  C   UNL     1      25.648  22.960  24.804  0.00  0.00    +0.000 C 
BRANCH  14  15
ATOM     15  C   UNL     1      26.194  23.647  23.632  0.00  0.00    +0.000 C 
ATOM     16  O   UNL     1      26.363  23.031  22.555  0.00  0.00    +0.000 OA
BRANCH  15  17
ATOM     17  O   UNL     1      26.535  24.986  23.683  0.00  0.00    +0.000 OA
BRANCH  17  19
ATOM     18  C   UNL     1      28.487  25.805  24.779  0.00  0.00    +0.000 C 
ATOM     19  C   UNL     1      27.869  25.437  23.470  0.00  0.00    +0.000 C 
ENDBRANCH  17  19
ENDBRANCH  15  17
ENDBRANCH  14  15
ENDBRANCH   1  14
TORSDOF 5
ENDMDL
MODEL 9
REMARK VINA RESULT:      -5.2     16.903     18.192
REMARK  Name = 
REMARK  5 active torsions:
REMARK  status: ('A' for Active; 'I' for Inactive)
REMARK    1  A    between atoms: C_2  and  O_3
REMARK    2  A    between atoms: O_3  and  C_4
REMARK    3  A    between atoms: C_4  and  C_6
REMARK    4  A    between atoms: C_6  and  N_7
REMARK    5  A    between atoms: C_9  and  C_10
REMARK                            x       y       z     vdW  Elec       q    Type
REMARK                         _______ _______ _______ _____ _____    ______ ____
ROOT
ATOM      1  N   UNL     1      28.384  22.637  29.720  0.00  0.00    +0.000 N 
ATOM      2  N   UNL     1      28.905  22.698  28.512  0.00  0.00    +0.000 NA
ATOM      3  C   UNL     1      27.949  22.941  27.600  0.00  0.00    +0.000 A 
ATOM      4  C   UNL     1      26.767  23.034  28.299  0.00  0.00    +0.000 A 
ATOM      5  C   UNL     1      27.064  22.841  29.620  0.00  0.00    +0.000 A 
ATOM      6  N   UNL     1      26.097  22.860  30.690  0.00  0.00    +0.000 NA
ENDROOT
BRANCH   3   7
ATOM      7  C   UNL     1      28.089  23.084  26.155  0.00  0.00    +0.000 A 
ATOM      8  C   UNL     1      27.030  23.525  25.393  0.00  0.00    +0.000 A 
ATOM      9  C   UNL     1      27.156  23.664  24.011  0.00  0.00    +0.000 A 
ATOM     10  C   UNL     1      28.336  23.368  23.362  0.00  0.00    +0.000 A 
ATOM     11 CL   UNL     1      28.526  23.535  21.628  0.00  0.00    +0.000 Cl
ATOM     12  C   UNL     1      29.401  22.927  24.128  0.00  0.00    +0.000 A 
ATOM     13  C   UNL     1      29.264  22.793  25.494  0.00  0.00    +0.000 A 
ENDBRANCH   3   7
BRANCH   1  14
ATOM     14  C   UNL     1      29.084  22.395  30.957  0.00  0.00    +0.000 C 
BRANCH  14  15
ATOM     15  C   UNL     1      30.515  22.695  30.879  0.00  0.00    +0.000 C 
ATOM     16  O   UNL     1      30.925  23.873  30.988  0.00  0.00    +0.000 OA
BRANCH  15  17
ATOM     17  O   UNL     1      31.445  21.691  30.684  0.00  0.00    +0.000 OA
BRANCH  17  19
ATOM     18  C   UNL     1      33.675  21.793  29.848  0.00  0.00    +0.000 C 
ATOM     19  C   UNL     1      32.233  21.607  29.501  0.00  0.00    +0.000 C 
ENDBRANCH  17  19
ENDBRANCH  15  17
ENDBRANCH  14  15
ENDBRANCH   1  14
TORSDOF 5
ENDMDL
MODEL 10
REMARK VINA RESULT:      -5.2      4.392      6.288
REMARK  Name = 
REMARK  5 active torsions:
REMARK  status: ('A' for Active; 'I' for Inactive)
REMARK    1  A    between atoms: C_2  and  O_3
REMARK    2  A    between atoms: O_3  and  C_4
REMARK    3  A    between atoms: C_4  and  C_6
REMARK    4  A    between atoms: C_6  and  N_7
REMARK    5  A    between atoms: C_9  and  C_10
REMARK                            x       y       z     vdW  Elec       q    Type
REMARK                         _______ _______ _______ _____ _____    ______ ____
ROOT
ATOM      1  N   UNL     1      19.034   9.753  37.661  0.00  0.00    +0.000 N 
ATOM      2  N   UNL     1      18.912   9.042  38.763  0.00  0.00    +0.000 NA
ATOM      3  C   UNL     1      17.731   9.288  39.353  0.00  0.00    +0.000 A 
ATOM      4  C   UNL     1      17.090  10.210  38.557  0.00  0.00    +0.000 A 
ATOM      5  C   UNL     1      17.924  10.485  37.508  0.00  0.00    +0.000 A 
ATOM      6  N   UNL     1      17.623  11.409  36.442  0.00  0.00    +0.000 NA
ENDROOT
BRANCH   3   7
ATOM      7  C   UNL     1      17.196   8.717  40.584  0.00  0.00    +0.000 A 
ATOM      8  C   UNL     1      16.592   9.527  41.521  0.00  0.00    +0.000 A 
ATOM      9  C   UNL     1      16.078   8.989  42.701  0.00  0.00    +0.000 A 
ATOM     10  C   UNL     1      16.154   7.639  42.971  0.00  0.00    +0.000 A 
ATOM     11 CL   UNL     1      15.516   6.934  44.443  0.00  0.00    +0.000 Cl
ATOM     12  C   UNL     1      16.759   6.826  42.028  0.00  0.00    +0.000 A 
ATOM     13  C   UNL     1      17.264   7.369  40.865  0.00  0.00    +0.000 A 
ENDBRANCH   3   7
BRANCH   1  14
ATOM     14  C   UNL     1      20.155   9.766  36.755  0.00  0.00    +0.000 C 
BRANCH  14  15
ATOM     15  C   UNL     1      21.389  10.258  37.369  0.00  0.00    +0.000 C 
ATOM     16  O   UNL     1      21.508  11.465  37.681  0.00  0.00    +0.000 OA
BRANCH  15  17
ATOM     17  O   UNL     1      22.450   9.407  37.620  0.00  0.00    +0.000 OA
BRANCH  17  19
ATOM     18  C   UNL     1      24.027   9.752  35.865  0.00  0.00    +0.000 C 
ATOM     19  C   UNL     1      23.798   9.774  37.342  0.00  0.00    +0.000 C 
ENDBRANCH  17  19
ENDBRANCH  15  17
ENDBRANCH  14  15
ENDBRANCH   1  14
TORSDOF 5
ENDMDL
