MODEL 1
REMARK VINA RESULT:      -7.5      0.000      0.000
REMARK  Name = 
REMARK  3 active torsions:
REMARK  status: ('A' for Active; 'I' for Inactive)
REMARK    1  A    between atoms: C_2  and  C_4
REMARK    2  A    between atoms: C_4  and  C_5
REMARK    3  A    between atoms: C_7  and  C_8
REMARK                            x       y       z     vdW  Elec       q    Type
REMARK                         _______ _______ _______ _____ _____    ______ ____
ROOT
ATOM      1  C   UNL     1      26.245  24.601  29.797  0.00  0.00    +0.000 A 
ATOM      2  C   UNL     1      27.170  24.354  28.807  0.00  0.00    +0.000 A 
ATOM      3  C   UNL     1      27.643  23.078  28.551  0.00  0.00    +0.000 A 
ATOM      4  N   UNL     1      27.187  22.070  29.287  0.00  0.00    +0.000 NA
ATOM      5  C   UNL     1      26.284  22.292  30.255  0.00  0.00    +0.000 A 
ATOM      6  N   UNL     1      25.842  21.167  31.000  0.00  0.00    +0.000 NA
ATOM      7  N   UNL     1      25.819  23.546  30.507  0.00  0.00    +0.000 NA
ENDROOT
BRANCH   3   8
ATOM      8  C   UNL     1      28.625  22.911  27.481  0.00  0.00    +0.000 A 
ATOM      9  C   UNL     1      29.938  22.626  27.766  0.00  0.00    +0.000 A 
ATOM     10  C   UNL     1      30.892  22.462  26.769  0.00  0.00    +0.000 A 
ATOM     11  C   UNL     1      30.546  22.582  25.441  0.00  0.00    +0.000 A 
ATOM     12  F   UNL     1      31.452  22.428  24.436  0.00  0.00    +0.000 F 
ATOM     13  C   UNL     1      29.230  22.869  25.142  0.00  0.00    +0.000 A 
ATOM     14  C   UNL     1      28.844  22.997  23.820  0.00  0.00    +0.000 A 
ATOM     15  C   UNL     1      27.544  23.280  23.522  0.00  0.00    +0.000 A 
ATOM     16  C   UNL     1      26.606  23.440  24.516  0.00  0.00    +0.000 A 
ATOM     17  C   UNL     1      26.962  23.318  25.859  0.00  0.00    +0.000 A 
ATOM     18  C   UNL     1      28.278  23.032  26.153  0.00  0.00    +0.000 A 
ENDBRANCH   3   8
BRANCH   1  19
ATOM     19  C   UNL     1      25.798  25.998  29.996  0.00  0.00    +0.000 C 
BRANCH  19  21
ATOM     20  C   UNL     1      23.621  26.879  29.095  0.00  0.00    +0.000 C 
ATOM     21  C   UNL     1      24.304  26.104  30.170  0.00  0.00    +0.000 C 
ATOM     22  C   UNL     1      23.916  26.499  31.565  0.00  0.00    +0.000 C 
ENDBRANCH  19  21
ENDBRANCH   1  19
TORSDOF 3
ENDMDL
MODEL 2
REMARK VINA RESULT:      -7.2     17.416     19.165
REMARK  Name = 
REMARK  3 active torsions:
REMARK  status: ('A' for Active; 'I' for Inactive)
REMARK    1  A    between atoms: C_2  and  C_4
REMARK    2  A    between atoms: C_4  and  C_5
REMARK    3  A    between atoms: C_7  and  C_8
REMARK                            x       y       z     vdW  Elec       q    Type
REMARK                         _______ _______ _______ _____ _____    ______ ____
ROOT
ATOM      1  C   UNL     1      20.708   9.960  37.785  0.00  0.00    +0.000 A 
ATOM      2  C   UNL     1      19.796  10.304  36.813  0.00  0.00    +0.000 A 
ATOM      3  C   UNL     1      18.477   9.887  36.869  0.00  0.00    +0.000 A 
ATOM      4  N   UNL     1      18.089   9.135  37.893  0.00  0.00    +0.000 NA
ATOM      5  C   UNL     1      18.965   8.792  38.850  0.00  0.00    +0.000 A 
ATOM      6  N   UNL     1      18.479   7.986  39.915  0.00  0.00    +0.000 NA
ATOM      7  N   UNL     1      20.261   9.200  38.796  0.00  0.00    +0.000 NA
ENDROOT
BRANCH   3   8
ATOM      8  C   UNL     1      17.579  10.300  35.791  0.00  0.00    +0.000 A 
ATOM      9  C   UNL     1      17.873  10.015  34.479  0.00  0.00    +0.000 A 
ATOM     10  C   UNL     1      17.038  10.395  33.436  0.00  0.00    +0.000 A 
ATOM     11  C   UNL     1      15.870  11.082  33.687  0.00  0.00    +0.000 A 
ATOM     12  F   UNL     1      15.026  11.471  32.691  0.00  0.00    +0.000 F 
ATOM     13  C   UNL     1      15.564  11.375  35.000  0.00  0.00    +0.000 A 
ATOM     14  C   UNL     1      14.400  12.062  35.292  0.00  0.00    +0.000 A 
ATOM     15  C   UNL     1      14.096  12.351  36.589  0.00  0.00    +0.000 A 
ATOM     16  C   UNL     1      14.929  11.971  37.616  0.00  0.00    +0.000 A 
ATOM     17  C   UNL     1      16.110  11.276  37.357  0.00  0.00    +0.000 A 
ATOM     18  C   UNL     1      16.412  10.987  36.043  0.00  0.00    +0.000 A 
ENDBRANCH   3   8
BRANCH   1  19
ATOM     19  C   UNL     1      22.097  10.453  37.640  0.00  0.00    +0.000 C 
BRANCH  19  21
ATOM     20  C   UNL     1      23.901   8.889  38.431  0.00  0.00    +0.000 C 
ATOM     21  C   UNL     1      23.063   9.351  37.288  0.00  0.00    +0.000 C 
ATOM     22  C   UNL     1      23.832   9.643  36.031  0.00  0.00    +0.000 C 
ENDBRANCH  19  21
ENDBRANCH   1  19
TORSDOF 3
ENDMDL
MODEL 3
REMARK VINA RESULT:      -7.0      1.076      2.437
REMARK  Name = 
REMARK  3 active torsions:
REMARK  status: ('A' for Active; 'I' for Inactive)
REMARK    1  A    between atoms: C_2  and  C_4
REMARK    2  A    between atoms: C_4  and  C_5
REMARK    3  A    between atoms: C_7  and  C_8
REMARK                            x       y       z     vdW  Elec       q    Type
REMARK                         _______ _______ _______ _____ _____    ______ ____
ROOT
ATOM      1  C   UNL     1      25.721  24.907  29.712  0.00  0.00    +0.000 A 
ATOM      2  C   UNL     1      26.133  24.713  28.413  0.00  0.00    +0.000 A 
ATOM      3  C   UNL     1      26.560  23.476  27.959  0.00  0.00    +0.000 A 
ATOM      4  N   UNL     1      26.569  22.455  28.808  0.00  0.00    +0.000 NA
ATOM      5  C   UNL     1      26.170  22.626  30.078  0.00  0.00    +0.000 A 
ATOM      6  N   UNL     1      26.207  21.489  30.929  0.00  0.00    +0.000 NA
ATOM      7  N   UNL     1      25.751  23.840  30.525  0.00  0.00    +0.000 NA
ENDROOT
BRANCH   3   8
ATOM      8  C   UNL     1      26.980  23.363  26.564  0.00  0.00    +0.000 A 
ATOM      9  C   UNL     1      26.074  23.503  25.540  0.00  0.00    +0.000 A 
ATOM     10  C   UNL     1      26.446  23.400  24.205  0.00  0.00    +0.000 A 
ATOM     11  C   UNL     1      27.756  23.150  23.860  0.00  0.00    +0.000 A 
ATOM     12  F   UNL     1      28.159  23.043  22.563  0.00  0.00    +0.000 F 
ATOM     13  C   UNL     1      28.675  23.007  24.879  0.00  0.00    +0.000 A 
ATOM     14  C   UNL     1      30.000  22.755  24.571  0.00  0.00    +0.000 A 
ATOM     15  C   UNL     1      30.909  22.614  25.577  0.00  0.00    +0.000 A 
ATOM     16  C   UNL     1      30.533  22.717  26.896  0.00  0.00    +0.000 A 
ATOM     17  C   UNL     1      29.205  22.971  27.240  0.00  0.00    +0.000 A 
ATOM     18  C   UNL     1      28.290  23.112  26.219  0.00  0.00    +0.000 A 
ENDBRANCH   3   8
BRANCH   1  19
ATOM     19  C   UNL     1      25.281  26.265  30.106  0.00  0.00    +0.000 C 
BRANCH  19  21
ATOM     20  C   UNL     1      22.929  27.091  29.769  0.00  0.00    +0.000 C 
ATOM     21  C   UNL     1      23.861  26.285  30.610  0.00  0.00    +0.000 C 
ATOM     22  C   UNL     1      23.779  26.573  32.081  0.00  0.00    +0.000 C 
ENDBRANCH  19  21
ENDBRANCH   1  19
TORSDOF 3
ENDMDL
MODEL 4
REMARK VINA RESULT:      -7.0     18.620     21.794
REMARK  Name = 
REMARK  3 active torsions:
REMARK  status: ('A' for Active; 'I' for Inactive)
REMARK    1  A    between atoms: C_2  and  C_4
REMARK    2  A    between atoms: C_4  and  C_5
REMARK    3  A    between atoms: C_7  and  C_8
REMARK                            x       y       z     vdW  Elec       q    Type
REMARK                         _______ _______ _______ _____ _____    ______ ____
ROOT
ATOM      1  C   UNL     1      20.520   9.916  37.704  0.00  0.00    +0.000 A 
ATOM      2  C   UNL     1      19.749   9.553  38.786  0.00  0.00    +0.000 A 
ATOM      3  C   UNL     1      18.431   9.154  38.642  0.00  0.00    +0.000 A 
ATOM      4  N   UNL     1      17.903   9.124  37.423  0.00  0.00    +0.000 NA
ATOM      5  C   UNL     1      18.640   9.473  36.358  0.00  0.00    +0.000 A 
ATOM      6  N   UNL     1      18.010   9.417  35.086  0.00  0.00    +0.000 NA
ATOM      7  N   UNL     1      19.935   9.866  36.497  0.00  0.00    +0.000 NA
ENDROOT
BRANCH   3   8
ATOM      8  C   UNL     1      17.689   8.787  39.847  0.00  0.00    +0.000 A 
ATOM      9  C   UNL     1      16.797   9.660  40.421  0.00  0.00    +0.000 A 
ATOM     10  C   UNL     1      16.079   9.337  41.566  0.00  0.00    +0.000 A 
ATOM     11  C   UNL     1      16.242   8.112  42.173  0.00  0.00    +0.000 A 
ATOM     12  F   UNL     1      15.556   7.759  43.296  0.00  0.00    +0.000 F 
ATOM     13  C   UNL     1      17.135   7.226  41.607  0.00  0.00    +0.000 A 
ATOM     14  C   UNL     1      17.325   5.985  42.188  0.00  0.00    +0.000 A 
ATOM     15  C   UNL     1      18.208   5.108  41.630  0.00  0.00    +0.000 A 
ATOM     16  C   UNL     1      18.914   5.436  40.496  0.00  0.00    +0.000 A 
ATOM     17  C   UNL     1      18.746   6.678  39.885  0.00  0.00    +0.000 A 
ATOM     18  C   UNL     1      17.853   7.561  40.454  0.00  0.00    +0.000 A 
ENDBRANCH   3   8
BRANCH   1  19
ATOM     19  C   UNL     1      21.919  10.329  37.955  0.00  0.00    +0.000 C 
BRANCH  19  21
ATOM     20  C   UNL     1      23.982   8.889  37.907  0.00  0.00    +0.000 C 
ATOM     21  C   UNL     1      22.905   9.555  37.118  0.00  0.00    +0.000 C 
ATOM     22  C   UNL     1      23.395  10.341  35.936  0.00  0.00    +0.000 C 
ENDBRANCH  19  21
ENDBRANCH   1  19
TORSDOF 3
ENDMDL
MODEL 5
REMARK VINA RESULT:      -6.8      2.459      4.229
REMARK  Name = 
REMARK  3 active torsions:
REMARK  status: ('A' for Active; 'I' for Inactive)
REMARK    1  A    between atoms: C_2  and  C_4
REMARK    2  A    between atoms: C_4  and  C_5
REMARK    3  A    between atoms: C_7  and  C_8
REMARK                            x       y       z     vdW  Elec       q    Type
REMARK                         _______ _______ _______ _____ _____    ______ ____
ROOT
ATOM      1  C   UNL     1      29.585  22.576  30.359  0.00  0.00    +0.000 A 
ATOM      2  C   UNL     1      29.647  22.712  28.990  0.00  0.00    +0.000 A 
ATOM      3  C   UNL     1      28.531  22.544  28.188  0.00  0.00    +0.000 A 
ATOM      4  N   UNL     1      27.373  22.242  28.763  0.00  0.00    +0.000 NA
ATOM      5  C   UNL     1      27.294  22.106  30.096  0.00  0.00    +0.000 A 
ATOM      6  N   UNL     1      26.023  21.782  30.641  0.00  0.00    +0.000 NA
ATOM      7  N   UNL     1      28.390  22.270  30.885  0.00  0.00    +0.000 NA
ENDROOT
BRANCH   3   8
ATOM      8  C   UNL     1      28.692  22.708  26.744  0.00  0.00    +0.000 A 
ATOM      9  C   UNL     1      29.863  22.355  26.119  0.00  0.00    +0.000 A 
ATOM     10  C   UNL     1      30.042  22.501  24.749  0.00  0.00    +0.000 A 
ATOM     11  C   UNL     1      29.035  23.013  23.961  0.00  0.00    +0.000 A 
ATOM     12  F   UNL     1      29.173  23.169  22.614  0.00  0.00    +0.000 F 
ATOM     13  C   UNL     1      27.854  23.372  24.576  0.00  0.00    +0.000 A 
ATOM     14  C   UNL     1      26.819  23.889  23.818  0.00  0.00    +0.000 A 
ATOM     15  C   UNL     1      25.652  24.244  24.426  0.00  0.00    +0.000 A 
ATOM     16  C   UNL     1      25.482  24.097  25.783  0.00  0.00    +0.000 A 
ATOM     17  C   UNL     1      26.505  23.578  26.576  0.00  0.00    +0.000 A 
ATOM     18  C   UNL     1      27.684  23.221  25.956  0.00  0.00    +0.000 A 
ENDBRANCH   3   8
BRANCH   1  19
ATOM     19  C   UNL     1      30.831  22.774  31.134  0.00  0.00    +0.000 C 
BRANCH  19  21
ATOM     20  C   UNL     1      31.057  21.430  33.248  0.00  0.00    +0.000 C 
ATOM     21  C   UNL     1      31.315  21.502  31.781  0.00  0.00    +0.000 C 
ATOM     22  C   UNL     1      32.717  21.151  31.377  0.00  0.00    +0.000 C 
ENDBRANCH  19  21
ENDBRANCH   1  19
TORSDOF 3
ENDMDL
MODEL 6
REMARK VINA RESULT:      -6.8     15.709     17.697
REMARK  Name = 
REMARK  3 active torsions:
REMARK  status: ('A' for Active; 'I' for Inactive)
REMARK    1  A    between atoms: C_2  and  C_4
REMARK    2  A    between atoms: C_4  and  C_5
REMARK    3  A    between atoms: C_7  and  C_8
REMARK                            x       y       z     vdW  Elec       q    Type
REMARK                         _______ _______ _______ _____ _____    ______ ____
ROOT
ATOM      1  C   UNL     1      18.193  10.011  37.681  0.00  0.00    +0.000 A 
ATOM      2  C   UNL     1      19.478  10.111  37.198  0.00  0.00    +0.000 A 
ATOM      3  C   UNL     1      20.579  10.085  38.037  0.00  0.00    +0.000 A 
ATOM      4  N   UNL     1      20.379   9.959  39.345  0.00  0.00    +0.000 NA
ATOM      5  C   UNL     1      19.134   9.860  39.834  0.00  0.00    +0.000 A 
ATOM      6  N   UNL     1      18.997   9.728  41.241  0.00  0.00    +0.000 NA
ATOM      7  N   UNL     1      18.051   9.886  39.010  0.00  0.00    +0.000 NA
ENDROOT
BRANCH   3   8
ATOM      8  C   UNL     1      21.906  10.198  37.435  0.00  0.00    +0.000 A 
ATOM      9  C   UNL     1      22.402   9.204  36.626  0.00  0.00    +0.000 A 
ATOM     10  C   UNL     1      23.659   9.286  36.042  0.00  0.00    +0.000 A 
ATOM     11  C   UNL     1      24.463  10.384  36.259  0.00  0.00    +0.000 A 
ATOM     12  F   UNL     1      25.701  10.500  35.703  0.00  0.00    +0.000 F 
ATOM     13  C   UNL     1      23.977  11.388  37.070  0.00  0.00    +0.000 A 
ATOM     14  C   UNL     1      24.755  12.506  37.311  0.00  0.00    +0.000 A 
ATOM     15  C   UNL     1      24.276  13.499  38.113  0.00  0.00    +0.000 A 
ATOM     16  C   UNL     1      23.030  13.411  38.687  0.00  0.00    +0.000 A 
ATOM     17  C   UNL     1      22.220  12.297  38.464  0.00  0.00    +0.000 A 
ATOM     18  C   UNL     1      22.710  11.296  37.653  0.00  0.00    +0.000 A 
ENDBRANCH   3   8
BRANCH   1  19
ATOM     19  C   UNL     1      17.079  10.049  36.707  0.00  0.00    +0.000 C 
BRANCH  19  21
ATOM     20  C   UNL     1      15.427  11.884  37.186  0.00  0.00    +0.000 C 
ATOM     21  C   UNL     1      16.624  11.454  36.408  0.00  0.00    +0.000 C 
ATOM     22  C   UNL     1      16.540  11.728  34.934  0.00  0.00    +0.000 C 
ENDBRANCH  19  21
ENDBRANCH   1  19
TORSDOF 3
ENDMDL
MODEL 7
REMARK VINA RESULT:      -6.6      1.437      2.747
REMARK  Name = 
REMARK  3 active torsions:
REMARK  status: ('A' for Active; 'I' for Inactive)
REMARK    1  A    between atoms: C_2  and  C_4
REMARK    2  A    between atoms: C_4  and  C_5
REMARK    3  A    between atoms: C_7  and  C_8
REMARK                            x       y       z     vdW  Elec       q    Type
REMARK                         _______ _______ _______ _____ _____    ______ ____
ROOT
ATOM      1  C   UNL     1      26.431  24.909  30.161  0.00  0.00    +0.000 A 
ATOM      2  C   UNL     1      26.685  24.756  28.816  0.00  0.00    +0.000 A 
ATOM      3  C   UNL     1      26.688  23.511  28.211  0.00  0.00    +0.000 A 
ATOM      4  N   UNL     1      26.440  22.439  28.956  0.00  0.00    +0.000 NA
ATOM      5  C   UNL     1      26.190  22.570  30.268  0.00  0.00    +0.000 A 
ATOM      6  N   UNL     1      25.932  21.381  31.002  0.00  0.00    +0.000 NA
ATOM      7  N   UNL     1      26.187  23.793  30.865  0.00  0.00    +0.000 NA
ENDROOT
BRANCH   3   8
ATOM      8  C   UNL     1      26.968  23.444  26.778  0.00  0.00    +0.000 A 
ATOM      9  C   UNL     1      25.987  23.710  25.853  0.00  0.00    +0.000 A 
ATOM     10  C   UNL     1      26.226  23.654  24.486  0.00  0.00    +0.000 A 
ATOM     11  C   UNL     1      27.473  23.322  24.005  0.00  0.00    +0.000 A 
ATOM     12  F   UNL     1      27.745  23.257  22.672  0.00  0.00    +0.000 F 
ATOM     13  C   UNL     1      28.467  23.051  24.923  0.00  0.00    +0.000 A 
ATOM     14  C   UNL     1      29.733  22.716  24.478  0.00  0.00    +0.000 A 
ATOM     15  C   UNL     1      30.715  22.447  25.384  0.00  0.00    +0.000 A 
ATOM     16  C   UNL     1      30.471  22.506  26.737  0.00  0.00    +0.000 A 
ATOM     17  C   UNL     1      29.206  22.842  27.219  0.00  0.00    +0.000 A 
ATOM     18  C   UNL     1      28.216  23.111  26.297  0.00  0.00    +0.000 A 
ENDBRANCH   3   8
BRANCH   1  19
ATOM     19  C   UNL     1      26.449  26.280  30.720  0.00  0.00    +0.000 C 
BRANCH  19  21
ATOM     20  C   UNL     1      24.852  26.589  32.639  0.00  0.00    +0.000 C 
ATOM     21  C   UNL     1      26.251  26.294  32.214  0.00  0.00    +0.000 C 
ATOM     22  C   UNL     1      27.300  27.100  32.923  0.00  0.00    +0.000 C 
ENDBRANCH  19  21
ENDBRANCH   1  19
TORSDOF 3
ENDMDL
MODEL 8
REMARK VINA RESULT:      -6.6     32.115     33.814
REMARK  Name = 
REMARK  3 active torsions:
REMARK  status: ('A' for Active; 'I' for Inactive)
REMARK    1  A    between atoms: C_2  and  C_4
REMARK    2  A    between atoms: C_4  and  C_5
REMARK    3  A    between atoms: C_7  and  C_8
REMARK                            x       y       z     vdW  Elec       q    Type
REMARK                         _______ _______ _______ _____ _____    ______ ____
ROOT
ATOM      1  C   UNL     1      20.664  -7.379  25.628  0.00  0.00    +0.000 A 
ATOM      2  C   UNL     1      19.959  -8.265  26.412  0.00  0.00    +0.000 A 
ATOM      3  C   UNL     1      18.844  -7.874  27.133  0.00  0.00    +0.000 A 
ATOM      4  N   UNL     1      18.451  -6.607  27.061  0.00  0.00    +0.000 NA
ATOM      5  C   UNL     1      19.126  -5.731  26.302  0.00  0.00    +0.000 A 
ATOM      6  N   UNL     1      18.647  -4.393  26.273  0.00  0.00    +0.000 NA
ATOM      7  N   UNL     1      20.222  -6.113  25.593  0.00  0.00    +0.000 NA
ENDROOT
BRANCH   3   8
ATOM      8  C   UNL     1      18.158  -8.883  27.938  0.00  0.00    +0.000 A 
ATOM      9  C   UNL     1      18.588  -9.186  29.207  0.00  0.00    +0.000 A 
ATOM     10  C   UNL     1      17.955 -10.140  29.994  0.00  0.00    +0.000 A 
ATOM     11  C   UNL     1      16.859 -10.825  29.519  0.00  0.00    +0.000 A 
ATOM     12  F   UNL     1      16.212 -11.767  30.261  0.00  0.00    +0.000 F 
ATOM     13  C   UNL     1      16.417 -10.531  28.246  0.00  0.00    +0.000 A 
ATOM     14  C   UNL     1      15.318 -11.198  27.735  0.00  0.00    +0.000 A 
ATOM     15  C   UNL     1      14.881 -10.908  26.476  0.00  0.00    +0.000 A 
ATOM     16  C   UNL     1      15.513  -9.961  25.704  0.00  0.00    +0.000 A 
ATOM     17  C   UNL     1      16.623  -9.271  26.190  0.00  0.00    +0.000 A 
ATOM     18  C   UNL     1      17.061  -9.568  27.462  0.00  0.00    +0.000 A 
ENDBRANCH   3   8
BRANCH   1  19
ATOM     19  C   UNL     1      21.844  -7.889  24.893  0.00  0.00    +0.000 C 
BRANCH  19  21
ATOM     20  C   UNL     1      22.526  -7.268  22.552  0.00  0.00    +0.000 C 
ATOM     21  C   UNL     1      22.446  -6.850  23.982  0.00  0.00    +0.000 C 
ATOM     22  C   UNL     1      23.717  -6.272  24.533  0.00  0.00    +0.000 C 
ENDBRANCH  19  21
ENDBRANCH   1  19
TORSDOF 3
ENDMDL
MODEL 9
REMARK VINA RESULT:      -6.4     20.745     22.963
REMARK  Name = 
REMARK  3 active torsions:
REMARK  status: ('A' for Active; 'I' for Inactive)
REMARK    1  A    between atoms: C_2  and  C_4
REMARK    2  A    between atoms: C_4  and  C_5
REMARK    3  A    between atoms: C_7  and  C_8
REMARK                            x       y       z     vdW  Elec       q    Type
REMARK                         _______ _______ _______ _____ _____    ______ ____
ROOT
ATOM      1  C   UNL     1      26.665   6.698  15.936  0.00  0.00    +0.000 A 
ATOM      2  C   UNL     1      25.842   5.627  16.203  0.00  0.00    +0.000 A 
ATOM      3  C   UNL     1      25.781   5.049  17.460  0.00  0.00    +0.000 A 
ATOM      4  N   UNL     1      26.541   5.547  18.429  0.00  0.00    +0.000 NA
ATOM      5  C   UNL     1      27.348   6.592  18.186  0.00  0.00    +0.000 A 
ATOM      6  N   UNL     1      28.131   7.072  19.269  0.00  0.00    +0.000 NA
ATOM      7  N   UNL     1      27.409   7.161  16.952  0.00  0.00    +0.000 NA
ENDROOT
BRANCH   3   8
ATOM      8  C   UNL     1      24.879   3.914  17.651  0.00  0.00    +0.000 A 
ATOM      9  C   UNL     1      23.584   4.104  18.070  0.00  0.00    +0.000 A 
ATOM     10  C   UNL     1      22.706   3.044  18.260  0.00  0.00    +0.000 A 
ATOM     11  C   UNL     1      23.113   1.747  18.032  0.00  0.00    +0.000 A 
ATOM     12  F   UNL     1      22.281   0.683  18.207  0.00  0.00    +0.000 F 
ATOM     13  C   UNL     1      24.411   1.543  17.612  0.00  0.00    +0.000 A 
ATOM     14  C   UNL     1      24.855   0.256  17.372  0.00  0.00    +0.000 A 
ATOM     15  C   UNL     1      26.138   0.053  16.957  0.00  0.00    +0.000 A 
ATOM     16  C   UNL     1      27.001   1.108  16.771  0.00  0.00    +0.000 A 
ATOM     17  C   UNL     1      26.584   2.419  17.004  0.00  0.00    +0.000 A 
ATOM     18  C   UNL     1      25.286   2.618  17.424  0.00  0.00    +0.000 A 
ENDBRANCH   3   8
BRANCH   1  19
ATOM     19  C   UNL     1      26.663   7.250  14.563  0.00  0.00    +0.000 C 
BRANCH  19  21
ATOM     20  C   UNL     1      28.994   7.705  13.734  0.00  0.00    +0.000 C 
ATOM     21  C   UNL     1      27.834   6.767  13.747  0.00  0.00    +0.000 C 
ATOM     22  C   UNL     1      27.423   6.268  12.393  0.00  0.00    +0.000 C 
ENDBRANCH  19  21
ENDBRANCH   1  19
TORSDOF 3
ENDMDL
MODEL 10
REMARK VINA RESULT:      -6.4     27.874     29.438
REMARK  Name = 
REMARK  3 active torsions:
REMARK  status: ('A' for Active; 'I' for Inactive)
REMARK    1  A    between atoms: C_2  and  C_4
REMARK    2  A    between atoms: C_4  and  C_5
REMARK    3  A    between atoms: C_7  and  C_8
REMARK                            x       y       z     vdW  Elec       q    Type
REMARK                         _______ _______ _______ _____ _____    ______ ____
ROOT
ATOM      1  C   UNL     1      33.635  -2.637  34.189  0.00  0.00    +0.000 A 
ATOM      2  C   UNL     1      33.424  -3.447  33.095  0.00  0.00    +0.000 A 
ATOM      3  C   UNL     1      33.987  -4.708  33.000  0.00  0.00    +0.000 A 
ATOM      4  N   UNL     1      34.751  -5.141  33.997  0.00  0.00    +0.000 NA
ATOM      5  C   UNL     1      34.967  -4.366  35.071  0.00  0.00    +0.000 A 
ATOM      6  N   UNL     1      35.795  -4.894  36.098  0.00  0.00    +0.000 NA
ATOM      7  N   UNL     1      34.415  -3.126  35.165  0.00  0.00    +0.000 NA
ENDROOT
BRANCH   3   8
ATOM      8  C   UNL     1      33.709  -5.497  31.802  0.00  0.00    +0.000 A 
ATOM      9  C   UNL     1      34.617  -5.562  30.772  0.00  0.00    +0.000 A 
ATOM     10  C   UNL     1      34.377  -6.303  29.622  0.00  0.00    +0.000 A 
ATOM     11  C   UNL     1      33.203  -7.008  29.474  0.00  0.00    +0.000 A 
ATOM     12  F   UNL     1      32.934  -7.746  28.361  0.00  0.00    +0.000 F 
ATOM     13  C   UNL     1      32.283  -6.950  30.500  0.00  0.00    +0.000 A 
ATOM     14  C   UNL     1      31.092  -7.645  30.387  0.00  0.00    +0.000 A 
ATOM     15  C   UNL     1      30.182  -7.589  31.400  0.00  0.00    +0.000 A 
ATOM     16  C   UNL     1      30.426  -6.852  32.536  0.00  0.00    +0.000 A 
ATOM     17  C   UNL     1      31.617  -6.141  32.681  0.00  0.00    +0.000 A 
ATOM     18  C   UNL     1      32.533  -6.201  31.653  0.00  0.00    +0.000 A 
ENDBRANCH   3   8
BRANCH   1  19
ATOM     19  C   UNL     1      32.990  -1.305  34.202  0.00  0.00    +0.000 C 
BRANCH  19  21
ATOM     20  C   UNL     1      33.691   1.000  34.926  0.00  0.00    +0.000 C 
ATOM     21  C   UNL     1      33.988  -0.183  34.068  0.00  0.00    +0.000 C 
ATOM     22  C   UNL     1      34.290   0.148  32.635  0.00  0.00    +0.000 C 
ENDBRANCH  19  21
ENDBRANCH   1  19
TORSDOF 3
ENDMDL
