MODEL 1
REMARK VINA RESULT:      -7.9      0.000      0.000
REMARK  Name = 
REMARK  8 active torsions:
REMARK  status: ('A' for Active; 'I' for Inactive)
REMARK    1  A    between atoms: C_4  and  C_5
REMARK    2  A    between atoms: C_5  and  O_6
REMARK    3  A    between atoms: O_6  and  C_7
REMARK    4  A    between atoms: C_11  and  O_12
REMARK    5  A    between atoms: O_12  and  C_13
REMARK    6  A    between atoms: C_13  and  C_14
REMARK    7  A    between atoms: C_14  and  O_15
REMARK    8  A    between atoms: O_15  and  C_16
REMARK                            x       y       z     vdW  Elec       q    Type
REMARK                         _______ _______ _______ _____ _____    ______ ____
ROOT
ATOM      1  O   UNL     1      14.204  -0.616  26.358  0.00  0.00    +0.000 OA
ENDROOT
BRANCH   1   6
ATOM      2  C   UNL     1      17.627   0.629  25.922  0.00  0.00    +0.000 A 
ATOM      3  C   UNL     1      18.026   0.868  27.237  0.00  0.00    +0.000 A 
ATOM      4  C   UNL     1      17.133   0.607  28.256  0.00  0.00    +0.000 A 
ATOM      5  C   UNL     1      15.854   0.113  27.996  0.00  0.00    +0.000 A 
ATOM      6  C   UNL     1      15.468  -0.122  26.694  0.00  0.00    +0.000 A 
ATOM      7  C   UNL     1      16.364   0.141  25.679  0.00  0.00    +0.000 A 
BRANCH   2   8
ATOM      8  O   UNL     1      18.468   0.869  24.864  0.00  0.00    +0.000 OA
BRANCH   8   9
ATOM      9  C   UNL     1      19.750   0.280  24.831  0.00  0.00    +0.000 C 
BRANCH   9  13
ATOM     10  C   UNL     1      20.570  -1.538  21.135  0.00  0.00    +0.000 A 
ATOM     11  C   UNL     1      20.702  -0.186  21.248  0.00  0.00    +0.000 A 
ATOM     12  C   UNL     1      20.435   0.414  22.455  0.00  0.00    +0.000 A 
ATOM     13  C   UNL     1      20.041  -0.355  23.528  0.00  0.00    +0.000 A 
ATOM     14  C   UNL     1      19.910  -1.715  23.408  0.00  0.00    +0.000 A 
ATOM     15  C   UNL     1      20.177  -2.302  22.204  0.00  0.00    +0.000 A 
ENDBRANCH   9  13
ENDBRANCH   8   9
ENDBRANCH   2   8
ENDBRANCH   1   6
BRANCH   1  16
ATOM     16  C   UNL     1      13.405  -1.341  27.242  0.00  0.00    +0.000 C 
BRANCH  16  17
ATOM     17  C   UNL     1      12.201  -0.542  27.715  0.00  0.00    +0.000 C 
BRANCH  17  18
ATOM     18  O   UNL     1      11.711   0.177  26.600  0.00  0.00    +0.000 OA
BRANCH  18  19
ATOM     19  C   UNL     1      11.476   1.557  26.661  0.00  0.00    +0.000 A 
ATOM     20  N   UNL     1      12.497   2.354  27.023  0.00  0.00    +0.000 NA
ATOM     21  C   UNL     1      12.302   3.665  27.088  0.00  0.00    +0.000 A 
ATOM     22  C   UNL     1      11.069   4.206  26.789  0.00  0.00    +0.000 A 
ATOM     23  N   UNL     1      10.082   3.397  26.436  0.00  0.00    +0.000 NA
ATOM     24  C   UNL     1      10.246   2.047  26.357  0.00  0.00    +0.000 A 
ATOM     25  N   UNL     1       9.168   1.217  25.975  0.00  0.00    +0.000 N 
ATOM     26  C   UNL     1       9.214   0.364  24.814  0.00  0.00    +0.000 C 
ATOM     27  C   UNL     1       8.779  -1.050  25.124  0.00  0.00    +0.000 C 
ATOM     28  N   UNL     1       8.603  -1.130  26.578  0.00  0.00    +0.000 NA
ATOM     29  C   UNL     1       7.515  -0.226  26.902  0.00  0.00    +0.000 C 
ATOM     30  C   UNL     1       7.974   1.226  26.783  0.00  0.00    +0.000 C 
ENDBRANCH  18  19
ENDBRANCH  17  18
ENDBRANCH  16  17
ENDBRANCH   1  16
TORSDOF 8
ENDMDL
MODEL 2
REMARK VINA RESULT:      -7.9      1.858      2.735
REMARK  Name = 
REMARK  8 active torsions:
REMARK  status: ('A' for Active; 'I' for Inactive)
REMARK    1  A    between atoms: C_4  and  C_5
REMARK    2  A    between atoms: C_5  and  O_6
REMARK    3  A    between atoms: O_6  and  C_7
REMARK    4  A    between atoms: C_11  and  O_12
REMARK    5  A    between atoms: O_12  and  C_13
REMARK    6  A    between atoms: C_13  and  C_14
REMARK    7  A    between atoms: C_14  and  O_15
REMARK    8  A    between atoms: O_15  and  C_16
REMARK                            x       y       z     vdW  Elec       q    Type
REMARK                         _______ _______ _______ _____ _____    ______ ____
ROOT
ATOM      1  O   UNL     1      14.173  -0.420  26.129  0.00  0.00    +0.000 OA
ENDROOT
BRANCH   1   6
ATOM      2  C   UNL     1      17.828  -0.639  26.338  0.00  0.00    +0.000 A 
ATOM      3  C   UNL     1      18.095  -0.012  27.555  0.00  0.00    +0.000 A 
ATOM      4  C   UNL     1      17.035   0.477  28.292  0.00  0.00    +0.000 A 
ATOM      5  C   UNL     1      15.719   0.357  27.845  0.00  0.00    +0.000 A 
ATOM      6  C   UNL     1      15.465  -0.264  26.641  0.00  0.00    +0.000 A 
ATOM      7  C   UNL     1      16.527  -0.752  25.908  0.00  0.00    +0.000 A 
BRANCH   2   8
ATOM      8  O   UNL     1      18.838  -1.147  25.559  0.00  0.00    +0.000 OA
BRANCH   8   9
ATOM      9  C   UNL     1      19.819  -0.286  25.021  0.00  0.00    +0.000 C 
BRANCH   9  13
ATOM     10  C   UNL     1      20.554  -1.078  20.963  0.00  0.00    +0.000 A 
ATOM     11  C   UNL     1      20.578   0.214  21.396  0.00  0.00    +0.000 A 
ATOM     12  C   UNL     1      20.338   0.479  22.723  0.00  0.00    +0.000 A 
ATOM     13  C   UNL     1      20.079  -0.559  23.591  0.00  0.00    +0.000 A 
ATOM     14  C   UNL     1      20.056  -1.857  23.148  0.00  0.00    +0.000 A 
ATOM     15  C   UNL     1      20.295  -2.110  21.828  0.00  0.00    +0.000 A 
ENDBRANCH   9  13
ENDBRANCH   8   9
ENDBRANCH   2   8
ENDBRANCH   1   6
BRANCH   1  16
ATOM     16  C   UNL     1      13.217  -1.257  26.705  0.00  0.00    +0.000 C 
BRANCH  16  17
ATOM     17  C   UNL     1      11.951  -0.506  27.086  0.00  0.00    +0.000 C 
BRANCH  17  18
ATOM     18  O   UNL     1      12.350   0.715  27.678  0.00  0.00    +0.000 OA
BRANCH  18  19
ATOM     19  C   UNL     1      12.156   0.970  29.041  0.00  0.00    +0.000 A 
ATOM     20  N   UNL     1      12.734   0.136  29.925  0.00  0.00    +0.000 NA
ATOM     21  C   UNL     1      12.567   0.354  31.223  0.00  0.00    +0.000 A 
ATOM     22  C   UNL     1      11.812   1.421  31.663  0.00  0.00    +0.000 A 
ATOM     23  N   UNL     1      11.254   2.225  30.771  0.00  0.00    +0.000 NA
ATOM     24  C   UNL     1      11.405   2.032  29.431  0.00  0.00    +0.000 A 
ATOM     25  N   UNL     1      10.795   2.912  28.509  0.00  0.00    +0.000 N 
ATOM     26  C   UNL     1      11.548   3.681  27.550  0.00  0.00    +0.000 C 
ATOM     27  C   UNL     1      10.987   3.560  26.152  0.00  0.00    +0.000 C 
ATOM     28  N   UNL     1       9.930   2.545  26.206  0.00  0.00    +0.000 NA
ATOM     29  C   UNL     1       8.900   3.081  27.075  0.00  0.00    +0.000 C 
ATOM     30  C   UNL     1       9.359   3.044  28.531  0.00  0.00    +0.000 C 
ENDBRANCH  18  19
ENDBRANCH  17  18
ENDBRANCH  16  17
ENDBRANCH   1  16
TORSDOF 8
ENDMDL
MODEL 3
REMARK VINA RESULT:      -7.7      1.270      3.001
REMARK  Name = 
REMARK  8 active torsions:
REMARK  status: ('A' for Active; 'I' for Inactive)
REMARK    1  A    between atoms: C_4  and  C_5
REMARK    2  A    between atoms: C_5  and  O_6
REMARK    3  A    between atoms: O_6  and  C_7
REMARK    4  A    between atoms: C_11  and  O_12
REMARK    5  A    between atoms: O_12  and  C_13
REMARK    6  A    between atoms: C_13  and  C_14
REMARK    7  A    between atoms: C_14  and  O_15
REMARK    8  A    between atoms: O_15  and  C_16
REMARK                            x       y       z     vdW  Elec       q    Type
REMARK                         _______ _______ _______ _____ _____    ______ ____
ROOT
ATOM      1  O   UNL     1      13.813  -0.703  26.901  0.00  0.00    +0.000 OA
ENDROOT
BRANCH   1   6
ATOM      2  C   UNL     1      17.263  -0.744  25.655  0.00  0.00    +0.000 A 
ATOM      3  C   UNL     1      17.800   0.407  26.231  0.00  0.00    +0.000 A 
ATOM      4  C   UNL     1      16.990   1.184  27.033  0.00  0.00    +0.000 A 
ATOM      5  C   UNL     1      15.660   0.842  27.275  0.00  0.00    +0.000 A 
ATOM      6  C   UNL     1      15.137  -0.297  26.703  0.00  0.00    +0.000 A 
ATOM      7  C   UNL     1      15.950  -1.071  25.902  0.00  0.00    +0.000 A 
BRANCH   2   8
ATOM      8  O   UNL     1      18.017  -1.558  24.847  0.00  0.00    +0.000 OA
BRANCH   8   9
ATOM      9  C   UNL     1      19.421  -1.419  24.814  0.00  0.00    +0.000 C 
BRANCH   9  13
ATOM     10  C   UNL     1      20.779   0.110  21.146  0.00  0.00    +0.000 A 
ATOM     11  C   UNL     1      20.314   0.976  22.088  0.00  0.00    +0.000 A 
ATOM     12  C   UNL     1      19.868   0.482  23.291  0.00  0.00    +0.000 A 
ATOM     13  C   UNL     1      19.898  -0.876  23.524  0.00  0.00    +0.000 A 
ATOM     14  C   UNL     1      20.367  -1.743  22.571  0.00  0.00    +0.000 A 
ATOM     15  C   UNL     1      20.807  -1.242  21.379  0.00  0.00    +0.000 A 
ENDBRANCH   9  13
ENDBRANCH   8   9
ENDBRANCH   2   8
ENDBRANCH   1   6
BRANCH   1  16
ATOM     16  C   UNL     1      12.824  -0.594  25.924  0.00  0.00    +0.000 C 
BRANCH  16  17
ATOM     17  C   UNL     1      11.548  -1.321  26.315  0.00  0.00    +0.000 C 
BRANCH  17  18
ATOM     18  O   UNL     1      10.634  -0.345  26.777  0.00  0.00    +0.000 OA
BRANCH  18  19
ATOM     19  C   UNL     1       9.616   0.156  25.955  0.00  0.00    +0.000 A 
ATOM     20  N   UNL     1       8.954  -0.714  25.172  0.00  0.00    +0.000 NA
ATOM     21  C   UNL     1       7.984  -0.267  24.384  0.00  0.00    +0.000 A 
ATOM     22  C   UNL     1       7.657   1.073  24.367  0.00  0.00    +0.000 A 
ATOM     23  N   UNL     1       8.326   1.907  25.149  0.00  0.00    +0.000 NA
ATOM     24  C   UNL     1       9.326   1.483  25.970  0.00  0.00    +0.000 A 
ATOM     25  N   UNL     1      10.016   2.404  26.790  0.00  0.00    +0.000 N 
ATOM     26  C   UNL     1      10.042   2.301  28.228  0.00  0.00    +0.000 C 
ATOM     27  C   UNL     1      11.442   2.410  28.785  0.00  0.00    +0.000 C 
ATOM     28  N   UNL     1      12.355   2.423  27.637  0.00  0.00    +0.000 NA
ATOM     29  C   UNL     1      12.054   3.634  26.896  0.00  0.00    +0.000 C 
ATOM     30  C   UNL     1      10.724   3.491  26.159  0.00  0.00    +0.000 C 
ENDBRANCH  18  19
ENDBRANCH  17  18
ENDBRANCH  16  17
ENDBRANCH   1  16
TORSDOF 8
ENDMDL
MODEL 4
REMARK VINA RESULT:      -7.5     23.089     26.476
REMARK  Name = 
REMARK  8 active torsions:
REMARK  status: ('A' for Active; 'I' for Inactive)
REMARK    1  A    between atoms: C_4  and  C_5
REMARK    2  A    between atoms: C_5  and  O_6
REMARK    3  A    between atoms: O_6  and  C_7
REMARK    4  A    between atoms: C_11  and  O_12
REMARK    5  A    between atoms: O_12  and  C_13
REMARK    6  A    between atoms: C_13  and  C_14
REMARK    7  A    between atoms: C_14  and  O_15
REMARK    8  A    between atoms: O_15  and  C_16
REMARK                            x       y       z     vdW  Elec       q    Type
REMARK                         _______ _______ _______ _____ _____    ______ ____
ROOT
ATOM      1  O   UNL     1      37.279   3.252  16.556  0.00  0.00    +0.000 OA
ENDROOT
BRANCH   1   6
ATOM      2  C   UNL     1      39.556   5.553  18.280  0.00  0.00    +0.000 A 
ATOM      3  C   UNL     1      40.326   6.052  17.230  0.00  0.00    +0.000 A 
ATOM      4  C   UNL     1      40.067   5.605  15.950  0.00  0.00    +0.000 A 
ATOM      5  C   UNL     1      39.060   4.674  15.694  0.00  0.00    +0.000 A 
ATOM      6  C   UNL     1      38.304   4.186  16.737  0.00  0.00    +0.000 A 
ATOM      7  C   UNL     1      38.567   4.637  18.014  0.00  0.00    +0.000 A 
BRANCH   2   8
ATOM      8  O   UNL     1      39.765   5.958  19.575  0.00  0.00    +0.000 OA
BRANCH   8   9
ATOM      9  C   UNL     1      40.694   6.984  19.856  0.00  0.00    +0.000 C 
BRANCH   9  13
ATOM     10  C   UNL     1      38.797  10.580  20.909  0.00  0.00    +0.000 A 
ATOM     11  C   UNL     1      40.145  10.580  20.709  0.00  0.00    +0.000 A 
ATOM     12  C   UNL     1      40.771   9.406  20.364  0.00  0.00    +0.000 A 
ATOM     13  C   UNL     1      40.031   8.252  20.226  0.00  0.00    +0.000 A 
ATOM     14  C   UNL     1      38.675   8.259  20.428  0.00  0.00    +0.000 A 
ATOM     15  C   UNL     1      38.062   9.430  20.771  0.00  0.00    +0.000 A 
ENDBRANCH   9  13
ENDBRANCH   8   9
ENDBRANCH   2   8
ENDBRANCH   1   6
BRANCH   1  16
ATOM     16  C   UNL     1      37.016   2.630  15.336  0.00  0.00    +0.000 C 
BRANCH  16  17
ATOM     17  C   UNL     1      35.680   1.905  15.337  0.00  0.00    +0.000 C 
BRANCH  17  18
ATOM     18  O   UNL     1      35.954   0.522  15.463  0.00  0.00    +0.000 OA
BRANCH  18  19
ATOM     19  C   UNL     1      36.188  -0.069  16.711  0.00  0.00    +0.000 A 
ATOM     20  N   UNL     1      35.477   0.377  17.762  0.00  0.00    +0.000 NA
ATOM     21  C   UNL     1      35.678  -0.166  18.956  0.00  0.00    +0.000 A 
ATOM     22  C   UNL     1      36.603  -1.176  19.120  0.00  0.00    +0.000 A 
ATOM     23  N   UNL     1      37.289  -1.595  18.067  0.00  0.00    +0.000 NA
ATOM     24  C   UNL     1      37.108  -1.061  16.828  0.00  0.00    +0.000 A 
ATOM     25  N   UNL     1      37.859  -1.536  15.728  0.00  0.00    +0.000 N 
ATOM     26  C   UNL     1      37.248  -2.117  14.559  0.00  0.00    +0.000 C 
ATOM     27  C   UNL     1      37.780  -1.519  13.277  0.00  0.00    +0.000 C 
ATOM     28  N   UNL     1      38.649  -0.401  13.660  0.00  0.00    +0.000 NA
ATOM     29  C   UNL     1      39.755  -0.985  14.396  0.00  0.00    +0.000 C 
ATOM     30  C   UNL     1      39.297  -1.434  15.782  0.00  0.00    +0.000 C 
ENDBRANCH  18  19
ENDBRANCH  17  18
ENDBRANCH  16  17
ENDBRANCH   1  16
TORSDOF 8
ENDMDL
MODEL 5
REMARK VINA RESULT:      -7.5     23.064     25.906
REMARK  Name = 
REMARK  8 active torsions:
REMARK  status: ('A' for Active; 'I' for Inactive)
REMARK    1  A    between atoms: C_4  and  C_5
REMARK    2  A    between atoms: C_5  and  O_6
REMARK    3  A    between atoms: O_6  and  C_7
REMARK    4  A    between atoms: C_11  and  O_12
REMARK    5  A    between atoms: O_12  and  C_13
REMARK    6  A    between atoms: C_13  and  C_14
REMARK    7  A    between atoms: C_14  and  O_15
REMARK    8  A    between atoms: O_15  and  C_16
REMARK                            x       y       z     vdW  Elec       q    Type
REMARK                         _______ _______ _______ _____ _____    ______ ____
ROOT
ATOM      1  O   UNL     1      35.602   0.276  15.868  0.00  0.00    +0.000 OA
ENDROOT
BRANCH   1   6
ATOM      2  C   UNL     1      37.090   3.612  16.196  0.00  0.00    +0.000 A 
ATOM      3  C   UNL     1      37.007   4.104  14.893  0.00  0.00    +0.000 A 
ATOM      4  C   UNL     1      36.450   3.301  13.919  0.00  0.00    +0.000 A 
ATOM      5  C   UNL     1      35.974   2.023  14.211  0.00  0.00    +0.000 A 
ATOM      6  C   UNL     1      36.059   1.546  15.501  0.00  0.00    +0.000 A 
ATOM      7  C   UNL     1      36.616   2.351  16.472  0.00  0.00    +0.000 A 
BRANCH   2   8
ATOM      8  O   UNL     1      37.634   4.361  17.210  0.00  0.00    +0.000 OA
BRANCH   8   9
ATOM      9  C   UNL     1      38.269   5.588  16.922  0.00  0.00    +0.000 C 
BRANCH   9  13
ATOM     10  C   UNL     1      39.520   7.586  20.398  0.00  0.00    +0.000 A 
ATOM     11  C   UNL     1      40.225   6.501  19.972  0.00  0.00    +0.000 A 
ATOM     12  C   UNL     1      39.821   5.843  18.835  0.00  0.00    +0.000 A 
ATOM     13  C   UNL     1      38.714   6.288  18.146  0.00  0.00    +0.000 A 
ATOM     14  C   UNL     1      38.008   7.381  18.579  0.00  0.00    +0.000 A 
ATOM     15  C   UNL     1      38.417   8.028  19.710  0.00  0.00    +0.000 A 
ENDBRANCH   9  13
ENDBRANCH   8   9
ENDBRANCH   2   8
ENDBRANCH   1   6
BRANCH   1  16
ATOM     16  C   UNL     1      34.750   0.051  16.950  0.00  0.00    +0.000 C 
BRANCH  16  17
ATOM     17  C   UNL     1      34.900  -1.352  17.516  0.00  0.00    +0.000 C 
BRANCH  17  18
ATOM     18  O   UNL     1      36.138  -1.860  17.056  0.00  0.00    +0.000 OA
BRANCH  18  19
ATOM     19  C   UNL     1      37.084  -2.399  17.937  0.00  0.00    +0.000 A 
ATOM     20  N   UNL     1      36.920  -2.172  19.253  0.00  0.00    +0.000 NA
ATOM     21  C   UNL     1      37.801  -2.672  20.110  0.00  0.00    +0.000 A 
ATOM     22  C   UNL     1      38.873  -3.414  19.660  0.00  0.00    +0.000 A 
ATOM     23  N   UNL     1      39.009  -3.621  18.359  0.00  0.00    +0.000 NA
ATOM     24  C   UNL     1      38.124  -3.125  17.452  0.00  0.00    +0.000 A 
ATOM     25  N   UNL     1      38.304  -3.368  16.071  0.00  0.00    +0.000 N 
ATOM     26  C   UNL     1      37.328  -4.060  15.268  0.00  0.00    +0.000 C 
ATOM     27  C   UNL     1      37.006  -3.318  13.991  0.00  0.00    +0.000 C 
ATOM     28  N   UNL     1      37.692  -2.024  14.069  0.00  0.00    +0.000 NA
ATOM     29  C   UNL     1      39.112  -2.322  14.089  0.00  0.00    +0.000 C 
ATOM     30  C   UNL     1      39.516  -2.902  15.443  0.00  0.00    +0.000 C 
ENDBRANCH  18  19
ENDBRANCH  17  18
ENDBRANCH  16  17
ENDBRANCH   1  16
TORSDOF 8
ENDMDL
MODEL 6
REMARK VINA RESULT:      -7.4     23.084     26.751
REMARK  Name = 
REMARK  8 active torsions:
REMARK  status: ('A' for Active; 'I' for Inactive)
REMARK    1  A    between atoms: C_4  and  C_5
REMARK    2  A    between atoms: C_5  and  O_6
REMARK    3  A    between atoms: O_6  and  C_7
REMARK    4  A    between atoms: C_11  and  O_12
REMARK    5  A    between atoms: O_12  and  C_13
REMARK    6  A    between atoms: C_13  and  C_14
REMARK    7  A    between atoms: C_14  and  O_15
REMARK    8  A    between atoms: O_15  and  C_16
REMARK                            x       y       z     vdW  Elec       q    Type
REMARK                         _______ _______ _______ _____ _____    ______ ____
ROOT
ATOM      1  O   UNL     1      37.547   2.645  16.112  0.00  0.00    +0.000 OA
ENDROOT
BRANCH   1   6
ATOM      2  C   UNL     1      38.675   5.590  17.983  0.00  0.00    +0.000 A 
ATOM      3  C   UNL     1      38.519   6.614  17.049  0.00  0.00    +0.000 A 
ATOM      4  C   UNL     1      38.035   6.297  15.796  0.00  0.00    +0.000 A 
ATOM      5  C   UNL     1      37.702   4.986  15.454  0.00  0.00    +0.000 A 
ATOM      6  C   UNL     1      37.859   3.981  16.383  0.00  0.00    +0.000 A 
ATOM      7  C   UNL     1      38.344   4.303  17.634  0.00  0.00    +0.000 A 
BRANCH   2   8
ATOM      8  O   UNL     1      39.153   5.841  19.245  0.00  0.00    +0.000 OA
BRANCH   8   9
ATOM      9  C   UNL     1      39.822   7.053  19.522  0.00  0.00    +0.000 C 
BRANCH   9  13
ATOM     10  C   UNL     1      43.985   6.547  19.748  0.00  0.00    +0.000 A 
ATOM     11  C   UNL     1      43.438   6.986  18.580  0.00  0.00    +0.000 A 
ATOM     12  C   UNL     1      42.076   7.154  18.501  0.00  0.00    +0.000 A 
ATOM     13  C   UNL     1      41.289   6.877  19.597  0.00  0.00    +0.000 A 
ATOM     14  C   UNL     1      41.845   6.435  20.769  0.00  0.00    +0.000 A 
ATOM     15  C   UNL     1      43.199   6.271  20.839  0.00  0.00    +0.000 A 
ENDBRANCH   9  13
ENDBRANCH   8   9
ENDBRANCH   2   8
ENDBRANCH   1   6
BRANCH   1  16
ATOM     16  C   UNL     1      37.005   2.215  14.900  0.00  0.00    +0.000 C 
BRANCH  16  17
ATOM     17  C   UNL     1      37.168   0.718  14.697  0.00  0.00    +0.000 C 
BRANCH  17  18
ATOM     18  O   UNL     1      37.867   0.216  15.820  0.00  0.00    +0.000 OA
BRANCH  18  19
ATOM     19  C   UNL     1      38.608  -0.971  15.754  0.00  0.00    +0.000 A 
ATOM     20  N   UNL     1      39.751  -0.961  15.045  0.00  0.00    +0.000 NA
ATOM     21  C   UNL     1      40.473  -2.071  14.967  0.00  0.00    +0.000 A 
ATOM     22  C   UNL     1      40.059  -3.222  15.604  0.00  0.00    +0.000 A 
ATOM     23  N   UNL     1      38.929  -3.203  16.295  0.00  0.00    +0.000 NA
ATOM     24  C   UNL     1      38.164  -2.082  16.398  0.00  0.00    +0.000 A 
ATOM     25  N   UNL     1      36.965  -2.101  17.145  0.00  0.00    +0.000 N 
ATOM     26  C   UNL     1      36.741  -1.243  18.281  0.00  0.00    +0.000 C 
ATOM     27  C   UNL     1      35.411  -0.528  18.206  0.00  0.00    +0.000 C 
ATOM     28  N   UNL     1      34.843  -0.827  16.888  0.00  0.00    +0.000 NA
ATOM     29  C   UNL     1      34.604  -2.258  16.867  0.00  0.00    +0.000 C 
ATOM     30  C   UNL     1      35.923  -3.018  16.751  0.00  0.00    +0.000 C 
ENDBRANCH  18  19
ENDBRANCH  17  18
ENDBRANCH  16  17
ENDBRANCH   1  16
TORSDOF 8
ENDMDL
MODEL 7
REMARK VINA RESULT:      -7.3     24.692     27.131
REMARK  Name = 
REMARK  8 active torsions:
REMARK  status: ('A' for Active; 'I' for Inactive)
REMARK    1  A    between atoms: C_4  and  C_5
REMARK    2  A    between atoms: C_5  and  O_6
REMARK    3  A    between atoms: O_6  and  C_7
REMARK    4  A    between atoms: C_11  and  O_12
REMARK    5  A    between atoms: O_12  and  C_13
REMARK    6  A    between atoms: C_13  and  C_14
REMARK    7  A    between atoms: C_14  and  O_15
REMARK    8  A    between atoms: O_15  and  C_16
REMARK                            x       y       z     vdW  Elec       q    Type
REMARK                         _______ _______ _______ _____ _____    ______ ____
ROOT
ATOM      1  O   UNL     1      37.158   1.502  14.461  0.00  0.00    +0.000 OA
ENDROOT
BRANCH   1   6
ATOM      2  C   UNL     1      38.452   4.474  16.177  0.00  0.00    +0.000 A 
ATOM      3  C   UNL     1      39.537   4.830  15.377  0.00  0.00    +0.000 A 
ATOM      4  C   UNL     1      39.819   4.062  14.267  0.00  0.00    +0.000 A 
ATOM      5  C   UNL     1      39.047   2.948  13.935  0.00  0.00    +0.000 A 
ATOM      6  C   UNL     1      37.976   2.603  14.731  0.00  0.00    +0.000 A 
ATOM      7  C   UNL     1      37.698   3.375  15.840  0.00  0.00    +0.000 A 
BRANCH   2   8
ATOM      8  O   UNL     1      38.119   5.198  17.295  0.00  0.00    +0.000 OA
BRANCH   8   9
ATOM      9  C   UNL     1      38.791   4.966  18.515  0.00  0.00    +0.000 C 
BRANCH   9  13
ATOM     10  C   UNL     1      40.300   8.503  20.203  0.00  0.00    +0.000 A 
ATOM     11  C   UNL     1      39.092   8.538  19.573  0.00  0.00    +0.000 A 
ATOM     12  C   UNL     1      38.594   7.383  19.018  0.00  0.00    +0.000 A 
ATOM     13  C   UNL     1      39.318   6.214  19.108  0.00  0.00    +0.000 A 
ATOM     14  C   UNL     1      40.532   6.187  19.744  0.00  0.00    +0.000 A 
ATOM     15  C   UNL     1      41.020   7.339  20.291  0.00  0.00    +0.000 A 
ENDBRANCH   9  13
ENDBRANCH   8   9
ENDBRANCH   2   8
ENDBRANCH   1   6
BRANCH   1  16
ATOM     16  C   UNL     1      36.073   1.139  15.258  0.00  0.00    +0.000 C 
BRANCH  16  17
ATOM     17  C   UNL     1      36.504   0.405  16.517  0.00  0.00    +0.000 C 
BRANCH  17  18
ATOM     18  O   UNL     1      37.602  -0.417  16.167  0.00  0.00    +0.000 OA
BRANCH  18  19
ATOM     19  C   UNL     1      38.023  -1.470  16.989  0.00  0.00    +0.000 A 
ATOM     20  N   UNL     1      37.675  -1.432  18.288  0.00  0.00    +0.000 NA
ATOM     21  C   UNL     1      38.060  -2.417  19.089  0.00  0.00    +0.000 A 
ATOM     22  C   UNL     1      38.807  -3.468  18.599  0.00  0.00    +0.000 A 
ATOM     23  N   UNL     1      39.135  -3.479  17.316  0.00  0.00    +0.000 NA
ATOM     24  C   UNL     1      38.756  -2.486  16.465  0.00  0.00    +0.000 A 
ATOM     25  N   UNL     1      39.125  -2.534  15.101  0.00  0.00    +0.000 N 
ATOM     26  C   UNL     1      38.158  -2.560  14.033  0.00  0.00    +0.000 C 
ATOM     27  C   UNL     1      38.462  -1.539  12.961  0.00  0.00    +0.000 C 
ATOM     28  N   UNL     1      39.579  -0.727  13.453  0.00  0.00    +0.000 NA
ATOM     29  C   UNL     1      40.710  -1.627  13.572  0.00  0.00    +0.000 C 
ATOM     30  C   UNL     1      40.528  -2.557  14.769  0.00  0.00    +0.000 C 
ENDBRANCH  18  19
ENDBRANCH  17  18
ENDBRANCH  16  17
ENDBRANCH   1  16
TORSDOF 8
ENDMDL
MODEL 8
REMARK VINA RESULT:      -7.3     23.965     26.909
REMARK  Name = 
REMARK  8 active torsions:
REMARK  status: ('A' for Active; 'I' for Inactive)
REMARK    1  A    between atoms: C_4  and  C_5
REMARK    2  A    between atoms: C_5  and  O_6
REMARK    3  A    between atoms: O_6  and  C_7
REMARK    4  A    between atoms: C_11  and  O_12
REMARK    5  A    between atoms: O_12  and  C_13
REMARK    6  A    between atoms: C_13  and  C_14
REMARK    7  A    between atoms: C_14  and  O_15
REMARK    8  A    between atoms: O_15  and  C_16
REMARK                            x       y       z     vdW  Elec       q    Type
REMARK                         _______ _______ _______ _____ _____    ______ ____
ROOT
ATOM      1  O   UNL     1      37.363   3.708  15.407  0.00  0.00    +0.000 OA
ENDROOT
BRANCH   1   6
ATOM      2  C   UNL     1      39.372   5.508  17.892  0.00  0.00    +0.000 A 
ATOM      3  C   UNL     1      40.407   6.029  17.116  0.00  0.00    +0.000 A 
ATOM      4  C   UNL     1      40.414   5.765  15.762  0.00  0.00    +0.000 A 
ATOM      5  C   UNL     1      39.416   4.997  15.163  0.00  0.00    +0.000 A 
ATOM      6  C   UNL     1      38.397   4.486  15.937  0.00  0.00    +0.000 A 
ATOM      7  C   UNL     1      38.394   4.752  17.290  0.00  0.00    +0.000 A 
BRANCH   2   8
ATOM      8  O   UNL     1      39.309   5.734  19.244  0.00  0.00    +0.000 OA
BRANCH   8   9
ATOM      9  C   UNL     1      40.351   6.426  19.897  0.00  0.00    +0.000 C 
BRANCH   9  13
ATOM     10  C   UNL     1      39.257  10.360  20.882  0.00  0.00    +0.000 A 
ATOM     11  C   UNL     1      40.563  10.090  20.603  0.00  0.00    +0.000 A 
ATOM     12  C   UNL     1      40.927   8.804  20.280  0.00  0.00    +0.000 A 
ATOM     13  C   UNL     1      39.971   7.813  20.243  0.00  0.00    +0.000 A 
ATOM     14  C   UNL     1      38.658   8.091  20.524  0.00  0.00    +0.000 A 
ATOM     15  C   UNL     1      38.306   9.371  20.845  0.00  0.00    +0.000 A 
ENDBRANCH   9  13
ENDBRANCH   8   9
ENDBRANCH   2   8
ENDBRANCH   1   6
BRANCH   1  16
ATOM     16  C   UNL     1      36.562   2.867  16.180  0.00  0.00    +0.000 C 
BRANCH  16  17
ATOM     17  C   UNL     1      36.449   1.474  15.584  0.00  0.00    +0.000 C 
BRANCH  17  18
ATOM     18  O   UNL     1      37.489   0.693  16.142  0.00  0.00    +0.000 OA
BRANCH  18  19
ATOM     19  C   UNL     1      38.536   0.195  15.356  0.00  0.00    +0.000 A 
ATOM     20  N   UNL     1      39.437   1.072  14.879  0.00  0.00    +0.000 NA
ATOM     21  C   UNL     1      40.440   0.627  14.132  0.00  0.00    +0.000 A 
ATOM     22  C   UNL     1      40.559  -0.717  13.849  0.00  0.00    +0.000 A 
ATOM     23  N   UNL     1      39.657  -1.558  14.332  0.00  0.00    +0.000 NA
ATOM     24  C   UNL     1      38.616  -1.137  15.102  0.00  0.00    +0.000 A 
ATOM     25  N   UNL     1      37.674  -2.065  15.600  0.00  0.00    +0.000 N 
ATOM     26  C   UNL     1      37.438  -2.256  17.009  0.00  0.00    +0.000 C 
ATOM     27  C   UNL     1      35.967  -2.221  17.354  0.00  0.00    +0.000 C 
ATOM     28  N   UNL     1      35.255  -1.832  16.132  0.00  0.00    +0.000 NA
ATOM     29  C   UNL     1      35.483  -2.899  15.176  0.00  0.00    +0.000 C 
ATOM     30  C   UNL     1      36.918  -2.852  14.657  0.00  0.00    +0.000 C 
ENDBRANCH  18  19
ENDBRANCH  17  18
ENDBRANCH  16  17
ENDBRANCH   1  16
TORSDOF 8
ENDMDL
MODEL 9
REMARK VINA RESULT:      -7.3     20.604     23.050
REMARK  Name = 
REMARK  8 active torsions:
REMARK  status: ('A' for Active; 'I' for Inactive)
REMARK    1  A    between atoms: C_4  and  C_5
REMARK    2  A    between atoms: C_5  and  O_6
REMARK    3  A    between atoms: O_6  and  C_7
REMARK    4  A    between atoms: C_11  and  O_12
REMARK    5  A    between atoms: O_12  and  C_13
REMARK    6  A    between atoms: C_13  and  C_14
REMARK    7  A    between atoms: C_14  and  O_15
REMARK    8  A    between atoms: O_15  and  C_16
REMARK                            x       y       z     vdW  Elec       q    Type
REMARK                         _______ _______ _______ _____ _____    ______ ____
ROOT
ATOM      1  O   UNL     1      25.557  13.488  39.736  0.00  0.00    +0.000 OA
ENDROOT
BRANCH   1   6
ATOM      2  C   UNL     1      24.544  16.631  38.139  0.00  0.00    +0.000 A 
ATOM      3  C   UNL     1      23.821  17.260  39.153  0.00  0.00    +0.000 A 
ATOM      4  C   UNL     1      23.685  16.614  40.365  0.00  0.00    +0.000 A 
ATOM      5  C   UNL     1      24.250  15.359  40.590  0.00  0.00    +0.000 A 
ATOM      6  C   UNL     1      24.963  14.745  39.583  0.00  0.00    +0.000 A 
ATOM      7  C   UNL     1      25.097  15.394  38.374  0.00  0.00    +0.000 A 
BRANCH   2   8
ATOM      8  O   UNL     1      24.716  17.221  36.912  0.00  0.00    +0.000 OA
BRANCH   8   9
ATOM      9  C   UNL     1      25.893  16.984  36.170  0.00  0.00    +0.000 C 
BRANCH   9  13
ATOM     10  C   UNL     1      25.110  15.023  32.539  0.00  0.00    +0.000 A 
ATOM     11  C   UNL     1      25.642  14.310  33.571  0.00  0.00    +0.000 A 
ATOM     12  C   UNL     1      25.900  14.946  34.762  0.00  0.00    +0.000 A 
ATOM     13  C   UNL     1      25.619  16.289  34.894  0.00  0.00    +0.000 A 
ATOM     14  C   UNL     1      25.084  17.001  33.852  0.00  0.00    +0.000 A 
ATOM     15  C   UNL     1      24.831  16.360  32.672  0.00  0.00    +0.000 A 
ENDBRANCH   9  13
ENDBRANCH   8   9
ENDBRANCH   2   8
ENDBRANCH   1   6
BRANCH   1  16
ATOM     16  C   UNL     1      26.079  13.030  40.946  0.00  0.00    +0.000 C 
BRANCH  16  17
ATOM     17  C   UNL     1      27.080  11.903  40.749  0.00  0.00    +0.000 C 
BRANCH  17  18
ATOM     18  O   UNL     1      26.526  10.742  41.338  0.00  0.00    +0.000 OA
BRANCH  18  19
ATOM     19  C   UNL     1      27.331   9.766  41.939  0.00  0.00    +0.000 A 
ATOM     20  N   UNL     1      28.429   9.360  41.275  0.00  0.00    +0.000 NA
ATOM     21  C   UNL     1      29.210   8.438  41.821  0.00  0.00    +0.000 A 
ATOM     22  C   UNL     1      28.904   7.901  43.054  0.00  0.00    +0.000 A 
ATOM     23  N   UNL     1      27.817   8.319  43.685  0.00  0.00    +0.000 NA
ATOM     24  C   UNL     1      26.993   9.264  43.155  0.00  0.00    +0.000 A 
ATOM     25  N   UNL     1      25.842   9.686  43.858  0.00  0.00    +0.000 N 
ATOM     26  C   UNL     1      25.634  11.053  44.264  0.00  0.00    +0.000 C 
ATOM     27  C   UNL     1      24.262  11.561  43.884  0.00  0.00    +0.000 C 
ATOM     28  N   UNL     1      23.637  10.518  43.063  0.00  0.00    +0.000 NA
ATOM     29  C   UNL     1      23.483   9.363  43.927  0.00  0.00    +0.000 C 
ATOM     30  C   UNL     1      24.837   8.704  44.183  0.00  0.00    +0.000 C 
ENDBRANCH  18  19
ENDBRANCH  17  18
ENDBRANCH  16  17
ENDBRANCH   1  16
TORSDOF 8
ENDMDL
MODEL 10
REMARK VINA RESULT:      -7.3     22.778     26.436
REMARK  Name = 
REMARK  8 active torsions:
REMARK  status: ('A' for Active; 'I' for Inactive)
REMARK    1  A    between atoms: C_4  and  C_5
REMARK    2  A    between atoms: C_5  and  O_6
REMARK    3  A    between atoms: O_6  and  C_7
REMARK    4  A    between atoms: C_11  and  O_12
REMARK    5  A    between atoms: O_12  and  C_13
REMARK    6  A    between atoms: C_13  and  C_14
REMARK    7  A    between atoms: C_14  and  O_15
REMARK    8  A    between atoms: O_15  and  C_16
REMARK                            x       y       z     vdW  Elec       q    Type
REMARK                         _______ _______ _______ _____ _____    ______ ____
ROOT
ATOM      1  O   UNL     1      38.411   2.944  14.073  0.00  0.00    +0.000 OA
ENDROOT
BRANCH   1   6
ATOM      2  C   UNL     1      39.260   5.082  16.929  0.00  0.00    +0.000 A 
ATOM      3  C   UNL     1      40.247   5.911  16.397  0.00  0.00    +0.000 A 
ATOM      4  C   UNL     1      40.615   5.737  15.079  0.00  0.00    +0.000 A 
ATOM      5  C   UNL     1      40.023   4.759  14.279  0.00  0.00    +0.000 A 
ATOM      6  C   UNL     1      39.048   3.945  14.813  0.00  0.00    +0.000 A 
ATOM      7  C   UNL     1      38.683   4.123  16.131  0.00  0.00    +0.000 A 
BRANCH   2   8
ATOM      8  O   UNL     1      38.850   5.205  18.234  0.00  0.00    +0.000 OA
BRANCH   8   9
ATOM      9  C   UNL     1      39.602   5.979  19.143  0.00  0.00    +0.000 C 
BRANCH   9  13
ATOM     10  C   UNL     1      37.659   9.549  20.198  0.00  0.00    +0.000 A 
ATOM     11  C   UNL     1      37.229   8.865  19.101  0.00  0.00    +0.000 A 
ATOM     12  C   UNL     1      37.861   7.696  18.751  0.00  0.00    +0.000 A 
ATOM     13  C   UNL     1      38.914   7.235  19.511  0.00  0.00    +0.000 A 
ATOM     14  C   UNL     1      39.342   7.928  20.613  0.00  0.00    +0.000 A 
ATOM     15  C   UNL     1      38.708   9.089  20.953  0.00  0.00    +0.000 A 
ENDBRANCH   9  13
ENDBRANCH   8   9
ENDBRANCH   2   8
ENDBRANCH   1   6
BRANCH   1  16
ATOM     16  C   UNL     1      37.570   1.988  14.641  0.00  0.00    +0.000 C 
BRANCH  16  17
ATOM     17  C   UNL     1      38.147   0.585  14.546  0.00  0.00    +0.000 C 
BRANCH  17  18
ATOM     18  O   UNL     1      38.066   0.010  15.836  0.00  0.00    +0.000 OA
BRANCH  18  19
ATOM     19  C   UNL     1      38.486  -1.303  16.083  0.00  0.00    +0.000 A 
ATOM     20  N   UNL     1      39.598  -1.735  15.462  0.00  0.00    +0.000 NA
ATOM     21  C   UNL     1      40.019  -2.975  15.679  0.00  0.00    +0.000 A 
ATOM     22  C   UNL     1      39.328  -3.811  16.529  0.00  0.00    +0.000 A 
ATOM     23  N   UNL     1      38.235  -3.359  17.127  0.00  0.00    +0.000 NA
ATOM     24  C   UNL     1      37.775  -2.093  16.929  0.00  0.00    +0.000 A 
ATOM     25  N   UNL     1      36.606  -1.647  17.585  0.00  0.00    +0.000 N 
ATOM     26  C   UNL     1      36.599  -0.522  18.486  0.00  0.00    +0.000 C 
ATOM     27  C   UNL     1      35.492   0.458  18.171  0.00  0.00    +0.000 C 
ATOM     28  N   UNL     1      34.873   0.009  16.919  0.00  0.00    +0.000 NA
ATOM     29  C   UNL     1      34.283  -1.286  17.203  0.00  0.00    +0.000 C 
ATOM     30  C   UNL     1      35.370  -2.349  17.342  0.00  0.00    +0.000 C 
ENDBRANCH  18  19
ENDBRANCH  17  18
ENDBRANCH  16  17
ENDBRANCH   1  16
TORSDOF 8
ENDMDL
