MODEL 1
REMARK VINA RESULT:      -6.4      0.000      0.000
REMARK  Name = 
REMARK  3 active torsions:
REMARK  status: ('A' for Active; 'I' for Inactive)
REMARK    1  A    between atoms: C_2  and  N_3
REMARK    2  A    between atoms: C_7  and  C_8
REMARK    3  A    between atoms: N_17  and  C_18
REMARK                            x       y       z     vdW  Elec       q    Type
REMARK                         _______ _______ _______ _____ _____    ______ ____
ROOT
ATOM      1  N   UNL     1      33.502   1.355  34.455  0.00  0.00    +0.000 N 
ATOM      2  C   UNL     1      33.727   2.681  34.029  0.00  0.00    +0.000 C 
ATOM      3  O   UNL     1      33.588   3.018  32.827  0.00  0.00    +0.000 OA
ATOM      4  C   UNL     1      34.141   3.733  34.987  0.00  0.00    +0.000 C 
ATOM      5  C   UNL     1      34.323   4.922  34.541  0.00  0.00    +0.000 C 
ATOM      6  C   UNL     1      34.290   3.304  36.358  0.00  0.00    +0.000 C 
ATOM      7  O   UNL     1      34.637   4.146  37.228  0.00  0.00    +0.000 OA
ATOM      8  N   UNL     1      34.047   1.933  36.750  0.00  0.00    +0.000 N 
ATOM      9  C   UNL     1      33.654   0.951  35.808  0.00  0.00    +0.000 C 
ATOM     10  S   UNL     1      33.390  -0.582  36.292  0.00  0.00    +0.000 S 
ENDROOT
BRANCH   5  11
ATOM     11  C   UNL     1      34.714   6.152  35.159  0.00  0.00    +0.000 A 
ATOM     12  C   UNL     1      33.895   7.029  35.831  0.00  0.00    +0.000 A 
ATOM     13  C   UNL     1      34.371   8.195  36.390  0.00  0.00    +0.000 A 
ATOM     14  C   UNL     1      35.700   8.554  36.310  0.00  0.00    +0.000 A 
ATOM     15  O   UNL     1      36.134   9.737  36.887  0.00  0.00    +0.000 OA
ATOM     16  C   UNL     1      36.544   7.694  35.642  0.00  0.00    +0.000 A 
ATOM     17  C   UNL     1      36.066   6.532  35.085  0.00  0.00    +0.000 A 
ENDBRANCH   5  11
BRANCH   1  19
ATOM     18  C   UNL     1      34.319  -0.159  32.733  0.00  0.00    +0.000 C 
ATOM     19  C   UNL     1      33.093   0.336  33.477  0.00  0.00    +0.000 C 
ENDBRANCH   1  19
BRANCH   8  20
ATOM     20  C   UNL     1      34.212   1.553  38.139  0.00  0.00    +0.000 C 
ATOM     21  C   UNL     1      35.644   1.233  38.487  0.00  0.00    +0.000 C 
ENDBRANCH   8  20
TORSDOF 3
ENDMDL
MODEL 2
REMARK VINA RESULT:      -6.1     20.431     22.970
REMARK  Name = 
REMARK  3 active torsions:
REMARK  status: ('A' for Active; 'I' for Inactive)
REMARK    1  A    between atoms: C_2  and  N_3
REMARK    2  A    between atoms: C_7  and  C_8
REMARK    3  A    between atoms: N_17  and  C_18
REMARK                            x       y       z     vdW  Elec       q    Type
REMARK                         _______ _______ _______ _____ _____    ______ ____
ROOT
ATOM      1  N   UNL     1      27.532  23.279  29.260  0.00  0.00    +0.000 N 
ATOM      2  C   UNL     1      27.053  23.588  27.970  0.00  0.00    +0.000 C 
ATOM      3  O   UNL     1      25.823  23.691  27.733  0.00  0.00    +0.000 OA
ATOM      4  C   UNL     1      27.985  23.802  26.838  0.00  0.00    +0.000 C 
ATOM      5  C   UNL     1      27.489  24.088  25.689  0.00  0.00    +0.000 C 
ATOM      6  C   UNL     1      29.387  23.674  27.152  0.00  0.00    +0.000 C 
ATOM      7  O   UNL     1      30.238  23.845  26.239  0.00  0.00    +0.000 OA
ATOM      8  N   UNL     1      29.834  23.356  28.491  0.00  0.00    +0.000 N 
ATOM      9  C   UNL     1      28.916  23.157  29.551  0.00  0.00    +0.000 C 
ATOM     10  S   UNL     1      29.462  22.801  31.044  0.00  0.00    +0.000 S 
ENDROOT
BRANCH   5  11
ATOM     11  C   UNL     1      28.069  24.352  24.409  0.00  0.00    +0.000 A 
ATOM     12  C   UNL     1      28.589  25.549  23.975  0.00  0.00    +0.000 A 
ATOM     13  C   UNL     1      29.125  25.702  22.714  0.00  0.00    +0.000 A 
ATOM     14  C   UNL     1      29.173  24.662  21.810  0.00  0.00    +0.000 A 
ATOM     15  O   UNL     1      29.721  24.862  20.553  0.00  0.00    +0.000 OA
ATOM     16  C   UNL     1      28.659  23.450  22.218  0.00  0.00    +0.000 A 
ATOM     17  C   UNL     1      28.125  23.301  23.476  0.00  0.00    +0.000 A 
ENDBRANCH   5  11
BRANCH   1  19
ATOM     18  C   UNL     1      26.231  21.598  30.446  0.00  0.00    +0.000 C 
ATOM     19  C   UNL     1      26.578  23.072  30.360  0.00  0.00    +0.000 C 
ENDBRANCH   1  19
BRANCH   8  20
ATOM     20  C   UNL     1      31.255  23.238  28.756  0.00  0.00    +0.000 C 
ATOM     21  C   UNL     1      31.789  21.861  28.447  0.00  0.00    +0.000 C 
ENDBRANCH   8  20
TORSDOF 3
ENDMDL
MODEL 3
REMARK VINA RESULT:      -5.7     19.330     20.713
REMARK  Name = 
REMARK  3 active torsions:
REMARK  status: ('A' for Active; 'I' for Inactive)
REMARK    1  A    between atoms: C_2  and  N_3
REMARK    2  A    between atoms: C_7  and  C_8
REMARK    3  A    between atoms: N_17  and  C_18
REMARK                            x       y       z     vdW  Elec       q    Type
REMARK                         _______ _______ _______ _____ _____    ______ ____
ROOT
ATOM      1  N   UNL     1      22.906   1.577  17.694  0.00  0.00    +0.000 N 
ATOM      2  C   UNL     1      23.277   2.926  17.876  0.00  0.00    +0.000 C 
ATOM      3  O   UNL     1      22.488   3.763  18.381  0.00  0.00    +0.000 OA
ATOM      4  C   UNL     1      24.619   3.410  17.477  0.00  0.00    +0.000 C 
ATOM      5  C   UNL     1      24.902   4.646  17.675  0.00  0.00    +0.000 C 
ATOM      6  C   UNL     1      25.495   2.418  16.902  0.00  0.00    +0.000 C 
ATOM      7  O   UNL     1      26.653   2.758  16.541  0.00  0.00    +0.000 OA
ATOM      8  N   UNL     1      25.072   1.045  16.735  0.00  0.00    +0.000 N 
ATOM      9  C   UNL     1      23.780   0.614  17.127  0.00  0.00    +0.000 C 
ATOM     10  S   UNL     1      23.344  -0.942  16.921  0.00  0.00    +0.000 S 
ENDROOT
BRANCH   5  11
ATOM     11  C   UNL     1      26.065   5.440  17.420  0.00  0.00    +0.000 A 
ATOM     12  C   UNL     1      26.326   6.173  16.286  0.00  0.00    +0.000 A 
ATOM     13  C   UNL     1      27.484   6.905  16.137  0.00  0.00    +0.000 A 
ATOM     14  C   UNL     1      28.454   6.947  17.117  0.00  0.00    +0.000 A 
ATOM     15  O   UNL     1      29.602   7.696  16.923  0.00  0.00    +0.000 OA
ATOM     16  C   UNL     1      28.219   6.222  18.265  0.00  0.00    +0.000 A 
ATOM     17  C   UNL     1      27.062   5.492  18.411  0.00  0.00    +0.000 A 
ENDBRANCH   5  11
BRANCH   1  19
ATOM     18  C   UNL     1      20.580   1.437  16.990  0.00  0.00    +0.000 C 
ATOM     19  C   UNL     1      21.565   1.131  18.102  0.00  0.00    +0.000 C 
ENDBRANCH   1  19
BRANCH   8  20
ATOM     20  C   UNL     1      25.989   0.085  16.151  0.00  0.00    +0.000 C 
ATOM     21  C   UNL     1      26.941  -0.498  17.165  0.00  0.00    +0.000 C 
ENDBRANCH   8  20
TORSDOF 3
ENDMDL
MODEL 4
REMARK VINA RESULT:      -5.5     15.619     16.982
REMARK  Name = 
REMARK  3 active torsions:
REMARK  status: ('A' for Active; 'I' for Inactive)
REMARK    1  A    between atoms: C_2  and  N_3
REMARK    2  A    between atoms: C_7  and  C_8
REMARK    3  A    between atoms: N_17  and  C_18
REMARK                            x       y       z     vdW  Elec       q    Type
REMARK                         _______ _______ _______ _____ _____    ______ ____
ROOT
ATOM      1  N   UNL     1      20.370   8.403  40.393  0.00  0.00    +0.000 N 
ATOM      2  C   UNL     1      19.174   8.546  39.658  0.00  0.00    +0.000 C 
ATOM      3  O   UNL     1      18.078   8.113  40.095  0.00  0.00    +0.000 OA
ATOM      4  C   UNL     1      19.164   9.213  38.335  0.00  0.00    +0.000 C 
ATOM      5  C   UNL     1      18.044   9.319  37.718  0.00  0.00    +0.000 C 
ATOM      6  C   UNL     1      20.442   9.695  37.870  0.00  0.00    +0.000 C 
ATOM      7  O   UNL     1      20.509  10.275  36.754  0.00  0.00    +0.000 OA
ATOM      8  N   UNL     1      21.643   9.528  38.658  0.00  0.00    +0.000 N 
ATOM      9  C   UNL     1      21.619   8.884  39.920  0.00  0.00    +0.000 C 
ATOM     10  S   UNL     1      22.995   8.717  40.775  0.00  0.00    +0.000 S 
ENDROOT
BRANCH   5  11
ATOM     11  C   UNL     1      17.668   9.886  36.459  0.00  0.00    +0.000 A 
ATOM     12  C   UNL     1      17.772   9.287  35.226  0.00  0.00    +0.000 A 
ATOM     13  C   UNL     1      17.382   9.922  34.066  0.00  0.00    +0.000 A 
ATOM     14  C   UNL     1      16.863  11.200  34.073  0.00  0.00    +0.000 A 
ATOM     15  O   UNL     1      16.485  11.799  32.882  0.00  0.00    +0.000 OA
ATOM     16  C   UNL     1      16.747  11.825  35.295  0.00  0.00    +0.000 A 
ATOM     17  C   UNL     1      17.136  11.188  36.450  0.00  0.00    +0.000 A 
ENDBRANCH   5  11
BRANCH   1  19
ATOM     18  C   UNL     1      19.931   8.738  42.764  0.00  0.00    +0.000 C 
ATOM     19  C   UNL     1      20.343   7.735  41.703  0.00  0.00    +0.000 C 
ENDBRANCH   1  19
BRANCH   8  20
ATOM     20  C   UNL     1      22.904  10.029  38.146  0.00  0.00    +0.000 C 
ATOM     21  C   UNL     1      23.533   9.097  37.140  0.00  0.00    +0.000 C 
ENDBRANCH   8  20
TORSDOF 3
ENDMDL
MODEL 5
REMARK VINA RESULT:      -5.4     19.306     21.537
REMARK  Name = 
REMARK  3 active torsions:
REMARK  status: ('A' for Active; 'I' for Inactive)
REMARK    1  A    between atoms: C_2  and  N_3
REMARK    2  A    between atoms: C_7  and  C_8
REMARK    3  A    between atoms: N_17  and  C_18
REMARK                            x       y       z     vdW  Elec       q    Type
REMARK                         _______ _______ _______ _____ _____    ______ ____
ROOT
ATOM      1  N   UNL     1      28.758  22.893  24.929  0.00  0.00    +0.000 N 
ATOM      2  C   UNL     1      30.059  22.748  25.456  0.00  0.00    +0.000 C 
ATOM      3  O   UNL     1      31.064  22.649  24.708  0.00  0.00    +0.000 OA
ATOM      4  C   UNL     1      30.292  22.706  26.919  0.00  0.00    +0.000 C 
ATOM      5  C   UNL     1      31.499  22.580  27.338  0.00  0.00    +0.000 C 
ATOM      6  C   UNL     1      29.113  22.823  27.742  0.00  0.00    +0.000 C 
ATOM      7  O   UNL     1      29.235  22.797  28.995  0.00  0.00    +0.000 OA
ATOM      8  N   UNL     1      27.797  22.971  27.158  0.00  0.00    +0.000 N 
ATOM      9  C   UNL     1      27.609  23.007  25.755  0.00  0.00    +0.000 C 
ATOM     10  S   UNL     1      26.110  23.176  25.138  0.00  0.00    +0.000 S 
ENDROOT
BRANCH   5  11
ATOM     11  C   UNL     1      32.081  22.504  28.642  0.00  0.00    +0.000 A 
ATOM     12  C   UNL     1      32.347  21.360  29.356  0.00  0.00    +0.000 A 
ATOM     13  C   UNL     1      32.910  21.394  30.614  0.00  0.00    +0.000 A 
ATOM     14  C   UNL     1      33.242  22.581  31.234  0.00  0.00    +0.000 A 
ATOM     15  O   UNL     1      33.806  22.567  32.499  0.00  0.00    +0.000 OA
ATOM     16  C   UNL     1      32.986  23.745  30.541  0.00  0.00    +0.000 A 
ATOM     17  C   UNL     1      32.425  23.706  29.287  0.00  0.00    +0.000 A 
ENDBRANCH   5  11
BRANCH   1  19
ATOM     18  C   UNL     1      28.880  24.326  22.965  0.00  0.00    +0.000 C 
ATOM     19  C   UNL     1      28.564  22.931  23.472  0.00  0.00    +0.000 C 
ENDBRANCH   1  19
BRANCH   8  20
ATOM     20  C   UNL     1      26.643  23.084  28.028  0.00  0.00    +0.000 C 
ATOM     21  C   UNL     1      26.400  24.500  28.487  0.00  0.00    +0.000 C 
ENDBRANCH   8  20
TORSDOF 3
ENDMDL
MODEL 6
REMARK VINA RESULT:      -5.4     18.399     21.180
REMARK  Name = 
REMARK  3 active torsions:
REMARK  status: ('A' for Active; 'I' for Inactive)
REMARK    1  A    between atoms: C_2  and  N_3
REMARK    2  A    between atoms: C_7  and  C_8
REMARK    3  A    between atoms: N_17  and  C_18
REMARK                            x       y       z     vdW  Elec       q    Type
REMARK                         _______ _______ _______ _____ _____    ______ ____
ROOT
ATOM      1  N   UNL     1      31.871  21.748  30.708  0.00  0.00    +0.000 N 
ATOM      2  C   UNL     1      32.276  21.967  29.374  0.00  0.00    +0.000 C 
ATOM      3  O   UNL     1      33.429  21.663  28.979  0.00  0.00    +0.000 OA
ATOM      4  C   UNL     1      31.352  22.568  28.383  0.00  0.00    +0.000 C 
ATOM      5  C   UNL     1      31.775  22.735  27.184  0.00  0.00    +0.000 C 
ATOM      6  C   UNL     1      30.038  22.903  28.878  0.00  0.00    +0.000 C 
ATOM      7  O   UNL     1      29.199  23.415  28.091  0.00  0.00    +0.000 OA
ATOM      8  N   UNL     1      29.666  22.659  30.255  0.00  0.00    +0.000 N 
ATOM      9  C   UNL     1      30.574  22.084  31.177  0.00  0.00    +0.000 C 
ATOM     10  S   UNL     1      30.115  21.826  32.719  0.00  0.00    +0.000 S 
ENDROOT
BRANCH   5  11
ATOM     11  C   UNL     1      31.177  23.270  25.999  0.00  0.00    +0.000 A 
ATOM     12  C   UNL     1      31.293  24.559  25.532  0.00  0.00    +0.000 A 
ATOM     13  C   UNL     1      30.671  24.978  24.375  0.00  0.00    +0.000 A 
ATOM     14  C   UNL     1      29.895  24.128  23.614  0.00  0.00    +0.000 A 
ATOM     15  O   UNL     1      29.290  24.594  22.458  0.00  0.00    +0.000 OA
ATOM     16  C   UNL     1      29.762  22.831  24.058  0.00  0.00    +0.000 A 
ATOM     17  C   UNL     1      30.383  22.416  25.212  0.00  0.00    +0.000 A 
ENDBRANCH   5  11
BRANCH   1  19
ATOM     18  C   UNL     1      33.719  22.236  32.216  0.00  0.00    +0.000 C 
ATOM     19  C   UNL     1      32.814  21.150  31.665  0.00  0.00    +0.000 C 
ENDBRANCH   1  19
BRANCH   8  20
ATOM     20  C   UNL     1      28.334  23.014  30.704  0.00  0.00    +0.000 C 
ATOM     21  C   UNL     1      27.304  21.974  30.338  0.00  0.00    +0.000 C 
ENDBRANCH   8  20
TORSDOF 3
ENDMDL
MODEL 7
REMARK VINA RESULT:      -5.4     20.327     22.075
REMARK  Name = 
REMARK  3 active torsions:
REMARK  status: ('A' for Active; 'I' for Inactive)
REMARK    1  A    between atoms: C_2  and  N_3
REMARK    2  A    between atoms: C_7  and  C_8
REMARK    3  A    between atoms: N_17  and  C_18
REMARK                            x       y       z     vdW  Elec       q    Type
REMARK                         _______ _______ _______ _____ _____    ______ ____
ROOT
ATOM      1  N   UNL     1      22.053   2.182  16.833  0.00  0.00    +0.000 N 
ATOM      2  C   UNL     1      22.971   2.950  17.580  0.00  0.00    +0.000 C 
ATOM      3  O   UNL     1      22.888   3.040  18.830  0.00  0.00    +0.000 OA
ATOM      4  C   UNL     1      24.074   3.684  16.916  0.00  0.00    +0.000 C 
ATOM      5  C   UNL     1      24.882   4.359  17.649  0.00  0.00    +0.000 C 
ATOM      6  C   UNL     1      24.133   3.554  15.479  0.00  0.00    +0.000 C 
ATOM      7  O   UNL     1      25.046   4.149  14.848  0.00  0.00    +0.000 OA
ATOM      8  N   UNL     1      23.170   2.754  14.754  0.00  0.00    +0.000 N 
ATOM      9  C   UNL     1      22.127   2.065  15.420  0.00  0.00    +0.000 C 
ATOM     10  S   UNL     1      21.063   1.175  14.565  0.00  0.00    +0.000 S 
ENDROOT
BRANCH   5  11
ATOM     11  C   UNL     1      26.026   5.167  17.360  0.00  0.00    +0.000 A 
ATOM     12  C   UNL     1      26.028   6.509  17.059  0.00  0.00    +0.000 A 
ATOM     13  C   UNL     1      27.191   7.199  16.791  0.00  0.00    +0.000 A 
ATOM     14  C   UNL     1      28.426   6.584  16.810  0.00  0.00    +0.000 A 
ATOM     15  O   UNL     1      29.568   7.318  16.535  0.00  0.00    +0.000 OA
ATOM     16  C   UNL     1      28.454   5.240  17.110  0.00  0.00    +0.000 A 
ATOM     17  C   UNL     1      27.293   4.555  17.376  0.00  0.00    +0.000 A 
ENDBRANCH   5  11
BRANCH   1  19
ATOM     18  C   UNL     1      19.843   2.437  17.821  0.00  0.00    +0.000 C 
ATOM     19  C   UNL     1      20.971   1.466  17.525  0.00  0.00    +0.000 C 
ENDBRANCH   1  19
BRANCH   8  20
ATOM     20  C   UNL     1      23.272   2.656  13.311  0.00  0.00    +0.000 C 
ATOM     21  C   UNL     1      22.573   3.789  12.602  0.00  0.00    +0.000 C 
ENDBRANCH   8  20
TORSDOF 3
ENDMDL
MODEL 8
REMARK VINA RESULT:      -5.3     20.359     22.892
REMARK  Name = 
REMARK  3 active torsions:
REMARK  status: ('A' for Active; 'I' for Inactive)
REMARK    1  A    between atoms: C_2  and  N_3
REMARK    2  A    between atoms: C_7  and  C_8
REMARK    3  A    between atoms: N_17  and  C_18
REMARK                            x       y       z     vdW  Elec       q    Type
REMARK                         _______ _______ _______ _____ _____    ______ ____
ROOT
ATOM      1  N   UNL     1      22.418  20.887  38.649  0.00  0.00    +0.000 N 
ATOM      2  C   UNL     1      21.876  21.510  37.504  0.00  0.00    +0.000 C 
ATOM      3  O   UNL     1      22.562  22.281  36.789  0.00  0.00    +0.000 OA
ATOM      4  C   UNL     1      20.469  21.277  37.101  0.00  0.00    +0.000 C 
ATOM      5  C   UNL     1      20.036  21.866  36.046  0.00  0.00    +0.000 C 
ATOM      6  C   UNL     1      19.716  20.385  37.949  0.00  0.00    +0.000 C 
ATOM      7  O   UNL     1      18.514  20.140  37.665  0.00  0.00    +0.000 OA
ATOM      8  N   UNL     1      20.313  19.768  39.113  0.00  0.00    +0.000 N 
ATOM      9  C   UNL     1      21.661  20.012  39.472  0.00  0.00    +0.000 C 
ATOM     10  S   UNL     1      22.295  19.296  40.791  0.00  0.00    +0.000 S 
ENDROOT
BRANCH   5  11
ATOM     11  C   UNL     1      18.771  21.874  35.377  0.00  0.00    +0.000 A 
ATOM     12  C   UNL     1      17.684  22.657  35.689  0.00  0.00    +0.000 A 
ATOM     13  C   UNL     1      16.503  22.587  34.981  0.00  0.00    +0.000 A 
ATOM     14  C   UNL     1      16.341  21.727  33.914  0.00  0.00    +0.000 A 
ATOM     15  O   UNL     1      15.135  21.692  33.232  0.00  0.00    +0.000 OA
ATOM     16  C   UNL     1      17.414  20.932  33.579  0.00  0.00    +0.000 A 
ATOM     17  C   UNL     1      18.590  21.003  34.287  0.00  0.00    +0.000 A 
ENDBRANCH   5  11
BRANCH   1  19
ATOM     18  C   UNL     1      24.710  20.144  38.305  0.00  0.00    +0.000 C 
ATOM     19  C   UNL     1      23.818  21.140  39.021  0.00  0.00    +0.000 C 
ENDBRANCH   1  19
BRANCH   8  20
ATOM     20  C   UNL     1      19.514  18.880  39.934  0.00  0.00    +0.000 C 
ATOM     21  C   UNL     1      19.445  17.480  39.376  0.00  0.00    +0.000 C 
ENDBRANCH   8  20
TORSDOF 3
ENDMDL
MODEL 9
REMARK VINA RESULT:      -5.2     23.196     25.698
REMARK  Name = 
REMARK  3 active torsions:
REMARK  status: ('A' for Active; 'I' for Inactive)
REMARK    1  A    between atoms: C_2  and  N_3
REMARK    2  A    between atoms: C_7  and  C_8
REMARK    3  A    between atoms: N_17  and  C_18
REMARK                            x       y       z     vdW  Elec       q    Type
REMARK                         _______ _______ _______ _____ _____    ______ ____
ROOT
ATOM      1  N   UNL     1      27.395  25.537  23.878  0.00  0.00    +0.000 N 
ATOM      2  C   UNL     1      26.373  26.373  24.376  0.00  0.00    +0.000 C 
ATOM      3  O   UNL     1      26.150  27.505  23.879  0.00  0.00    +0.000 OA
ATOM      4  C   UNL     1      25.521  25.948  25.511  0.00  0.00    +0.000 C 
ATOM      5  C   UNL     1      24.603  26.748  25.914  0.00  0.00    +0.000 C 
ATOM      6  C   UNL     1      25.811  24.642  26.053  0.00  0.00    +0.000 C 
ATOM      7  O   UNL     1      25.125  24.213  27.018  0.00  0.00    +0.000 OA
ATOM      8  N   UNL     1      26.868  23.817  25.510  0.00  0.00    +0.000 N 
ATOM      9  C   UNL     1      27.666  24.255  24.424  0.00  0.00    +0.000 C 
ATOM     10  S   UNL     1      28.847  23.295  23.843  0.00  0.00    +0.000 S 
ENDROOT
BRANCH   5  11
ATOM     11  C   UNL     1      23.622  26.673  26.953  0.00  0.00    +0.000 A 
ATOM     12  C   UNL     1      23.819  26.934  28.288  0.00  0.00    +0.000 A 
ATOM     13  C   UNL     1      22.804  26.828  29.214  0.00  0.00    +0.000 A 
ATOM     14  C   UNL     1      21.525  26.453  28.856  0.00  0.00    +0.000 A 
ATOM     15  O   UNL     1      20.536  26.360  29.822  0.00  0.00    +0.000 OA
ATOM     16  C   UNL     1      21.299  26.185  27.524  0.00  0.00    +0.000 A 
ATOM     17  C   UNL     1      22.314  26.291  26.604  0.00  0.00    +0.000 A 
ENDBRANCH   5  11
BRANCH   1  19
ATOM     18  C   UNL     1      27.531  25.629  21.450  0.00  0.00    +0.000 C 
ATOM     19  C   UNL     1      28.222  25.992  22.751  0.00  0.00    +0.000 C 
ENDBRANCH   1  19
BRANCH   8  20
ATOM     20  C   UNL     1      27.121  22.513  26.090  0.00  0.00    +0.000 C 
ATOM     21  C   UNL     1      28.042  22.578  27.283  0.00  0.00    +0.000 C 
ENDBRANCH   8  20
TORSDOF 3
ENDMDL
MODEL 10
REMARK VINA RESULT:      -5.2     26.498     28.801
REMARK  Name = 
REMARK  3 active torsions:
REMARK  status: ('A' for Active; 'I' for Inactive)
REMARK    1  A    between atoms: C_2  and  N_3
REMARK    2  A    between atoms: C_7  and  C_8
REMARK    3  A    between atoms: N_17  and  C_18
REMARK                            x       y       z     vdW  Elec       q    Type
REMARK                         _______ _______ _______ _____ _____    ______ ____
ROOT
ATOM      1  N   UNL     1      28.381  25.331  22.324  0.00  0.00    +0.000 N 
ATOM      2  C   UNL     1      29.154  25.437  21.149  0.00  0.00    +0.000 C 
ATOM      3  O   UNL     1      29.749  24.444  20.661  0.00  0.00    +0.000 OA
ATOM      4  C   UNL     1      29.296  26.731  20.441  0.00  0.00    +0.000 C 
ATOM      5  C   UNL     1      30.007  26.764  19.373  0.00  0.00    +0.000 C 
ATOM      6  C   UNL     1      28.598  27.847  21.034  0.00  0.00    +0.000 C 
ATOM      7  O   UNL     1      28.672  28.977  20.485  0.00  0.00    +0.000 OA
ATOM      8  N   UNL     1      27.815  27.691  22.241  0.00  0.00    +0.000 N 
ATOM      9  C   UNL     1      27.700  26.439  22.893  0.00  0.00    +0.000 C 
ATOM     10  S   UNL     1      26.808  26.307  24.250  0.00  0.00    +0.000 S 
ENDROOT
BRANCH   5  11
ATOM     11  C   UNL     1      30.354  27.807  18.458  0.00  0.00    +0.000 A 
ATOM     12  C   UNL     1      31.433  28.654  18.551  0.00  0.00    +0.000 A 
ATOM     13  C   UNL     1      31.680  29.634  17.614  0.00  0.00    +0.000 A 
ATOM     14  C   UNL     1      30.858  29.824  16.523  0.00  0.00    +0.000 A 
ATOM     15  O   UNL     1      31.145  30.822  15.606  0.00  0.00    +0.000 OA
ATOM     16  C   UNL     1      29.768  28.989  16.403  0.00  0.00    +0.000 A 
ATOM     17  C   UNL     1      29.526  28.013  17.340  0.00  0.00    +0.000 A 
ENDBRANCH   5  11
BRANCH   1  19
ATOM     18  C   UNL     1      29.512  23.782  23.823  0.00  0.00    +0.000 C 
ATOM     19  C   UNL     1      28.262  24.030  23.001  0.00  0.00    +0.000 C 
ENDBRANCH   1  19
BRANCH   8  20
ATOM     20  C   UNL     1      27.132  28.842  22.797  0.00  0.00    +0.000 C 
ATOM     21  C   UNL     1      25.791  29.089  22.152  0.00  0.00    +0.000 C 
ENDBRANCH   8  20
TORSDOF 3
ENDMDL
