MODEL 1
REMARK VINA RESULT:      -8.0      0.000      0.000
REMARK  Name = 
REMARK  6 active torsions:
REMARK  status: ('A' for Active; 'I' for Inactive)
REMARK    1  A    between atoms: C_3  and  C_4
REMARK    2  A    between atoms: C_11  and  C_12
REMARK    3  A    between atoms: C_15  and  O_16
REMARK    4  A    between atoms: O_16  and  C_17
REMARK    5  A    between atoms: C_17  and  C_18
REMARK    6  A    between atoms: C_18  and  N_19
REMARK                            x       y       z     vdW  Elec       q    Type
REMARK                         _______ _______ _______ _____ _____    ______ ____
ROOT
ATOM      1  C   UNL     1      39.316  -2.411  16.379  0.00  0.00    +0.000 C 
ATOM      2  C   UNL     1      39.144  -1.749  15.038  0.00  0.00    +0.000 C 
ATOM      3  C   UNL     1      38.042  -1.363  14.655  0.00  0.00    +0.000 C 
ATOM      4  C   UNL     1      37.670  -0.652  13.282  0.00  0.00    +0.000 C 
ATOM      5  O   UNL     1      38.992  -0.528  12.553  0.00  0.00    +0.000 OA
ATOM      6  C   UNL     1      40.156  -0.943  12.968  0.00  0.00    +0.000 A 
ATOM      7  C   UNL     1      41.275  -0.770  12.175  0.00  0.00    +0.000 A 
ATOM      8  C   UNL     1      42.510  -1.187  12.570  0.00  0.00    +0.000 A 
ATOM      9  C   UNL     1      42.667  -1.800  13.785  0.00  0.00    +0.000 A 
ATOM     10  O   UNL     1      43.940  -2.238  14.205  0.00  0.00    +0.000 OA
ATOM     11  C   UNL     1      41.558  -1.976  14.579  0.00  0.00    +0.000 A 
ATOM     12  C   UNL     1      40.269  -1.539  14.165  0.00  0.00    +0.000 A 
ENDROOT
BRANCH   3  13
ATOM     13  C   UNL     1      36.808  -1.503  15.451  0.00  0.00    +0.000 A 
ATOM     14  C   UNL     1      36.483  -0.645  16.482  0.00  0.00    +0.000 A 
ATOM     15  C   UNL     1      35.342  -0.776  17.233  0.00  0.00    +0.000 A 
ATOM     16  C   UNL     1      34.457  -1.799  16.973  0.00  0.00    +0.000 A 
ATOM     17  O   UNL     1      33.314  -1.896  17.754  0.00  0.00    +0.000 OA
ATOM     18  C   UNL     1      34.765  -2.665  15.946  0.00  0.00    +0.000 A 
ATOM     19  C   UNL     1      35.906  -2.528  15.202  0.00  0.00    +0.000 A 
ENDBRANCH   3  13
BRANCH   4  20
ATOM     20  C   UNL     1      37.514   0.827  13.837  0.00  0.00    +0.000 A 
ATOM     21  C   UNL     1      36.310   1.459  13.748  0.00  0.00    +0.000 A 
ATOM     22  C   UNL     1      36.167   2.766  14.248  0.00  0.00    +0.000 A 
ATOM     23  C   UNL     1      37.220   3.432  14.829  0.00  0.00    +0.000 A 
ATOM     24  C   UNL     1      38.425   2.777  14.908  0.00  0.00    +0.000 A 
ATOM     25  C   UNL     1      38.563   1.466  14.406  0.00  0.00    +0.000 A 
BRANCH  23  26
ATOM     26  O   UNL     1      37.058   4.731  15.319  0.00  0.00    +0.000 OA
BRANCH  26  27
ATOM     27  C   UNL     1      38.116   5.633  15.229  0.00  0.00    +0.000 C 
BRANCH  27  28
ATOM     28  C   UNL     1      38.261   6.222  16.641  0.00  0.00    +0.000 C 
BRANCH  28  29
ATOM     29  N   UNL     1      39.543   6.946  16.701  0.00  0.00    +0.000 NA
ATOM     30  C   UNL     1      40.419   6.077  17.477  0.00  0.00    +0.000 C 
ATOM     31  C   UNL     1      39.607   5.518  18.617  0.00  0.00    +0.000 C 
ATOM     32  C   UNL     1      39.166   6.674  19.506  0.00  0.00    +0.000 C 
ATOM     33  C   UNL     1      38.451   7.721  18.680  0.00  0.00    +0.000 C 
ATOM     34  C   UNL     1      39.302   8.143  17.478  0.00  0.00    +0.000 C 
ENDBRANCH  28  29
ENDBRANCH  27  28
ENDBRANCH  26  27
ENDBRANCH  23  26
ENDBRANCH   4  20
TORSDOF 6
ENDMDL
MODEL 2
REMARK VINA RESULT:      -7.7      4.416      8.041
REMARK  Name = 
REMARK  6 active torsions:
REMARK  status: ('A' for Active; 'I' for Inactive)
REMARK    1  A    between atoms: C_3  and  C_4
REMARK    2  A    between atoms: C_11  and  C_12
REMARK    3  A    between atoms: C_15  and  O_16
REMARK    4  A    between atoms: O_16  and  C_17
REMARK    5  A    between atoms: C_17  and  C_18
REMARK    6  A    between atoms: C_18  and  N_19
REMARK                            x       y       z     vdW  Elec       q    Type
REMARK                         _______ _______ _______ _____ _____    ______ ____
ROOT
ATOM      1  C   UNL     1      37.475  -3.301  14.873  0.00  0.00    +0.000 C 
ATOM      2  C   UNL     1      37.628  -1.812  15.035  0.00  0.00    +0.000 C 
ATOM      3  C   UNL     1      38.581  -1.213  14.544  0.00  0.00    +0.000 C 
ATOM      4  C   UNL     1      38.909   0.342  14.612  0.00  0.00    +0.000 C 
ATOM      5  O   UNL     1      37.759   0.933  15.401  0.00  0.00    +0.000 OA
ATOM      6  C   UNL     1      36.751   0.288  15.919  0.00  0.00    +0.000 A 
ATOM      7  C   UNL     1      35.784   0.972  16.630  0.00  0.00    +0.000 A 
ATOM      8  C   UNL     1      34.715   0.338  17.188  0.00  0.00    +0.000 A 
ATOM      9  C   UNL     1      34.580  -1.019  17.051  0.00  0.00    +0.000 A 
ATOM     10  O   UNL     1      33.479  -1.688  17.624  0.00  0.00    +0.000 OA
ATOM     11  C   UNL     1      35.539  -1.706  16.346  0.00  0.00    +0.000 A 
ATOM     12  C   UNL     1      36.655  -1.041  15.763  0.00  0.00    +0.000 A 
ENDROOT
BRANCH   3  13
ATOM     13  C   UNL     1      39.645  -1.874  13.764  0.00  0.00    +0.000 A 
ATOM     14  C   UNL     1      40.931  -2.033  14.239  0.00  0.00    +0.000 A 
ATOM     15  C   UNL     1      41.928  -2.636  13.516  0.00  0.00    +0.000 A 
ATOM     16  C   UNL     1      41.668  -3.120  12.251  0.00  0.00    +0.000 A 
ATOM     17  O   UNL     1      42.703  -3.725  11.552  0.00  0.00    +0.000 OA
ATOM     18  C   UNL     1      40.389  -2.970  11.761  0.00  0.00    +0.000 A 
ATOM     19  C   UNL     1      39.400  -2.366  12.489  0.00  0.00    +0.000 A 
ENDBRANCH   3  13
BRANCH   4  20
ATOM     20  C   UNL     1      38.465   0.723  13.137  0.00  0.00    +0.000 A 
ATOM     21  C   UNL     1      39.368   1.281  12.282  0.00  0.00    +0.000 A 
ATOM     22  C   UNL     1      38.980   1.611  10.970  0.00  0.00    +0.000 A 
ATOM     23  C   UNL     1      37.700   1.386  10.522  0.00  0.00    +0.000 A 
ATOM     24  C   UNL     1      36.805   0.823  11.401  0.00  0.00    +0.000 A 
ATOM     25  C   UNL     1      37.200   0.493  12.715  0.00  0.00    +0.000 A 
BRANCH  23  26
ATOM     26  O   UNL     1      37.333   1.722   9.217  0.00  0.00    +0.000 OA
BRANCH  26  27
ATOM     27  C   UNL     1      36.746   2.961   8.968  0.00  0.00    +0.000 C 
BRANCH  27  28
ATOM     28  C   UNL     1      36.173   2.854   7.546  0.00  0.00    +0.000 C 
BRANCH  28  29
ATOM     29  N   UNL     1      37.241   3.223   6.599  0.00  0.00    +0.000 NA
ATOM     30  C   UNL     1      36.714   4.379   5.885  0.00  0.00    +0.000 C 
ATOM     31  C   UNL     1      35.261   4.108   5.595  0.00  0.00    +0.000 C 
ATOM     32  C   UNL     1      35.171   2.895   4.678  0.00  0.00    +0.000 C 
ATOM     33  C   UNL     1      35.917   1.728   5.287  0.00  0.00    +0.000 C 
ATOM     34  C   UNL     1      37.349   2.129   5.657  0.00  0.00    +0.000 C 
ENDBRANCH  28  29
ENDBRANCH  27  28
ENDBRANCH  26  27
ENDBRANCH  23  26
ENDBRANCH   4  20
TORSDOF 6
ENDMDL
MODEL 3
REMARK VINA RESULT:      -7.7      2.406      3.635
REMARK  Name = 
REMARK  6 active torsions:
REMARK  status: ('A' for Active; 'I' for Inactive)
REMARK    1  A    between atoms: C_3  and  C_4
REMARK    2  A    between atoms: C_11  and  C_12
REMARK    3  A    between atoms: C_15  and  O_16
REMARK    4  A    between atoms: O_16  and  C_17
REMARK    5  A    between atoms: C_17  and  C_18
REMARK    6  A    between atoms: C_18  and  N_19
REMARK                            x       y       z     vdW  Elec       q    Type
REMARK                         _______ _______ _______ _____ _____    ______ ____
ROOT
ATOM      1  C   UNL     1      40.392  -1.351  12.253  0.00  0.00    +0.000 C 
ATOM      2  C   UNL     1      39.055  -0.666  12.149  0.00  0.00    +0.000 C 
ATOM      3  C   UNL     1      38.181  -0.847  12.991  0.00  0.00    +0.000 C 
ATOM      4  C   UNL     1      36.720  -0.218  13.046  0.00  0.00    +0.000 C 
ATOM      5  O   UNL     1      36.655   0.684  11.831  0.00  0.00    +0.000 OA
ATOM      6  C   UNL     1      37.590   0.868  10.941  0.00  0.00    +0.000 A 
ATOM      7  C   UNL     1      37.371   1.717   9.873  0.00  0.00    +0.000 A 
ATOM      8  C   UNL     1      38.320   1.938   8.921  0.00  0.00    +0.000 A 
ATOM      9  C   UNL     1      39.533   1.307   9.008  0.00  0.00    +0.000 A 
ATOM     10  O   UNL     1      40.524   1.526   8.029  0.00  0.00    +0.000 OA
ATOM     11  C   UNL     1      39.757   0.460  10.068  0.00  0.00    +0.000 A 
ATOM     12  C   UNL     1      38.765   0.231  11.061  0.00  0.00    +0.000 A 
ENDROOT
BRANCH   3  13
ATOM     13  C   UNL     1      38.346  -1.728  14.162  0.00  0.00    +0.000 A 
ATOM     14  C   UNL     1      37.600  -2.875  14.346  0.00  0.00    +0.000 A 
ATOM     15  C   UNL     1      37.741  -3.694  15.437  0.00  0.00    +0.000 A 
ATOM     16  C   UNL     1      38.661  -3.388  16.416  0.00  0.00    +0.000 A 
ATOM     17  O   UNL     1      38.774  -4.242  17.504  0.00  0.00    +0.000 OA
ATOM     18  C   UNL     1      39.416  -2.247  16.250  0.00  0.00    +0.000 A 
ATOM     19  C   UNL     1      39.269  -1.435  15.158  0.00  0.00    +0.000 A 
ENDBRANCH   3  13
BRANCH   4  20
ATOM     20  C   UNL     1      36.987   0.857  14.182  0.00  0.00    +0.000 A 
ATOM     21  C   UNL     1      36.237   0.840  15.319  0.00  0.00    +0.000 A 
ATOM     22  C   UNL     1      36.477   1.786  16.332  0.00  0.00    +0.000 A 
ATOM     23  C   UNL     1      37.460   2.739  16.205  0.00  0.00    +0.000 A 
ATOM     24  C   UNL     1      38.205   2.739  15.050  0.00  0.00    +0.000 A 
ATOM     25  C   UNL     1      37.960   1.788  14.038  0.00  0.00    +0.000 A 
BRANCH  23  26
ATOM     26  O   UNL     1      37.683   3.672  17.222  0.00  0.00    +0.000 OA
BRANCH  26  27
ATOM     27  C   UNL     1      38.140   4.946  16.894  0.00  0.00    +0.000 C 
BRANCH  27  28
ATOM     28  C   UNL     1      39.097   5.334  18.032  0.00  0.00    +0.000 C 
BRANCH  28  29
ATOM     29  N   UNL     1      38.980   6.788  18.247  0.00  0.00    +0.000 NA
ATOM     30  C   UNL     1      40.020   7.368  17.408  0.00  0.00    +0.000 C 
ATOM     31  C   UNL     1      41.245   6.500  17.540  0.00  0.00    +0.000 C 
ATOM     32  C   UNL     1      41.713   6.546  18.989  0.00  0.00    +0.000 C 
ATOM     33  C   UNL     1      40.576   6.173  19.915  0.00  0.00    +0.000 C 
ATOM     34  C   UNL     1      39.337   7.027  19.629  0.00  0.00    +0.000 C 
ENDBRANCH  28  29
ENDBRANCH  27  28
ENDBRANCH  26  27
ENDBRANCH  23  26
ENDBRANCH   4  20
TORSDOF 6
ENDMDL
MODEL 4
REMARK VINA RESULT:      -7.6      5.493      9.257
REMARK  Name = 
REMARK  6 active torsions:
REMARK  status: ('A' for Active; 'I' for Inactive)
REMARK    1  A    between atoms: C_3  and  C_4
REMARK    2  A    between atoms: C_11  and  C_12
REMARK    3  A    between atoms: C_15  and  O_16
REMARK    4  A    between atoms: O_16  and  C_17
REMARK    5  A    between atoms: C_17  and  C_18
REMARK    6  A    between atoms: C_18  and  N_19
REMARK                            x       y       z     vdW  Elec       q    Type
REMARK                         _______ _______ _______ _____ _____    ______ ____
ROOT
ATOM      1  C   UNL     1      42.503   6.552  16.885  0.00  0.00    +0.000 C 
ATOM      2  C   UNL     1      41.134   6.230  17.422  0.00  0.00    +0.000 C 
ATOM      3  C   UNL     1      40.849   6.432  18.599  0.00  0.00    +0.000 C 
ATOM      4  C   UNL     1      39.469   6.155  19.339  0.00  0.00    +0.000 C 
ATOM      5  O   UNL     1      38.565   5.607  18.254  0.00  0.00    +0.000 OA
ATOM      6  C   UNL     1      38.878   5.395  17.007  0.00  0.00    +0.000 A 
ATOM      7  C   UNL     1      37.941   4.871  16.137  0.00  0.00    +0.000 A 
ATOM      8  C   UNL     1      38.226   4.635  14.827  0.00  0.00    +0.000 A 
ATOM      9  C   UNL     1      39.475   4.916  14.338  0.00  0.00    +0.000 A 
ATOM     10  O   UNL     1      39.784   4.675  12.984  0.00  0.00    +0.000 OA
ATOM     11  C   UNL     1      40.413   5.437  15.199  0.00  0.00    +0.000 A 
ATOM     12  C   UNL     1      40.113   5.684  16.568  0.00  0.00    +0.000 A 
ENDROOT
BRANCH   3  13
ATOM     13  C   UNL     1      41.792   6.998  19.581  0.00  0.00    +0.000 A 
ATOM     14  C   UNL     1      42.199   8.317  19.552  0.00  0.00    +0.000 A 
ATOM     15  C   UNL     1      43.085   8.847  20.456  0.00  0.00    +0.000 A 
ATOM     16  C   UNL     1      43.613   8.056  21.453  0.00  0.00    +0.000 A 
ATOM     17  O   UNL     1      44.504   8.630  22.348  0.00  0.00    +0.000 OA
ATOM     18  C   UNL     1      43.217   6.736  21.497  0.00  0.00    +0.000 A 
ATOM     19  C   UNL     1      42.333   6.215  20.591  0.00  0.00    +0.000 A 
ENDBRANCH   3  13
BRANCH   4  20
ATOM     20  C   UNL     1      38.951   7.654  19.406  0.00  0.00    +0.000 A 
ATOM     21  C   UNL     1      38.835   8.381  18.260  0.00  0.00    +0.000 A 
ATOM     22  C   UNL     1      38.368   9.707  18.315  0.00  0.00    +0.000 A 
ATOM     23  C   UNL     1      38.022  10.297  19.508  0.00  0.00    +0.000 A 
ATOM     24  C   UNL     1      38.147   9.546  20.652  0.00  0.00    +0.000 A 
ATOM     25  C   UNL     1      38.616   8.217  20.591  0.00  0.00    +0.000 A 
BRANCH  23  26
ATOM     26  O   UNL     1      37.561  11.616  19.543  0.00  0.00    +0.000 OA
BRANCH  26  27
ATOM     27  C   UNL     1      37.198  12.246  18.354  0.00  0.00    +0.000 C 
BRANCH  27  28
ATOM     28  C   UNL     1      35.765  11.769  18.070  0.00  0.00    +0.000 C 
BRANCH  28  29
ATOM     29  N   UNL     1      35.449  12.094  16.667  0.00  0.00    +0.000 NA
ATOM     30  C   UNL     1      34.012  12.338  16.662  0.00  0.00    +0.000 C 
ATOM     31  C   UNL     1      33.373  11.299  17.547  0.00  0.00    +0.000 C 
ATOM     32  C   UNL     1      33.630   9.926  16.940  0.00  0.00    +0.000 C 
ATOM     33  C   UNL     1      35.113   9.729  16.709  0.00  0.00    +0.000 C 
ATOM     34  C   UNL     1      35.698  10.891  15.902  0.00  0.00    +0.000 C 
ENDBRANCH  28  29
ENDBRANCH  27  28
ENDBRANCH  26  27
ENDBRANCH  23  26
ENDBRANCH   4  20
TORSDOF 6
ENDMDL
MODEL 5
REMARK VINA RESULT:      -7.5      5.667      9.381
REMARK  Name = 
REMARK  6 active torsions:
REMARK  status: ('A' for Active; 'I' for Inactive)
REMARK    1  A    between atoms: C_3  and  C_4
REMARK    2  A    between atoms: C_11  and  C_12
REMARK    3  A    between atoms: C_15  and  O_16
REMARK    4  A    between atoms: O_16  and  C_17
REMARK    5  A    between atoms: C_17  and  C_18
REMARK    6  A    between atoms: C_18  and  N_19
REMARK                            x       y       z     vdW  Elec       q    Type
REMARK                         _______ _______ _______ _____ _____    ______ ____
ROOT
ATOM      1  C   UNL     1      42.584   6.614  16.924  0.00  0.00    +0.000 C 
ATOM      2  C   UNL     1      41.213   6.276  17.445  0.00  0.00    +0.000 C 
ATOM      3  C   UNL     1      40.931   6.414  18.632  0.00  0.00    +0.000 C 
ATOM      4  C   UNL     1      39.550   6.110  19.359  0.00  0.00    +0.000 C 
ATOM      5  O   UNL     1      38.638   5.632  18.248  0.00  0.00    +0.000 OA
ATOM      6  C   UNL     1      38.948   5.487  16.990  0.00  0.00    +0.000 A 
ATOM      7  C   UNL     1      38.004   5.021  16.094  0.00  0.00    +0.000 A 
ATOM      8  C   UNL     1      38.284   4.856  14.772  0.00  0.00    +0.000 A 
ATOM      9  C   UNL     1      39.535   5.152  14.297  0.00  0.00    +0.000 A 
ATOM     10  O   UNL     1      39.839   4.984  12.931  0.00  0.00    +0.000 OA
ATOM     11  C   UNL     1      40.479   5.615  15.183  0.00  0.00    +0.000 A 
ATOM     12  C   UNL     1      40.184   5.788  16.564  0.00  0.00    +0.000 A 
ENDROOT
BRANCH   3  13
ATOM     13  C   UNL     1      41.882   6.916  19.643  0.00  0.00    +0.000 A 
ATOM     14  C   UNL     1      42.376   8.205  19.629  0.00  0.00    +0.000 A 
ATOM     15  C   UNL     1      43.268   8.674  20.559  0.00  0.00    +0.000 A 
ATOM     16  C   UNL     1      43.714   7.848  21.568  0.00  0.00    +0.000 A 
ATOM     17  O   UNL     1      44.616   8.361  22.489  0.00  0.00    +0.000 OA
ATOM     18  C   UNL     1      43.232   6.558  21.597  0.00  0.00    +0.000 A 
ATOM     19  C   UNL     1      42.341   6.097  20.665  0.00  0.00    +0.000 A 
ENDBRANCH   3  13
BRANCH   4  20
ATOM     20  C   UNL     1      39.047   7.608  19.511  0.00  0.00    +0.000 A 
ATOM     21  C   UNL     1      38.797   8.114  20.751  0.00  0.00    +0.000 A 
ATOM     22  C   UNL     1      38.361   9.445  20.890  0.00  0.00    +0.000 A 
ATOM     23  C   UNL     1      38.177  10.258  19.796  0.00  0.00    +0.000 A 
ATOM     24  C   UNL     1      38.435   9.726  18.555  0.00  0.00    +0.000 A 
ATOM     25  C   UNL     1      38.873   8.392  18.422  0.00  0.00    +0.000 A 
BRANCH  23  26
ATOM     26  O   UNL     1      37.742  11.576  19.954  0.00  0.00    +0.000 OA
BRANCH  26  27
ATOM     27  C   UNL     1      38.485  12.614  19.393  0.00  0.00    +0.000 C 
BRANCH  27  28
ATOM     28  C   UNL     1      39.525  12.984  20.461  0.00  0.00    +0.000 C 
BRANCH  28  29
ATOM     29  N   UNL     1      40.818  13.188  19.783  0.00  0.00    +0.000 NA
ATOM     30  C   UNL     1      41.556  11.954  20.020  0.00  0.00    +0.000 C 
ATOM     31  C   UNL     1      41.306  11.545  21.448  0.00  0.00    +0.000 C 
ATOM     32  C   UNL     1      41.866  12.625  22.364  0.00  0.00    +0.000 C 
ATOM     33  C   UNL     1      41.293  13.974  21.988  0.00  0.00    +0.000 C 
ATOM     34  C   UNL     1      41.490  14.253  20.495  0.00  0.00    +0.000 C 
ENDBRANCH  28  29
ENDBRANCH  27  28
ENDBRANCH  26  27
ENDBRANCH  23  26
ENDBRANCH   4  20
TORSDOF 6
ENDMDL
MODEL 6
REMARK VINA RESULT:      -7.4      5.880      9.733
REMARK  Name = 
REMARK  6 active torsions:
REMARK  status: ('A' for Active; 'I' for Inactive)
REMARK    1  A    between atoms: C_3  and  C_4
REMARK    2  A    between atoms: C_11  and  C_12
REMARK    3  A    between atoms: C_15  and  O_16
REMARK    4  A    between atoms: O_16  and  C_17
REMARK    5  A    between atoms: C_17  and  C_18
REMARK    6  A    between atoms: C_18  and  N_19
REMARK                            x       y       z     vdW  Elec       q    Type
REMARK                         _______ _______ _______ _____ _____    ______ ____
ROOT
ATOM      1  C   UNL     1      42.815   6.715  17.102  0.00  0.00    +0.000 C 
ATOM      2  C   UNL     1      41.424   6.355  17.551  0.00  0.00    +0.000 C 
ATOM      3  C   UNL     1      41.090   6.453  18.728  0.00  0.00    +0.000 C 
ATOM      4  C   UNL     1      39.679   6.119  19.382  0.00  0.00    +0.000 C 
ATOM      5  O   UNL     1      38.820   5.677  18.216  0.00  0.00    +0.000 OA
ATOM      6  C   UNL     1      39.185   5.575  16.969  0.00  0.00    +0.000 A 
ATOM      7  C   UNL     1      38.283   5.138  16.017  0.00  0.00    +0.000 A 
ATOM      8  C   UNL     1      38.623   5.018  14.704  0.00  0.00    +0.000 A 
ATOM      9  C   UNL     1      39.892   5.334  14.295  0.00  0.00    +0.000 A 
ATOM     10  O   UNL     1      40.256   5.213  12.939  0.00  0.00    +0.000 OA
ATOM     11  C   UNL     1      40.794   5.769  15.237  0.00  0.00    +0.000 A 
ATOM     12  C   UNL     1      40.437   5.894  16.609  0.00  0.00    +0.000 A 
ENDROOT
BRANCH   3  13
ATOM     13  C   UNL     1      41.993   6.922  19.796  0.00  0.00    +0.000 A 
ATOM     14  C   UNL     1      42.388   8.239  19.915  0.00  0.00    +0.000 A 
ATOM     15  C   UNL     1      43.236   8.681  20.898  0.00  0.00    +0.000 A 
ATOM     16  C   UNL     1      43.736   7.796  21.828  0.00  0.00    +0.000 A 
ATOM     17  O   UNL     1      44.590   8.282  22.808  0.00  0.00    +0.000 OA
ATOM     18  C   UNL     1      43.353   6.476  21.725  0.00  0.00    +0.000 A 
ATOM     19  C   UNL     1      42.506   6.043  20.740  0.00  0.00    +0.000 A 
ENDBRANCH   3  13
BRANCH   4  20
ATOM     20  C   UNL     1      39.164   7.610  19.563  0.00  0.00    +0.000 A 
ATOM     21  C   UNL     1      39.006   8.408  18.469  0.00  0.00    +0.000 A 
ATOM     22  C   UNL     1      38.540   9.726  18.625  0.00  0.00    +0.000 A 
ATOM     23  C   UNL     1      38.237  10.238  19.864  0.00  0.00    +0.000 A 
ATOM     24  C   UNL     1      38.404   9.417  20.953  0.00  0.00    +0.000 A 
ATOM     25  C   UNL     1      38.870   8.096  20.791  0.00  0.00    +0.000 A 
BRANCH  23  26
ATOM     26  O   UNL     1      37.777  11.551  19.999  0.00  0.00    +0.000 OA
BRANCH  26  27
ATOM     27  C   UNL     1      38.692  12.577  20.225  0.00  0.00    +0.000 C 
BRANCH  27  28
ATOM     28  C   UNL     1      38.587  12.882  21.727  0.00  0.00    +0.000 C 
BRANCH  28  29
ATOM     29  N   UNL     1      38.448  14.341  21.886  0.00  0.00    +0.000 NA
ATOM     30  C   UNL     1      39.752  14.785  22.360  0.00  0.00    +0.000 C 
ATOM     31  C   UNL     1      40.232  13.777  23.373  0.00  0.00    +0.000 C 
ATOM     32  C   UNL     1      39.265  13.780  24.550  0.00  0.00    +0.000 C 
ATOM     33  C   UNL     1      37.850  13.554  24.061  0.00  0.00    +0.000 C 
ATOM     34  C   UNL     1      37.492  14.548  22.952  0.00  0.00    +0.000 C 
ENDBRANCH  28  29
ENDBRANCH  27  28
ENDBRANCH  26  27
ENDBRANCH  23  26
ENDBRANCH   4  20
TORSDOF 6
ENDMDL
MODEL 7
REMARK VINA RESULT:      -7.3      3.128      7.970
REMARK  Name = 
REMARK  6 active torsions:
REMARK  status: ('A' for Active; 'I' for Inactive)
REMARK    1  A    between atoms: C_3  and  C_4
REMARK    2  A    between atoms: C_11  and  C_12
REMARK    3  A    between atoms: C_15  and  O_16
REMARK    4  A    between atoms: O_16  and  C_17
REMARK    5  A    between atoms: C_17  and  C_18
REMARK    6  A    between atoms: C_18  and  N_19
REMARK                            x       y       z     vdW  Elec       q    Type
REMARK                         _______ _______ _______ _____ _____    ______ ____
ROOT
ATOM      1  C   UNL     1      39.845   6.081  13.582  0.00  0.00    +0.000 C 
ATOM      2  C   UNL     1      38.896   5.308  14.458  0.00  0.00    +0.000 C 
ATOM      3  C   UNL     1      37.965   4.668  13.977  0.00  0.00    +0.000 C 
ATOM      4  C   UNL     1      36.869   3.801  14.738  0.00  0.00    +0.000 C 
ATOM      5  O   UNL     1      37.248   3.917  16.200  0.00  0.00    +0.000 OA
ATOM      6  C   UNL     1      38.238   4.602  16.700  0.00  0.00    +0.000 A 
ATOM      7  C   UNL     1      38.444   4.622  18.066  0.00  0.00    +0.000 A 
ATOM      8  C   UNL     1      39.466   5.323  18.631  0.00  0.00    +0.000 A 
ATOM      9  C   UNL     1      40.325   6.036  17.836  0.00  0.00    +0.000 A 
ATOM     10  O   UNL     1      41.386   6.768  18.408  0.00  0.00    +0.000 OA
ATOM     11  C   UNL     1      40.125   6.021  16.476  0.00  0.00    +0.000 A 
ATOM     12  C   UNL     1      39.056   5.288  15.888  0.00  0.00    +0.000 A 
ENDROOT
BRANCH   3  13
ATOM     13  C   UNL     1      37.690   4.591  12.530  0.00  0.00    +0.000 A 
ATOM     14  C   UNL     1      36.611   5.218  11.940  0.00  0.00    +0.000 A 
ATOM     15  C   UNL     1      36.343   5.142  10.597  0.00  0.00    +0.000 A 
ATOM     16  C   UNL     1      37.169   4.414   9.768  0.00  0.00    +0.000 A 
ATOM     17  O   UNL     1      36.864   4.363   8.415  0.00  0.00    +0.000 OA
ATOM     18  C   UNL     1      38.252   3.781  10.339  0.00  0.00    +0.000 A 
ATOM     19  C   UNL     1      38.512   3.862  11.681  0.00  0.00    +0.000 A 
ENDBRANCH   3  13
BRANCH   4  20
ATOM     20  C   UNL     1      37.459   2.365  14.407  0.00  0.00    +0.000 A 
ATOM     21  C   UNL     1      36.678   1.441  13.780  0.00  0.00    +0.000 A 
ATOM     22  C   UNL     1      37.201   0.170  13.478  0.00  0.00    +0.000 A 
ATOM     23  C   UNL     1      38.494  -0.170  13.801  0.00  0.00    +0.000 A 
ATOM     24  C   UNL     1      39.264   0.777  14.433  0.00  0.00    +0.000 A 
ATOM     25  C   UNL     1      38.734   2.049  14.734  0.00  0.00    +0.000 A 
BRANCH  23  26
ATOM     26  O   UNL     1      38.995  -1.437  13.493  0.00  0.00    +0.000 OA
BRANCH  26  27
ATOM     27  C   UNL     1      38.233  -2.565  13.791  0.00  0.00    +0.000 C 
BRANCH  27  28
ATOM     28  C   UNL     1      38.445  -2.805  15.294  0.00  0.00    +0.000 C 
BRANCH  28  29
ATOM     29  N   UNL     1      37.194  -3.356  15.846  0.00  0.00    +0.000 NA
ATOM     30  C   UNL     1      36.544  -2.220  16.487  0.00  0.00    +0.000 C 
ATOM     31  C   UNL     1      37.612  -1.432  17.201  0.00  0.00    +0.000 C 
ATOM     32  C   UNL     1      38.219  -2.315  18.284  0.00  0.00    +0.000 C 
ATOM     33  C   UNL     1      38.697  -3.620  17.684  0.00  0.00    +0.000 C 
ATOM     34  C   UNL     1      37.579  -4.292  16.880  0.00  0.00    +0.000 C 
ENDBRANCH  28  29
ENDBRANCH  27  28
ENDBRANCH  26  27
ENDBRANCH  23  26
ENDBRANCH   4  20
TORSDOF 6
ENDMDL
MODEL 8
REMARK VINA RESULT:      -7.3      2.101      5.509
REMARK  Name = 
REMARK  6 active torsions:
REMARK  status: ('A' for Active; 'I' for Inactive)
REMARK    1  A    between atoms: C_3  and  C_4
REMARK    2  A    between atoms: C_11  and  C_12
REMARK    3  A    between atoms: C_15  and  O_16
REMARK    4  A    between atoms: O_16  and  C_17
REMARK    5  A    between atoms: C_17  and  C_18
REMARK    6  A    between atoms: C_18  and  N_19
REMARK                            x       y       z     vdW  Elec       q    Type
REMARK                         _______ _______ _______ _____ _____    ______ ____
ROOT
ATOM      1  C   UNL     1      37.216  -3.644  13.614  0.00  0.00    +0.000 C 
ATOM      2  C   UNL     1      37.672  -2.592  14.589  0.00  0.00    +0.000 C 
ATOM      3  C   UNL     1      38.794  -2.099  14.515  0.00  0.00    +0.000 C 
ATOM      4  C   UNL     1      39.446  -0.989  15.449  0.00  0.00    +0.000 C 
ATOM      5  O   UNL     1      38.356  -0.650  16.445  0.00  0.00    +0.000 OA
ATOM      6  C   UNL     1      37.168  -1.181  16.516  0.00  0.00    +0.000 A 
ATOM      7  C   UNL     1      36.286  -0.774  17.499  0.00  0.00    +0.000 A 
ATOM      8  C   UNL     1      35.035  -1.301  17.609  0.00  0.00    +0.000 A 
ATOM      9  C   UNL     1      34.622  -2.267  16.728  0.00  0.00    +0.000 A 
ATOM     10  O   UNL     1      33.330  -2.822  16.832  0.00  0.00    +0.000 OA
ATOM     11  C   UNL     1      35.495  -2.677  15.749  0.00  0.00    +0.000 A 
ATOM     12  C   UNL     1      36.801  -2.124  15.636  0.00  0.00    +0.000 A 
ENDROOT
BRANCH   3  13
ATOM     13  C   UNL     1      39.784  -2.475  13.488  0.00  0.00    +0.000 A 
ATOM     14  C   UNL     1      39.551  -2.326  12.135  0.00  0.00    +0.000 A 
ATOM     15  C   UNL     1      40.461  -2.683  11.174  0.00  0.00    +0.000 A 
ATOM     16  C   UNL     1      41.677  -3.220  11.540  0.00  0.00    +0.000 A 
ATOM     17  O   UNL     1      42.572  -3.568  10.538  0.00  0.00    +0.000 OA
ATOM     18  C   UNL     1      41.927  -3.377  12.886  0.00  0.00    +0.000 A 
ATOM     19  C   UNL     1      41.013  -3.017  13.839  0.00  0.00    +0.000 A 
ENDBRANCH   3  13
BRANCH   4  20
ATOM     20  C   UNL     1      39.312   0.240  14.454  0.00  0.00    +0.000 A 
ATOM     21  C   UNL     1      38.080   0.626  14.019  0.00  0.00    +0.000 A 
ATOM     22  C   UNL     1      37.957   1.722  13.145  0.00  0.00    +0.000 A 
ATOM     23  C   UNL     1      39.059   2.422  12.712  0.00  0.00    +0.000 A 
ATOM     24  C   UNL     1      40.291   2.016  13.163  0.00  0.00    +0.000 A 
ATOM     25  C   UNL     1      40.409   0.917  14.040  0.00  0.00    +0.000 A 
BRANCH  23  26
ATOM     26  O   UNL     1      38.917   3.507  11.843  0.00  0.00    +0.000 OA
BRANCH  26  27
ATOM     27  C   UNL     1      38.035   4.535  12.170  0.00  0.00    +0.000 C 
BRANCH  27  28
ATOM     28  C   UNL     1      38.612   5.165  13.447  0.00  0.00    +0.000 C 
BRANCH  28  29
ATOM     29  N   UNL     1      37.486   5.483  14.344  0.00  0.00    +0.000 NA
ATOM     30  C   UNL     1      37.827   6.779  14.916  0.00  0.00    +0.000 C 
ATOM     31  C   UNL     1      39.300   6.758  15.237  0.00  0.00    +0.000 C 
ATOM     32  C   UNL     1      39.547   5.686  16.291  0.00  0.00    +0.000 C 
ATOM     33  C   UNL     1      38.988   4.360  15.824  0.00  0.00    +0.000 C 
ATOM     34  C   UNL     1      37.520   4.503  15.409  0.00  0.00    +0.000 C 
ENDBRANCH  28  29
ENDBRANCH  27  28
ENDBRANCH  26  27
ENDBRANCH  23  26
ENDBRANCH   4  20
TORSDOF 6
ENDMDL
MODEL 9
REMARK VINA RESULT:      -7.2     26.496     29.860
REMARK  Name = 
REMARK  6 active torsions:
REMARK  status: ('A' for Active; 'I' for Inactive)
REMARK    1  A    between atoms: C_3  and  C_4
REMARK    2  A    between atoms: C_11  and  C_12
REMARK    3  A    between atoms: C_15  and  O_16
REMARK    4  A    between atoms: O_16  and  C_17
REMARK    5  A    between atoms: C_17  and  C_18
REMARK    6  A    between atoms: C_18  and  N_19
REMARK                            x       y       z     vdW  Elec       q    Type
REMARK                         _______ _______ _______ _____ _____    ______ ____
ROOT
ATOM      1  C   UNL     1      28.539   9.057  41.154  0.00  0.00    +0.000 C 
ATOM      2  C   UNL     1      27.944  10.265  41.826  0.00  0.00    +0.000 C 
ATOM      3  C   UNL     1      28.548  11.333  41.866  0.00  0.00    +0.000 C 
ATOM      4  C   UNL     1      28.085  12.703  42.528  0.00  0.00    +0.000 C 
ATOM      5  O   UNL     1      26.706  12.406  43.080  0.00  0.00    +0.000 OA
ATOM      6  C   UNL     1      26.073  11.267  43.033  0.00  0.00    +0.000 A 
ATOM      7  C   UNL     1      24.819  11.149  43.601  0.00  0.00    +0.000 A 
ATOM      8  C   UNL     1      24.123   9.979  43.574  0.00  0.00    +0.000 A 
ATOM      9  C   UNL     1      24.667   8.875  42.972  0.00  0.00    +0.000 A 
ATOM     10  O   UNL     1      23.958   7.657  42.939  0.00  0.00    +0.000 OA
ATOM     11  C   UNL     1      25.916   8.985  42.407  0.00  0.00    +0.000 A 
ATOM     12  C   UNL     1      26.641  10.209  42.435  0.00  0.00    +0.000 A 
ENDROOT
BRANCH   3  13
ATOM     13  C   UNL     1      29.884  11.537  41.273  0.00  0.00    +0.000 A 
ATOM     14  C   UNL     1      30.104  11.542  39.910  0.00  0.00    +0.000 A 
ATOM     15  C   UNL     1      31.344  11.720  39.352  0.00  0.00    +0.000 A 
ATOM     16  C   UNL     1      32.445  11.906  40.160  0.00  0.00    +0.000 A 
ATOM     17  O   UNL     1      33.682  12.083  39.557  0.00  0.00    +0.000 OA
ATOM     18  C   UNL     1      32.244  11.903  41.524  0.00  0.00    +0.000 A 
ATOM     19  C   UNL     1      31.003  11.725  42.072  0.00  0.00    +0.000 A 
ENDBRANCH   3  13
BRANCH   4  20
ATOM     20  C   UNL     1      27.696  13.470  41.194  0.00  0.00    +0.000 A 
ATOM     21  C   UNL     1      26.518  13.186  40.570  0.00  0.00    +0.000 A 
ATOM     22  C   UNL     1      26.165  13.871  39.393  0.00  0.00    +0.000 A 
ATOM     23  C   UNL     1      26.986  14.830  38.847  0.00  0.00    +0.000 A 
ATOM     24  C   UNL     1      28.169  15.100  39.492  0.00  0.00    +0.000 A 
ATOM     25  C   UNL     1      28.517  14.411  40.673  0.00  0.00    +0.000 A 
BRANCH  23  26
ATOM     26  O   UNL     1      26.619  15.499  37.677  0.00  0.00    +0.000 OA
BRANCH  26  27
ATOM     27  C   UNL     1      25.273  15.570  37.322  0.00  0.00    +0.000 C 
BRANCH  27  28
ATOM     28  C   UNL     1      25.271  15.756  35.797  0.00  0.00    +0.000 C 
BRANCH  28  29
ATOM     29  N   UNL     1      26.661  15.632  35.323  0.00  0.00    +0.000 NA
ATOM     30  C   UNL     1      26.837  16.751  34.405  0.00  0.00    +0.000 C 
ATOM     31  C   UNL     1      25.578  16.866  33.586  0.00  0.00    +0.000 C 
ATOM     32  C   UNL     1      25.419  15.592  32.766  0.00  0.00    +0.000 C 
ATOM     33  C   UNL     1      25.469  14.381  33.673  0.00  0.00    +0.000 C 
ATOM     34  C   UNL     1      26.724  14.410  34.551  0.00  0.00    +0.000 C 
ENDBRANCH  28  29
ENDBRANCH  27  28
ENDBRANCH  26  27
ENDBRANCH  23  26
ENDBRANCH   4  20
TORSDOF 6
ENDMDL
MODEL 10
REMARK VINA RESULT:      -7.2      3.488      9.525
REMARK  Name = 
REMARK  6 active torsions:
REMARK  status: ('A' for Active; 'I' for Inactive)
REMARK    1  A    between atoms: C_3  and  C_4
REMARK    2  A    between atoms: C_11  and  C_12
REMARK    3  A    between atoms: C_15  and  O_16
REMARK    4  A    between atoms: O_16  and  C_17
REMARK    5  A    between atoms: C_17  and  C_18
REMARK    6  A    between atoms: C_18  and  N_19
REMARK                            x       y       z     vdW  Elec       q    Type
REMARK                         _______ _______ _______ _____ _____    ______ ____
ROOT
ATOM      1  C   UNL     1      40.718  10.167  18.869  0.00  0.00    +0.000 C 
ATOM      2  C   UNL     1      40.690   8.744  19.358  0.00  0.00    +0.000 C 
ATOM      3  C   UNL     1      39.656   8.082  19.331  0.00  0.00    +0.000 C 
ATOM      4  C   UNL     1      39.436   6.579  19.803  0.00  0.00    +0.000 C 
ATOM      5  O   UNL     1      40.804   6.129  20.273  0.00  0.00    +0.000 OA
ATOM      6  C   UNL     1      41.896   6.841  20.299  0.00  0.00    +0.000 A 
ATOM      7  C   UNL     1      43.070   6.289  20.775  0.00  0.00    +0.000 A 
ATOM      8  C   UNL     1      44.233   6.997  20.819  0.00  0.00    +0.000 A 
ATOM      9  C   UNL     1      44.258   8.296  20.385  0.00  0.00    +0.000 A 
ATOM     10  O   UNL     1      45.455   9.040  20.427  0.00  0.00    +0.000 OA
ATOM     11  C   UNL     1      43.093   8.851  19.911  0.00  0.00    +0.000 A 
ATOM     12  C   UNL     1      41.879   8.110  19.865  0.00  0.00    +0.000 A 
ENDROOT
BRANCH   3  13
ATOM     13  C   UNL     1      38.370   8.599  18.827  0.00  0.00    +0.000 A 
ATOM     14  C   UNL     1      38.209   9.077  17.542  0.00  0.00    +0.000 A 
ATOM     15  C   UNL     1      37.019   9.570  17.070  0.00  0.00    +0.000 A 
ATOM     16  C   UNL     1      35.911   9.604  17.889  0.00  0.00    +0.000 A 
ATOM     17  O   UNL     1      34.726  10.109  17.374  0.00  0.00    +0.000 OA
ATOM     18  C   UNL     1      36.054   9.131  19.176  0.00  0.00    +0.000 A 
ATOM     19  C   UNL     1      37.245   8.641  19.639  0.00  0.00    +0.000 A 
ENDBRANCH   3  13
BRANCH   4  20
ATOM     20  C   UNL     1      39.395   5.903  18.367  0.00  0.00    +0.000 A 
ATOM     21  C   UNL     1      40.355   6.205  17.449  0.00  0.00    +0.000 A 
ATOM     22  C   UNL     1      40.327   5.600  16.180  0.00  0.00    +0.000 A 
ATOM     23  C   UNL     1      39.344   4.702  15.834  0.00  0.00    +0.000 A 
ATOM     24  C   UNL     1      38.385   4.412  16.775  0.00  0.00    +0.000 A 
ATOM     25  C   UNL     1      38.419   5.021  18.047  0.00  0.00    +0.000 A 
BRANCH  23  26
ATOM     26  O   UNL     1      39.332   4.112  14.568  0.00  0.00    +0.000 OA
BRANCH  26  27
ATOM     27  C   UNL     1      38.165   3.506  14.106  0.00  0.00    +0.000 C 
BRANCH  27  28
ATOM     28  C   UNL     1      38.576   2.070  13.747  0.00  0.00    +0.000 C 
BRANCH  28  29
ATOM     29  N   UNL     1      38.587   1.276  14.989  0.00  0.00    +0.000 NA
ATOM     30  C   UNL     1      39.408   0.114  14.676  0.00  0.00    +0.000 C 
ATOM     31  C   UNL     1      39.044  -0.335  13.284  0.00  0.00    +0.000 C 
ATOM     32  C   UNL     1      37.582  -0.764  13.284  0.00  0.00    +0.000 C 
ATOM     33  C   UNL     1      36.714   0.348  13.832  0.00  0.00    +0.000 C 
ATOM     34  C   UNL     1      37.229   0.820  15.195  0.00  0.00    +0.000 C 
ENDBRANCH  28  29
ENDBRANCH  27  28
ENDBRANCH  26  27
ENDBRANCH  23  26
ENDBRANCH   4  20
TORSDOF 6
ENDMDL
