MODEL 1
REMARK VINA RESULT:      -7.6      0.000      0.000
REMARK  Name = 
REMARK  6 active torsions:
REMARK  status: ('A' for Active; 'I' for Inactive)
REMARK    1  A    between atoms: C_2  and  N_3
REMARK    2  A    between atoms: N_3  and  C_4
REMARK    3  A    between atoms: C_6  and  C_8
REMARK    4  A    between atoms: C_12  and  C_13
REMARK    5  A    between atoms: C_20  and  C_21
REMARK    6  A    between atoms: C_24  and  O_25
REMARK                            x       y       z     vdW  Elec       q    Type
REMARK                         _______ _______ _______ _____ _____    ______ ____
ROOT
ATOM      1  C   UNL     1      35.729   6.537  13.750  0.00  0.00    +0.000 A 
ATOM      2  S   UNL     1      36.788   7.681  14.411  0.00  0.00    +0.000 S 
ATOM      3  C   UNL     1      37.667   6.654  15.472  0.00  0.00    +0.000 A 
ATOM      4  N   UNL     1      38.703   6.885  16.340  0.00  0.00    +0.000 NA
ATOM      5  C   UNL     1      39.250   5.908  17.078  0.00  0.00    +0.000 A 
ATOM      6  C   UNL     1      38.687   4.676  16.891  0.00  0.00    +0.000 A 
ATOM      7  C   UNL     1      37.643   4.388  16.031  0.00  0.00    +0.000 A 
ATOM      8  C   UNL     1      37.091   5.434  15.270  0.00  0.00    +0.000 A 
ATOM      9  C   UNL     1      36.079   5.373  14.369  0.00  0.00    +0.000 A 
ATOM     10  N   UNL     1      35.343   4.168  13.991  0.00  0.00    +0.000 NA
ENDROOT
BRANCH   5  11
ATOM     11  C   UNL     1      40.354   6.151  18.002  0.00  0.00    +0.000 A 
ATOM     12  C   UNL     1      41.628   6.436  17.563  0.00  0.00    +0.000 A 
ATOM     13  C   UNL     1      42.669   6.665  18.441  0.00  0.00    +0.000 A 
ATOM     14  C   UNL     1      42.465   6.616  19.804  0.00  0.00    +0.000 A 
ATOM     15  C   UNL     1      41.190   6.331  20.243  0.00  0.00    +0.000 A 
ATOM     16  C   UNL     1      40.151   6.103  19.364  0.00  0.00    +0.000 A 
ENDBRANCH   5  11
BRANCH   7  17
ATOM     17  C   UNL     1      37.111   3.029  15.952  0.00  0.00    +0.000 A 
ATOM     18  C   UNL     1      37.779   2.198  15.042  0.00  0.00    +0.000 A 
ATOM     19  C   UNL     1      37.359   0.908  14.941  0.00  0.00    +0.000 A 
ATOM     20  C   UNL     1      36.331   0.395  15.678  0.00  0.00    +0.000 A 
ATOM     21  C   UNL     1      35.682   1.241  16.576  0.00  0.00    +0.000 A 
ATOM     22  C   UNL     1      36.073   2.553  16.711  0.00  0.00    +0.000 A 
BRANCH  20  23
ATOM     23  O   UNL     1      35.943  -0.926  15.537  0.00  0.00    +0.000 OA
ATOM     24  C   UNL     1      35.161  -1.504  16.557  0.00  0.00    +0.000 C 
ENDBRANCH  20  23
ENDBRANCH   7  17
BRANCH   1  26
ATOM     25  N   UNL     1      35.015   6.803  11.360  0.00  0.00    +0.000 N 
ATOM     26  C   UNL     1      34.695   6.806  12.743  0.00  0.00    +0.000 C 
ATOM     27  O   UNL     1      33.518   7.042  13.111  0.00  0.00    +0.000 OA
BRANCH  25  29
ATOM     28  C   UNL     1      36.553   5.110  10.464  0.00  0.00    +0.000 C 
ATOM     29  C   UNL     1      36.365   6.533  10.949  0.00  0.00    +0.000 C 
ENDBRANCH  25  29
BRANCH  25  30
ATOM     30  C   UNL     1      33.974   7.071  10.400  0.00  0.00    +0.000 C 
ATOM     31  C   UNL     1      34.465   8.073   9.378  0.00  0.00    +0.000 C 
ENDBRANCH  25  30
ENDBRANCH   1  26
TORSDOF 6
ENDMDL
MODEL 2
REMARK VINA RESULT:      -7.1      2.846      7.380
REMARK  Name = 
REMARK  6 active torsions:
REMARK  status: ('A' for Active; 'I' for Inactive)
REMARK    1  A    between atoms: C_2  and  N_3
REMARK    2  A    between atoms: N_3  and  C_4
REMARK    3  A    between atoms: C_6  and  C_8
REMARK    4  A    between atoms: C_12  and  C_13
REMARK    5  A    between atoms: C_20  and  C_21
REMARK    6  A    between atoms: C_24  and  O_25
REMARK                            x       y       z     vdW  Elec       q    Type
REMARK                         _______ _______ _______ _____ _____    ______ ____
ROOT
ATOM      1  C   UNL     1      38.618   6.450  16.795  0.00  0.00    +0.000 A 
ATOM      2  S   UNL     1      38.739   5.003  17.666  0.00  0.00    +0.000 S 
ATOM      3  C   UNL     1      37.633   4.049  16.760  0.00  0.00    +0.000 A 
ATOM      4  N   UNL     1      37.218   2.747  16.876  0.00  0.00    +0.000 NA
ATOM      5  C   UNL     1      36.332   2.200  16.031  0.00  0.00    +0.000 A 
ATOM      6  C   UNL     1      35.885   3.047  15.055  0.00  0.00    +0.000 A 
ATOM      7  C   UNL     1      36.269   4.365  14.892  0.00  0.00    +0.000 A 
ATOM      8  C   UNL     1      37.201   4.910  15.795  0.00  0.00    +0.000 A 
ATOM      9  C   UNL     1      37.716   6.165  15.812  0.00  0.00    +0.000 A 
ATOM     10  N   UNL     1      37.403   7.231  14.863  0.00  0.00    +0.000 NA
ENDROOT
BRANCH   5  11
ATOM     11  C   UNL     1      35.890   0.814  16.153  0.00  0.00    +0.000 A 
ATOM     12  C   UNL     1      34.949   0.424  17.080  0.00  0.00    +0.000 A 
ATOM     13  C   UNL     1      34.533  -0.889  17.191  0.00  0.00    +0.000 A 
ATOM     14  C   UNL     1      35.053  -1.865  16.367  0.00  0.00    +0.000 A 
ATOM     15  C   UNL     1      35.995  -1.474  15.440  0.00  0.00    +0.000 A 
ATOM     16  C   UNL     1      36.409  -0.162  15.330  0.00  0.00    +0.000 A 
ENDBRANCH   5  11
BRANCH   7  17
ATOM     17  C   UNL     1      35.685   5.172  13.823  0.00  0.00    +0.000 A 
ATOM     18  C   UNL     1      34.533   5.880  14.195  0.00  0.00    +0.000 A 
ATOM     19  C   UNL     1      33.955   6.679  13.257  0.00  0.00    +0.000 A 
ATOM     20  C   UNL     1      34.442   6.819  11.990  0.00  0.00    +0.000 A 
ATOM     21  C   UNL     1      35.588   6.105  11.644  0.00  0.00    +0.000 A 
ATOM     22  C   UNL     1      36.205   5.286  12.559  0.00  0.00    +0.000 A 
BRANCH  20  23
ATOM     23  O   UNL     1      33.814   7.647  11.074  0.00  0.00    +0.000 OA
ATOM     24  C   UNL     1      34.565   8.690  10.495  0.00  0.00    +0.000 C 
ENDBRANCH  20  23
ENDBRANCH   7  17
BRANCH   1  26
ATOM     25  N   UNL     1      38.818   8.641  17.999  0.00  0.00    +0.000 N 
ATOM     26  C   UNL     1      39.347   7.690  17.087  0.00  0.00    +0.000 C 
ATOM     27  O   UNL     1      40.447   7.910  16.524  0.00  0.00    +0.000 OA
BRANCH  25  29
ATOM     28  C   UNL     1      37.550   8.786  20.098  0.00  0.00    +0.000 C 
ATOM     29  C   UNL     1      37.558   8.380  18.639  0.00  0.00    +0.000 C 
ENDBRANCH  25  29
BRANCH  25  30
ATOM     30  C   UNL     1      39.561   9.848  18.262  0.00  0.00    +0.000 C 
ATOM     31  C   UNL     1      39.001  10.986  17.436  0.00  0.00    +0.000 C 
ENDBRANCH  25  30
ENDBRANCH   1  26
TORSDOF 6
ENDMDL
MODEL 3
REMARK VINA RESULT:      -7.1      2.806      6.365
REMARK  Name = 
REMARK  6 active torsions:
REMARK  status: ('A' for Active; 'I' for Inactive)
REMARK    1  A    between atoms: C_2  and  N_3
REMARK    2  A    between atoms: N_3  and  C_4
REMARK    3  A    between atoms: C_6  and  C_8
REMARK    4  A    between atoms: C_12  and  C_13
REMARK    5  A    between atoms: C_20  and  C_21
REMARK    6  A    between atoms: C_24  and  O_25
REMARK                            x       y       z     vdW  Elec       q    Type
REMARK                         _______ _______ _______ _____ _____    ______ ____
ROOT
ATOM      1  C   UNL     1      36.227   7.457  14.107  0.00  0.00    +0.000 A 
ATOM      2  S   UNL     1      35.236   6.158  13.664  0.00  0.00    +0.000 S 
ATOM      3  C   UNL     1      35.981   4.920  14.595  0.00  0.00    +0.000 A 
ATOM      4  N   UNL     1      35.711   3.584  14.749  0.00  0.00    +0.000 NA
ATOM      5  C   UNL     1      36.438   2.795  15.552  0.00  0.00    +0.000 A 
ATOM      6  C   UNL     1      37.462   3.434  16.196  0.00  0.00    +0.000 A 
ATOM      7  C   UNL     1      37.778   4.775  16.078  0.00  0.00    +0.000 A 
ATOM      8  C   UNL     1      36.996   5.577  15.227  0.00  0.00    +0.000 A 
ATOM      9  C   UNL     1      37.124   6.903  14.973  0.00  0.00    +0.000 A 
ATOM     10  N   UNL     1      38.126   7.793  15.557  0.00  0.00    +0.000 NA
ENDROOT
BRANCH   5  11
ATOM     11  C   UNL     1      36.152   1.373  15.718  0.00  0.00    +0.000 A 
ATOM     12  C   UNL     1      35.293   0.907  16.689  0.00  0.00    +0.000 A 
ATOM     13  C   UNL     1      35.026  -0.440  16.841  0.00  0.00    +0.000 A 
ATOM     14  C   UNL     1      35.617  -1.374  16.017  0.00  0.00    +0.000 A 
ATOM     15  C   UNL     1      36.476  -0.907  15.045  0.00  0.00    +0.000 A 
ATOM     16  C   UNL     1      36.742   0.439  14.894  0.00  0.00    +0.000 A 
ENDBRANCH   5  11
BRANCH   7  17
ATOM     17  C   UNL     1      38.924   5.324  16.799  0.00  0.00    +0.000 A 
ATOM     18  C   UNL     1      38.712   5.503  18.174  0.00  0.00    +0.000 A 
ATOM     19  C   UNL     1      39.749   5.980  18.914  0.00  0.00    +0.000 A 
ATOM     20  C   UNL     1      40.968   6.287  18.385  0.00  0.00    +0.000 A 
ATOM     21  C   UNL     1      41.155   6.101  17.016  0.00  0.00    +0.000 A 
ATOM     22  C   UNL     1      40.135   5.621  16.228  0.00  0.00    +0.000 A 
BRANCH  20  23
ATOM     23  O   UNL     1      41.991   6.769  19.184  0.00  0.00    +0.000 OA
ATOM     24  C   UNL     1      42.069   6.312  20.514  0.00  0.00    +0.000 C 
ENDBRANCH  20  23
ENDBRANCH   7  17
BRANCH   1  26
ATOM     25  N   UNL     1      35.261   9.763  14.312  0.00  0.00    +0.000 N 
ATOM     26  C   UNL     1      36.095   8.839  13.629  0.00  0.00    +0.000 C 
ATOM     27  O   UNL     1      36.724   9.205  12.607  0.00  0.00    +0.000 OA
BRANCH  25  29
ATOM     28  C   UNL     1      35.170   9.837  16.766  0.00  0.00    +0.000 C 
ATOM     29  C   UNL     1      34.544   9.335  15.482  0.00  0.00    +0.000 C 
ENDBRANCH  25  29
BRANCH  25  30
ATOM     30  C   UNL     1      35.155  11.112  13.815  0.00  0.00    +0.000 C 
ATOM     31  C   UNL     1      33.697  11.493  13.673  0.00  0.00    +0.000 C 
ENDBRANCH  25  30
ENDBRANCH   1  26
TORSDOF 6
ENDMDL
MODEL 4
REMARK VINA RESULT:      -6.8      5.610      8.831
REMARK  Name = 
REMARK  6 active torsions:
REMARK  status: ('A' for Active; 'I' for Inactive)
REMARK    1  A    between atoms: C_2  and  N_3
REMARK    2  A    between atoms: N_3  and  C_4
REMARK    3  A    between atoms: C_6  and  C_8
REMARK    4  A    between atoms: C_12  and  C_13
REMARK    5  A    between atoms: C_20  and  C_21
REMARK    6  A    between atoms: C_24  and  O_25
REMARK                            x       y       z     vdW  Elec       q    Type
REMARK                         _______ _______ _______ _____ _____    ______ ____
ROOT
ATOM      1  C   UNL     1      41.852  -1.319  14.263  0.00  0.00    +0.000 A 
ATOM      2  S   UNL     1      41.375   0.254  13.858  0.00  0.00    +0.000 S 
ATOM      3  C   UNL     1      39.768   0.214  14.465  0.00  0.00    +0.000 A 
ATOM      4  N   UNL     1      38.764   1.148  14.500  0.00  0.00    +0.000 NA
ATOM      5  C   UNL     1      37.566   0.892  15.043  0.00  0.00    +0.000 A 
ATOM      6  C   UNL     1      37.435  -0.369  15.554  0.00  0.00    +0.000 A 
ATOM      7  C   UNL     1      38.412  -1.349  15.547  0.00  0.00    +0.000 A 
ATOM      8  C   UNL     1      39.659  -1.049  14.969  0.00  0.00    +0.000 A 
ATOM      9  C   UNL     1      40.749  -1.850  14.864  0.00  0.00    +0.000 A 
ATOM     10  N   UNL     1      40.850  -3.224  15.352  0.00  0.00    +0.000 NA
ENDROOT
BRANCH   5  11
ATOM     11  C   UNL     1      36.497   1.886  15.081  0.00  0.00    +0.000 A 
ATOM     12  C   UNL     1      36.494   2.991  14.258  0.00  0.00    +0.000 A 
ATOM     13  C   UNL     1      35.480   3.928  14.298  0.00  0.00    +0.000 A 
ATOM     14  C   UNL     1      34.424   3.787  15.174  0.00  0.00    +0.000 A 
ATOM     15  C   UNL     1      34.428   2.682  15.997  0.00  0.00    +0.000 A 
ATOM     16  C   UNL     1      35.441   1.746  15.956  0.00  0.00    +0.000 A 
ENDBRANCH   5  11
BRANCH   7  17
ATOM     17  C   UNL     1      38.127  -2.672  16.098  0.00  0.00    +0.000 A 
ATOM     18  C   UNL     1      37.363  -3.496  15.260  0.00  0.00    +0.000 A 
ATOM     19  C   UNL     1      37.089  -4.755  15.696  0.00  0.00    +0.000 A 
ATOM     20  C   UNL     1      37.520  -5.243  16.895  0.00  0.00    +0.000 A 
ATOM     21  C   UNL     1      38.277  -4.404  17.711  0.00  0.00    +0.000 A 
ATOM     22  C   UNL     1      38.579  -3.124  17.311  0.00  0.00    +0.000 A 
BRANCH  20  23
ATOM     23  O   UNL     1      37.212  -6.534  17.291  0.00  0.00    +0.000 OA
ATOM     24  C   UNL     1      35.942  -7.047  16.962  0.00  0.00    +0.000 C 
ENDBRANCH  20  23
ENDBRANCH   7  17
BRANCH   1  26
ATOM     25  N   UNL     1      43.474  -2.449  12.719  0.00  0.00    +0.000 N 
ATOM     26  C   UNL     1      43.169  -1.912  13.997  0.00  0.00    +0.000 C 
ATOM     27  O   UNL     1      44.030  -1.944  14.909  0.00  0.00    +0.000 OA
BRANCH  25  29
ATOM     28  C   UNL     1      41.777  -3.737  11.496  0.00  0.00    +0.000 C 
ATOM     29  C   UNL     1      42.481  -2.408  11.680  0.00  0.00    +0.000 C 
ENDBRANCH  25  29
BRANCH  25  30
ATOM     30  C   UNL     1      44.777  -3.023  12.493  0.00  0.00    +0.000 C 
ATOM     31  C   UNL     1      45.620  -2.074  11.669  0.00  0.00    +0.000 C 
ENDBRANCH  25  30
ENDBRANCH   1  26
TORSDOF 6
ENDMDL
MODEL 5
REMARK VINA RESULT:      -6.7      2.089      6.992
REMARK  Name = 
REMARK  6 active torsions:
REMARK  status: ('A' for Active; 'I' for Inactive)
REMARK    1  A    between atoms: C_2  and  N_3
REMARK    2  A    between atoms: N_3  and  C_4
REMARK    3  A    between atoms: C_6  and  C_8
REMARK    4  A    between atoms: C_12  and  C_13
REMARK    5  A    between atoms: C_20  and  C_21
REMARK    6  A    between atoms: C_24  and  O_25
REMARK                            x       y       z     vdW  Elec       q    Type
REMARK                         _______ _______ _______ _____ _____    ______ ____
ROOT
ATOM      1  C   UNL     1      38.858   6.103  17.171  0.00  0.00    +0.000 A 
ATOM      2  S   UNL     1      38.578   7.330  16.038  0.00  0.00    +0.000 S 
ATOM      3  C   UNL     1      37.521   6.484  14.980  0.00  0.00    +0.000 A 
ATOM      4  N   UNL     1      36.874   6.849  13.827  0.00  0.00    +0.000 NA
ATOM      5  C   UNL     1      36.074   6.007  13.158  0.00  0.00    +0.000 A 
ATOM      6  C   UNL     1      35.964   4.766  13.720  0.00  0.00    +0.000 A 
ATOM      7  C   UNL     1      36.592   4.345  14.878  0.00  0.00    +0.000 A 
ATOM      8  C   UNL     1      37.425   5.253  15.558  0.00  0.00    +0.000 A 
ATOM      9  C   UNL     1      38.123   5.053  16.704  0.00  0.00    +0.000 A 
ATOM     10  N   UNL     1      38.143   3.821  17.489  0.00  0.00    +0.000 NA
ENDROOT
BRANCH   5  11
ATOM     11  C   UNL     1      35.384   6.394  11.931  0.00  0.00    +0.000 A 
ATOM     12  C   UNL     1      35.906   6.135  10.683  0.00  0.00    +0.000 A 
ATOM     13  C   UNL     1      35.248   6.503   9.525  0.00  0.00    +0.000 A 
ATOM     14  C   UNL     1      34.033   7.151   9.580  0.00  0.00    +0.000 A 
ATOM     15  C   UNL     1      33.510   7.411  10.830  0.00  0.00    +0.000 A 
ATOM     16  C   UNL     1      34.168   7.042  11.986  0.00  0.00    +0.000 A 
ENDBRANCH   5  11
BRANCH   7  17
ATOM     17  C   UNL     1      36.414   2.974  15.352  0.00  0.00    +0.000 A 
ATOM     18  C   UNL     1      35.265   2.776  16.131  0.00  0.00    +0.000 A 
ATOM     19  C   UNL     1      35.019   1.515  16.579  0.00  0.00    +0.000 A 
ATOM     20  C   UNL     1      35.829   0.451  16.306  0.00  0.00    +0.000 A 
ATOM     21  C   UNL     1      36.965   0.674  15.531  0.00  0.00    +0.000 A 
ATOM     22  C   UNL     1      37.254   1.932  15.056  0.00  0.00    +0.000 A 
BRANCH  20  23
ATOM     23  O   UNL     1      35.531  -0.812  16.787  0.00  0.00    +0.000 OA
ATOM     24  C   UNL     1      35.193  -0.944  18.149  0.00  0.00    +0.000 C 
ENDBRANCH  20  23
ENDBRANCH   7  17
BRANCH   1  26
ATOM     25  N   UNL     1      41.114   6.373  18.233  0.00  0.00    +0.000 N 
ATOM     26  C   UNL     1      39.710   6.213  18.362  0.00  0.00    +0.000 C 
ATOM     27  O   UNL     1      39.190   6.164  19.503  0.00  0.00    +0.000 OA
BRANCH  25  29
ATOM     28  C   UNL     1      43.192   6.688  16.961  0.00  0.00    +0.000 C 
ATOM     29  C   UNL     1      41.701   6.427  16.922  0.00  0.00    +0.000 C 
ENDBRANCH  25  29
BRANCH  25  30
ATOM     30  C   UNL     1      41.920   6.477  19.423  0.00  0.00    +0.000 C 
ATOM     31  C   UNL     1      41.917   7.907  19.921  0.00  0.00    +0.000 C 
ENDBRANCH  25  30
ENDBRANCH   1  26
TORSDOF 6
ENDMDL
MODEL 6
REMARK VINA RESULT:      -6.6      2.284      7.047
REMARK  Name = 
REMARK  6 active torsions:
REMARK  status: ('A' for Active; 'I' for Inactive)
REMARK    1  A    between atoms: C_2  and  N_3
REMARK    2  A    between atoms: N_3  and  C_4
REMARK    3  A    between atoms: C_6  and  C_8
REMARK    4  A    between atoms: C_12  and  C_13
REMARK    5  A    between atoms: C_20  and  C_21
REMARK    6  A    between atoms: C_24  and  O_25
REMARK                            x       y       z     vdW  Elec       q    Type
REMARK                         _______ _______ _______ _____ _____    ______ ____
ROOT
ATOM      1  C   UNL     1      38.697   6.199  16.812  0.00  0.00    +0.000 A 
ATOM      2  S   UNL     1      38.598   7.312  15.540  0.00  0.00    +0.000 S 
ATOM      3  C   UNL     1      37.549   6.436  14.497  0.00  0.00    +0.000 A 
ATOM      4  N   UNL     1      37.015   6.720  13.266  0.00  0.00    +0.000 NA
ATOM      5  C   UNL     1      36.196   5.872  12.628  0.00  0.00    +0.000 A 
ATOM      6  C   UNL     1      35.944   4.712  13.307  0.00  0.00    +0.000 A 
ATOM      7  C   UNL     1      36.455   4.375  14.547  0.00  0.00    +0.000 A 
ATOM      8  C   UNL     1      37.311   5.287  15.191  0.00  0.00    +0.000 A 
ATOM      9  C   UNL     1      37.911   5.163  16.402  0.00  0.00    +0.000 A 
ATOM     10  N   UNL     1      37.774   4.026  17.311  0.00  0.00    +0.000 NA
ENDROOT
BRANCH   5  11
ATOM     11  C   UNL     1      35.625   6.173  11.318  0.00  0.00    +0.000 A 
ATOM     12  C   UNL     1      34.570   7.044  11.161  0.00  0.00    +0.000 A 
ATOM     13  C   UNL     1      34.034   7.325   9.919  0.00  0.00    +0.000 A 
ATOM     14  C   UNL     1      34.544   6.735   8.781  0.00  0.00    +0.000 A 
ATOM     15  C   UNL     1      35.600   5.863   8.939  0.00  0.00    +0.000 A 
ATOM     16  C   UNL     1      36.135   5.584  10.181  0.00  0.00    +0.000 A 
ENDBRANCH   5  11
BRANCH   7  17
ATOM     17  C   UNL     1      36.131   3.082  15.147  0.00  0.00    +0.000 A 
ATOM     18  C   UNL     1      37.010   2.047  14.799  0.00  0.00    +0.000 A 
ATOM     19  C   UNL     1      36.788   0.822  15.349  0.00  0.00    +0.000 A 
ATOM     20  C   UNL     1      35.763   0.562  16.211  0.00  0.00    +0.000 A 
ATOM     21  C   UNL     1      34.902   1.608  16.541  0.00  0.00    +0.000 A 
ATOM     22  C   UNL     1      35.089   2.863  16.010  0.00  0.00    +0.000 A 
BRANCH  20  23
ATOM     23  O   UNL     1      35.582  -0.703  16.742  0.00  0.00    +0.000 OA
ATOM     24  C   UNL     1      36.366  -1.079  17.851  0.00  0.00    +0.000 C 
ENDBRANCH  20  23
ENDBRANCH   7  17
BRANCH   1  26
ATOM     25  N   UNL     1      38.997   7.220  19.083  0.00  0.00    +0.000 N 
ATOM     26  C   UNL     1      39.472   6.375  18.047  0.00  0.00    +0.000 C 
ATOM     27  O   UNL     1      40.564   5.772  18.185  0.00  0.00    +0.000 OA
BRANCH  25  29
ATOM     28  C   UNL     1      37.385   8.761  20.113  0.00  0.00    +0.000 C 
ATOM     29  C   UNL     1      37.745   7.906  18.916  0.00  0.00    +0.000 C 
ENDBRANCH  25  29
BRANCH  25  30
ATOM     30  C   UNL     1      39.783   7.369  20.282  0.00  0.00    +0.000 C 
ATOM     31  C   UNL     1      40.860   8.409  20.063  0.00  0.00    +0.000 C 
ENDBRANCH  25  30
ENDBRANCH   1  26
TORSDOF 6
ENDMDL
MODEL 7
REMARK VINA RESULT:      -6.6      2.674      3.439
REMARK  Name = 
REMARK  6 active torsions:
REMARK  status: ('A' for Active; 'I' for Inactive)
REMARK    1  A    between atoms: C_2  and  N_3
REMARK    2  A    between atoms: N_3  and  C_4
REMARK    3  A    between atoms: C_6  and  C_8
REMARK    4  A    between atoms: C_12  and  C_13
REMARK    5  A    between atoms: C_20  and  C_21
REMARK    6  A    between atoms: C_24  and  O_25
REMARK                            x       y       z     vdW  Elec       q    Type
REMARK                         _______ _______ _______ _____ _____    ______ ____
ROOT
ATOM      1  C   UNL     1      37.643   3.849  12.220  0.00  0.00    +0.000 A 
ATOM      2  S   UNL     1      38.323   5.291  12.793  0.00  0.00    +0.000 S 
ATOM      3  C   UNL     1      38.188   5.000  14.481  0.00  0.00    +0.000 A 
ATOM      4  N   UNL     1      38.545   5.737  15.582  0.00  0.00    +0.000 NA
ATOM      5  C   UNL     1      38.347   5.298  16.832  0.00  0.00    +0.000 A 
ATOM      6  C   UNL     1      37.763   4.064  16.912  0.00  0.00    +0.000 A 
ATOM      7  C   UNL     1      37.384   3.279  15.838  0.00  0.00    +0.000 A 
ATOM      8  C   UNL     1      37.605   3.768  14.538  0.00  0.00    +0.000 A 
ATOM      9  C   UNL     1      37.321   3.166  13.356  0.00  0.00    +0.000 A 
ATOM     10  N   UNL     1      36.718   1.845  13.193  0.00  0.00    +0.000 NA
ENDROOT
BRANCH   5  11
ATOM     11  C   UNL     1      38.726   6.081  18.005  0.00  0.00    +0.000 A 
ATOM     12  C   UNL     1      39.802   5.742  18.796  0.00  0.00    +0.000 A 
ATOM     13  C   UNL     1      40.157   6.486  19.904  0.00  0.00    +0.000 A 
ATOM     14  C   UNL     1      39.438   7.607  20.260  0.00  0.00    +0.000 A 
ATOM     15  C   UNL     1      38.361   7.946  19.469  0.00  0.00    +0.000 A 
ATOM     16  C   UNL     1      38.007   7.202  18.361  0.00  0.00    +0.000 A 
ENDBRANCH   5  11
BRANCH   7  17
ATOM     17  C   UNL     1      36.736   1.989  16.065  0.00  0.00    +0.000 A 
ATOM     18  C   UNL     1      35.383   2.076  16.422  0.00  0.00    +0.000 A 
ATOM     19  C   UNL     1      34.707   0.911  16.616  0.00  0.00    +0.000 A 
ATOM     20  C   UNL     1      35.281  -0.320  16.480  0.00  0.00    +0.000 A 
ATOM     21  C   UNL     1      36.628  -0.380  16.125  0.00  0.00    +0.000 A 
ATOM     22  C   UNL     1      37.350   0.772  15.919  0.00  0.00    +0.000 A 
BRANCH  20  23
ATOM     23  O   UNL     1      34.548  -1.475  16.689  0.00  0.00    +0.000 OA
ATOM     24  C   UNL     1      34.920  -2.637  15.985  0.00  0.00    +0.000 C 
ENDBRANCH  20  23
ENDBRANCH   7  17
BRANCH   1  26
ATOM     25  N   UNL     1      38.412   2.644  10.159  0.00  0.00    +0.000 N 
ATOM     26  C   UNL     1      37.470   3.484  10.809  0.00  0.00    +0.000 C 
ATOM     27  O   UNL     1      36.481   3.921  10.171  0.00  0.00    +0.000 OA
BRANCH  25  29
ATOM     28  C   UNL     1      39.493   0.650  11.103  0.00  0.00    +0.000 C 
ATOM     29  C   UNL     1      39.543   2.149  10.897  0.00  0.00    +0.000 C 
ENDBRANCH  25  29
BRANCH  25  30
ATOM     30  C   UNL     1      38.211   2.306   8.773  0.00  0.00    +0.000 C 
ATOM     31  C   UNL     1      39.321   2.901   7.933  0.00  0.00    +0.000 C 
ENDBRANCH  25  30
ENDBRANCH   1  26
TORSDOF 6
ENDMDL
MODEL 8
REMARK VINA RESULT:      -6.6     24.255     26.902
REMARK  Name = 
REMARK  6 active torsions:
REMARK  status: ('A' for Active; 'I' for Inactive)
REMARK    1  A    between atoms: C_2  and  N_3
REMARK    2  A    between atoms: N_3  and  C_4
REMARK    3  A    between atoms: C_6  and  C_8
REMARK    4  A    between atoms: C_12  and  C_13
REMARK    5  A    between atoms: C_20  and  C_21
REMARK    6  A    between atoms: C_24  and  O_25
REMARK                            x       y       z     vdW  Elec       q    Type
REMARK                         _______ _______ _______ _____ _____    ______ ____
ROOT
ATOM      1  C   UNL     1      29.896  15.717  36.539  0.00  0.00    +0.000 A 
ATOM      2  S   UNL     1      29.633  15.391  38.180  0.00  0.00    +0.000 S 
ATOM      3  C   UNL     1      27.918  15.502  38.206  0.00  0.00    +0.000 A 
ATOM      4  N   UNL     1      26.992  15.348  39.206  0.00  0.00    +0.000 NA
ATOM      5  C   UNL     1      25.676  15.476  38.989  0.00  0.00    +0.000 A 
ATOM      6  C   UNL     1      25.342  15.772  37.697  0.00  0.00    +0.000 A 
ATOM      7  C   UNL     1      26.232  15.938  36.651  0.00  0.00    +0.000 A 
ATOM      8  C   UNL     1      27.608  15.797  36.911  0.00  0.00    +0.000 A 
ATOM      9  C   UNL     1      28.641  15.908  36.039  0.00  0.00    +0.000 A 
ATOM     10  N   UNL     1      28.528  16.198  34.611  0.00  0.00    +0.000 NA
ENDROOT
BRANCH   5  11
ATOM     11  C   UNL     1      24.689  15.311  40.053  0.00  0.00    +0.000 A 
ATOM     12  C   UNL     1      25.034  14.868  41.311  0.00  0.00    +0.000 A 
ATOM     13  C   UNL     1      24.097  14.714  42.313  0.00  0.00    +0.000 A 
ATOM     14  C   UNL     1      22.767  15.002  42.086  0.00  0.00    +0.000 A 
ATOM     15  C   UNL     1      22.422  15.446  40.827  0.00  0.00    +0.000 A 
ATOM     16  C   UNL     1      23.360  15.600  39.826  0.00  0.00    +0.000 A 
ENDBRANCH   5  11
BRANCH   7  17
ATOM     17  C   UNL     1      25.742  16.288  35.320  0.00  0.00    +0.000 A 
ATOM     18  C   UNL     1      25.500  17.657  35.133  0.00  0.00    +0.000 A 
ATOM     19  C   UNL     1      25.074  18.059  33.905  0.00  0.00    +0.000 A 
ATOM     20  C   UNL     1      24.874  17.200  32.863  0.00  0.00    +0.000 A 
ATOM     21  C   UNL     1      25.121  15.845  33.073  0.00  0.00    +0.000 A 
ATOM     22  C   UNL     1      25.553  15.393  34.298  0.00  0.00    +0.000 A 
BRANCH  20  23
ATOM     23  O   UNL     1      24.439  17.662  31.633  0.00  0.00    +0.000 OA
ATOM     24  C   UNL     1      24.082  19.021  31.520  0.00  0.00    +0.000 C 
ENDBRANCH  20  23
ENDBRANCH   7  17
BRANCH   1  26
ATOM     25  N   UNL     1      31.872  14.570  35.506  0.00  0.00    +0.000 N 
ATOM     26  C   UNL     1      31.203  15.766  35.873  0.00  0.00    +0.000 C 
ATOM     27  O   UNL     1      31.733  16.878  35.629  0.00  0.00    +0.000 OA
BRANCH  25  29
ATOM     28  C   UNL     1      32.038  12.491  36.804  0.00  0.00    +0.000 C 
ATOM     29  C   UNL     1      31.258  13.302  35.790  0.00  0.00    +0.000 C 
ENDBRANCH  25  29
BRANCH  25  30
ATOM     30  C   UNL     1      33.155  14.656  34.854  0.00  0.00    +0.000 C 
ATOM     31  C   UNL     1      32.981  14.509  33.358  0.00  0.00    +0.000 C 
ENDBRANCH  25  30
ENDBRANCH   1  26
TORSDOF 6
ENDMDL
MODEL 9
REMARK VINA RESULT:      -6.4      5.596      9.130
REMARK  Name = 
REMARK  6 active torsions:
REMARK  status: ('A' for Active; 'I' for Inactive)
REMARK    1  A    between atoms: C_2  and  N_3
REMARK    2  A    between atoms: N_3  and  C_4
REMARK    3  A    between atoms: C_6  and  C_8
REMARK    4  A    between atoms: C_12  and  C_13
REMARK    5  A    between atoms: C_20  and  C_21
REMARK    6  A    between atoms: C_24  and  O_25
REMARK                            x       y       z     vdW  Elec       q    Type
REMARK                         _______ _______ _______ _____ _____    ______ ____
ROOT
ATOM      1  C   UNL     1      36.941   0.485  15.442  0.00  0.00    +0.000 A 
ATOM      2  S   UNL     1      35.987   1.106  14.189  0.00  0.00    +0.000 S 
ATOM      3  C   UNL     1      37.090   0.906  12.886  0.00  0.00    +0.000 A 
ATOM      4  N   UNL     1      37.005   1.185  11.546  0.00  0.00    +0.000 NA
ATOM      5  C   UNL     1      38.011   0.932  10.697  0.00  0.00    +0.000 A 
ATOM      6  C   UNL     1      39.117   0.379  11.280  0.00  0.00    +0.000 A 
ATOM      7  C   UNL     1      39.257   0.078  12.622  0.00  0.00    +0.000 A 
ATOM      8  C   UNL     1      38.183   0.354  13.488  0.00  0.00    +0.000 A 
ATOM      9  C   UNL     1      38.104   0.133  14.824  0.00  0.00    +0.000 A 
ATOM     10  N   UNL     1      39.149  -0.463  15.654  0.00  0.00    +0.000 NA
ENDROOT
BRANCH   5  11
ATOM     11  C   UNL     1      37.921   1.228   9.270  0.00  0.00    +0.000 A 
ATOM     12  C   UNL     1      36.770   1.718   8.693  0.00  0.00    +0.000 A 
ATOM     13  C   UNL     1      36.691   1.997   7.343  0.00  0.00    +0.000 A 
ATOM     14  C   UNL     1      37.775   1.789   6.516  0.00  0.00    +0.000 A 
ATOM     15  C   UNL     1      38.927   1.298   7.092  0.00  0.00    +0.000 A 
ATOM     16  C   UNL     1      39.005   1.021   8.443  0.00  0.00    +0.000 A 
ENDBRANCH   5  11
BRANCH   7  17
ATOM     17  C   UNL     1      40.511  -0.482  13.121  0.00  0.00    +0.000 A 
ATOM     18  C   UNL     1      41.463   0.476  13.499  0.00  0.00    +0.000 A 
ATOM     19  C   UNL     1      42.643   0.025  14.005  0.00  0.00    +0.000 A 
ATOM     20  C   UNL     1      42.935  -1.299  14.159  0.00  0.00    +0.000 A 
ATOM     21  C   UNL     1      41.973  -2.232  13.776  0.00  0.00    +0.000 A 
ATOM     22  C   UNL     1      40.766  -1.822  13.260  0.00  0.00    +0.000 A 
BRANCH  20  23
ATOM     23  O   UNL     1      44.152  -1.704  14.680  0.00  0.00    +0.000 OA
ATOM     24  C   UNL     1      44.899  -0.773  15.429  0.00  0.00    +0.000 C 
ENDBRANCH  20  23
ENDBRANCH   7  17
BRANCH   1  26
ATOM     25  N   UNL     1      36.136  -0.868  17.396  0.00  0.00    +0.000 N 
ATOM     26  C   UNL     1      36.542   0.379  16.851  0.00  0.00    +0.000 C 
ATOM     27  O   UNL     1      36.559   1.401  17.580  0.00  0.00    +0.000 OA
BRANCH  25  29
ATOM     28  C   UNL     1      34.716  -2.538  16.287  0.00  0.00    +0.000 C 
ATOM     29  C   UNL     1      36.119  -2.033  16.554  0.00  0.00    +0.000 C 
ENDBRANCH  25  29
BRANCH  25  30
ATOM     30  C   UNL     1      35.752  -0.935  18.783  0.00  0.00    +0.000 C 
ATOM     31  C   UNL     1      36.887  -1.508  19.603  0.00  0.00    +0.000 C 
ENDBRANCH  25  30
ENDBRANCH   1  26
TORSDOF 6
ENDMDL
MODEL 10
REMARK VINA RESULT:      -6.4      5.448      7.528
REMARK  Name = 
REMARK  6 active torsions:
REMARK  status: ('A' for Active; 'I' for Inactive)
REMARK    1  A    between atoms: C_2  and  N_3
REMARK    2  A    between atoms: N_3  and  C_4
REMARK    3  A    between atoms: C_6  and  C_8
REMARK    4  A    between atoms: C_12  and  C_13
REMARK    5  A    between atoms: C_20  and  C_21
REMARK    6  A    between atoms: C_24  and  O_25
REMARK                            x       y       z     vdW  Elec       q    Type
REMARK                         _______ _______ _______ _____ _____    ______ ____
ROOT
ATOM      1  C   UNL     1      37.474   0.732  12.108  0.00  0.00    +0.000 A 
ATOM      2  S   UNL     1      36.546   0.746  13.524  0.00  0.00    +0.000 S 
ATOM      3  C   UNL     1      37.507  -0.302  14.488  0.00  0.00    +0.000 A 
ATOM      4  N   UNL     1      37.381  -0.755  15.776  0.00  0.00    +0.000 NA
ATOM      5  C   UNL     1      38.277  -1.579  16.336  0.00  0.00    +0.000 A 
ATOM      6  C   UNL     1      39.317  -1.924  15.517  0.00  0.00    +0.000 A 
ATOM      7  C   UNL     1      39.494  -1.498  14.214  0.00  0.00    +0.000 A 
ATOM      8  C   UNL     1      38.535  -0.632  13.654  0.00  0.00    +0.000 A 
ATOM      9  C   UNL     1      38.519  -0.092  12.410  0.00  0.00    +0.000 A 
ATOM     10  N   UNL     1      39.528  -0.300  11.374  0.00  0.00    +0.000 NA
ENDROOT
BRANCH   5  11
ATOM     11  C   UNL     1      38.144  -2.062  17.707  0.00  0.00    +0.000 A 
ATOM     12  C   UNL     1      38.802  -3.187  18.156  0.00  0.00    +0.000 A 
ATOM     13  C   UNL     1      38.673  -3.640  19.454  0.00  0.00    +0.000 A 
ATOM     14  C   UNL     1      37.871  -2.973  20.357  0.00  0.00    +0.000 A 
ATOM     15  C   UNL     1      37.213  -1.848  19.908  0.00  0.00    +0.000 A 
ATOM     16  C   UNL     1      37.343  -1.396  18.610  0.00  0.00    +0.000 A 
ENDBRANCH   5  11
BRANCH   7  17
ATOM     17  C   UNL     1      40.636  -1.972  13.436  0.00  0.00    +0.000 A 
ATOM     18  C   UNL     1      41.821  -1.254  13.651  0.00  0.00    +0.000 A 
ATOM     19  C   UNL     1      42.934  -1.662  12.983  0.00  0.00    +0.000 A 
ATOM     20  C   UNL     1      42.947  -2.725  12.127  0.00  0.00    +0.000 A 
ATOM     21  C   UNL     1      41.756  -3.422  11.929  0.00  0.00    +0.000 A 
ATOM     22  C   UNL     1      40.606  -3.045  12.583  0.00  0.00    +0.000 A 
BRANCH  20  23
ATOM     23  O   UNL     1      44.108  -3.099  11.473  0.00  0.00    +0.000 OA
ATOM     24  C   UNL     1      44.058  -4.214  10.613  0.00  0.00    +0.000 C 
ENDBRANCH  20  23
ENDBRANCH   7  17
BRANCH   1  26
ATOM     25  N   UNL     1      37.701   2.757  10.646  0.00  0.00    +0.000 N 
ATOM     26  C   UNL     1      37.166   1.462  10.872  0.00  0.00    +0.000 C 
ATOM     27  O   UNL     1      36.421   0.936  10.009  0.00  0.00    +0.000 OA
BRANCH  25  29
ATOM     28  C   UNL     1      40.010   3.359  11.229  0.00  0.00    +0.000 C 
ATOM     29  C   UNL     1      38.552   3.352  11.640  0.00  0.00    +0.000 C 
ENDBRANCH  25  29
BRANCH  25  30
ATOM     30  C   UNL     1      37.377   3.445   9.421  0.00  0.00    +0.000 C 
ATOM     31  C   UNL     1      36.455   4.609   9.715  0.00  0.00    +0.000 C 
ENDBRANCH  25  30
ENDBRANCH   1  26
TORSDOF 6
ENDMDL
