MODEL 1
REMARK VINA RESULT:      -6.6      0.000      0.000
REMARK  Name = 
REMARK  6 active torsions:
REMARK  status: ('A' for Active; 'I' for Inactive)
REMARK    1  A    between atoms: C_2  and  C_3
REMARK    2  A    between atoms: C_3  and  C_4
REMARK    3  A    between atoms: C_4  and  N_5
REMARK    4  A    between atoms: N_5  and  C_6
REMARK    5  A    between atoms: C_6  and  N_8
REMARK    6  A    between atoms: N_8  and  C_9
REMARK                            x       y       z     vdW  Elec       q    Type
REMARK                         _______ _______ _______ _____ _____    ______ ____
ROOT
ATOM      1  C   UNL     1      16.578  11.047  34.364  0.00  0.00    +0.000 A 
ATOM      2  C   UNL     1      17.654  10.239  34.109  0.00  0.00    +0.000 A 
ATOM      3  C   UNL     1      18.245   9.494  35.098  0.00  0.00    +0.000 A 
ATOM      4  C   UNL     1      17.735   9.564  36.391  0.00  0.00    +0.000 A 
ATOM      5  C   UNL     1      16.647  10.386  36.632  0.00  0.00    +0.000 A 
ATOM      6  N   UNL     1      16.153  10.451  37.896  0.00  0.00    +0.000 NA
ATOM      7  C   UNL     1      15.112  11.217  38.200  0.00  0.00    +0.000 A 
ATOM      8  C   UNL     1      14.477  11.988  37.247  0.00  0.00    +0.000 A 
ATOM      9  C   UNL     1      14.982  11.921  35.958  0.00  0.00    +0.000 A 
ATOM     10  C   UNL     1      16.068  11.125  35.632  0.00  0.00    +0.000 A 
ENDROOT
BRANCH   1  11
ATOM     11  N   UNL     1      16.007  11.793  33.316  0.00  0.00    +0.000 NA
BRANCH  11  12
ATOM     12  C   UNL     1      15.522  11.147  32.149  0.00  0.00    +0.000 C 
ATOM     13  S   UNL     1      14.537   9.841  32.237  0.00  0.00    +0.000 S 
BRANCH  12  14
ATOM     14  N   UNL     1      15.939  11.699  30.906  0.00  0.00    +0.000 NA
BRANCH  14  15
ATOM     15  C   UNL     1      15.762  13.097  30.577  0.00  0.00    +0.000 C 
BRANCH  15  16
ATOM     16  C   UNL     1      14.284  13.452  30.646  0.00  0.00    +0.000 C 
BRANCH  16  18
ATOM     17  C   UNL     1      13.543  14.311  32.819  0.00  0.00    +0.000 C 
ATOM     18  C   UNL     1      14.098  14.715  31.471  0.00  0.00    +0.000 C 
ENDBRANCH  16  18
ENDBRANCH  15  16
ENDBRANCH  14  15
ENDBRANCH  12  14
ENDBRANCH  11  12
ENDBRANCH   1  11
TORSDOF 6
ENDMDL
MODEL 2
REMARK VINA RESULT:      -6.1      1.725      3.199
REMARK  Name = 
REMARK  6 active torsions:
REMARK  status: ('A' for Active; 'I' for Inactive)
REMARK    1  A    between atoms: C_2  and  C_3
REMARK    2  A    between atoms: C_3  and  C_4
REMARK    3  A    between atoms: C_4  and  N_5
REMARK    4  A    between atoms: N_5  and  C_6
REMARK    5  A    between atoms: C_6  and  N_8
REMARK    6  A    between atoms: N_8  and  C_9
REMARK                            x       y       z     vdW  Elec       q    Type
REMARK                         _______ _______ _______ _____ _____    ______ ____
ROOT
ATOM      1  C   UNL     1      15.121  11.846  36.368  0.00  0.00    +0.000 A 
ATOM      2  C   UNL     1      13.783  12.126  36.310  0.00  0.00    +0.000 A 
ATOM      3  C   UNL     1      12.928  11.762  37.319  0.00  0.00    +0.000 A 
ATOM      4  C   UNL     1      13.437  11.094  38.428  0.00  0.00    +0.000 A 
ATOM      5  C   UNL     1      14.794  10.819  38.471  0.00  0.00    +0.000 A 
ATOM      6  N   UNL     1      15.287  10.166  39.555  0.00  0.00    +0.000 NA
ATOM      7  C   UNL     1      16.577   9.870  39.664  0.00  0.00    +0.000 A 
ATOM      8  C   UNL     1      17.484  10.210  38.682  0.00  0.00    +0.000 A 
ATOM      9  C   UNL     1      16.979  10.876  37.576  0.00  0.00    +0.000 A 
ATOM     10  C   UNL     1      15.636  11.189  37.453  0.00  0.00    +0.000 A 
ENDROOT
BRANCH   1  11
ATOM     11  N   UNL     1      15.959  12.239  35.306  0.00  0.00    +0.000 NA
BRANCH  11  12
ATOM     12  C   UNL     1      16.043  11.458  34.124  0.00  0.00    +0.000 C 
ATOM     13  S   UNL     1      17.079  10.195  34.003  0.00  0.00    +0.000 S 
BRANCH  12  14
ATOM     14  N   UNL     1      15.180  11.835  33.059  0.00  0.00    +0.000 NA
BRANCH  14  15
ATOM     15  C   UNL     1      15.325  11.314  31.718  0.00  0.00    +0.000 C 
BRANCH  15  16
ATOM     16  C   UNL     1      14.616  12.235  30.735  0.00  0.00    +0.000 C 
BRANCH  16  18
ATOM     17  C   UNL     1      16.509  13.684  30.161  0.00  0.00    +0.000 C 
ATOM     18  C   UNL     1      15.170  13.646  30.865  0.00  0.00    +0.000 C 
ENDBRANCH  16  18
ENDBRANCH  15  16
ENDBRANCH  14  15
ENDBRANCH  12  14
ENDBRANCH  11  12
ENDBRANCH   1  11
TORSDOF 6
ENDMDL
MODEL 3
REMARK VINA RESULT:      -5.5      3.043      6.942
REMARK  Name = 
REMARK  6 active torsions:
REMARK  status: ('A' for Active; 'I' for Inactive)
REMARK    1  A    between atoms: C_2  and  C_3
REMARK    2  A    between atoms: C_3  and  C_4
REMARK    3  A    between atoms: C_4  and  N_5
REMARK    4  A    between atoms: N_5  and  C_6
REMARK    5  A    between atoms: C_6  and  N_8
REMARK    6  A    between atoms: N_8  and  C_9
REMARK                            x       y       z     vdW  Elec       q    Type
REMARK                         _______ _______ _______ _____ _____    ______ ____
ROOT
ATOM      1  C   UNL     1      17.159  10.245  36.881  0.00  0.00    +0.000 A 
ATOM      2  C   UNL     1      16.398  10.692  37.927  0.00  0.00    +0.000 A 
ATOM      3  C   UNL     1      15.284  11.467  37.728  0.00  0.00    +0.000 A 
ATOM      4  C   UNL     1      14.920  11.805  36.427  0.00  0.00    +0.000 A 
ATOM      5  C   UNL     1      15.701  11.344  35.380  0.00  0.00    +0.000 A 
ATOM      6  N   UNL     1      15.343  11.677  34.113  0.00  0.00    +0.000 NA
ATOM      7  C   UNL     1      16.044  11.271  33.061  0.00  0.00    +0.000 A 
ATOM      8  C   UNL     1      17.174  10.491  33.199  0.00  0.00    +0.000 A 
ATOM      9  C   UNL     1      17.538  10.152  34.493  0.00  0.00    +0.000 A 
ATOM     10  C   UNL     1      16.813  10.571  35.597  0.00  0.00    +0.000 A 
ENDROOT
BRANCH   1  11
ATOM     11  N   UNL     1      18.295   9.454  37.137  0.00  0.00    +0.000 NA
BRANCH  11  12
ATOM     12  C   UNL     1      19.245   9.846  38.116  0.00  0.00    +0.000 C 
ATOM     13  S   UNL     1      19.947  11.326  38.085  0.00  0.00    +0.000 S 
BRANCH  12  14
ATOM     14  N   UNL     1      19.548   8.883  39.118  0.00  0.00    +0.000 NA
BRANCH  14  15
ATOM     15  C   UNL     1      18.539   8.032  39.710  0.00  0.00    +0.000 C 
BRANCH  15  16
ATOM     16  C   UNL     1      17.839   8.782  40.835  0.00  0.00    +0.000 C 
BRANCH  16  18
ATOM     17  C   UNL     1      15.453   9.255  41.139  0.00  0.00    +0.000 C 
ATOM     18  C   UNL     1      16.484   8.149  41.107  0.00  0.00    +0.000 C 
ENDBRANCH  16  18
ENDBRANCH  15  16
ENDBRANCH  14  15
ENDBRANCH  12  14
ENDBRANCH  11  12
ENDBRANCH   1  11
TORSDOF 6
ENDMDL
MODEL 4
REMARK VINA RESULT:      -5.4     17.192     19.672
REMARK  Name = 
REMARK  6 active torsions:
REMARK  status: ('A' for Active; 'I' for Inactive)
REMARK    1  A    between atoms: C_2  and  C_3
REMARK    2  A    between atoms: C_3  and  C_4
REMARK    3  A    between atoms: C_4  and  N_5
REMARK    4  A    between atoms: N_5  and  C_6
REMARK    5  A    between atoms: C_6  and  N_8
REMARK    6  A    between atoms: N_8  and  C_9
REMARK                            x       y       z     vdW  Elec       q    Type
REMARK                         _______ _______ _______ _____ _____    ______ ____
ROOT
ATOM      1  C   UNL     1      27.534  23.012  25.219  0.00  0.00    +0.000 A 
ATOM      2  C   UNL     1      28.422  22.476  26.112  0.00  0.00    +0.000 A 
ATOM      3  C   UNL     1      29.764  22.399  25.836  0.00  0.00    +0.000 A 
ATOM      4  C   UNL     1      30.230  22.880  24.616  0.00  0.00    +0.000 A 
ATOM      5  C   UNL     1      29.319  23.419  23.723  0.00  0.00    +0.000 A 
ATOM      6  N   UNL     1      29.779  23.886  22.533  0.00  0.00    +0.000 NA
ATOM      7  C   UNL     1      28.963  24.416  21.630  0.00  0.00    +0.000 A 
ATOM      8  C   UNL     1      27.605  24.520  21.851  0.00  0.00    +0.000 A 
ATOM      9  C   UNL     1      27.137  24.042  23.066  0.00  0.00    +0.000 A 
ATOM     10  C   UNL     1      27.980  23.488  24.015  0.00  0.00    +0.000 A 
ENDROOT
BRANCH   1  11
ATOM     11  N   UNL     1      26.167  23.068  25.548  0.00  0.00    +0.000 NA
BRANCH  11  12
ATOM     12  C   UNL     1      25.668  24.086  26.401  0.00  0.00    +0.000 C 
ATOM     13  S   UNL     1      25.161  25.528  25.811  0.00  0.00    +0.000 S 
BRANCH  12  14
ATOM     14  N   UNL     1      25.636  23.782  27.790  0.00  0.00    +0.000 NA
BRANCH  14  15
ATOM     15  C   UNL     1      26.080  24.715  28.802  0.00  0.00    +0.000 C 
BRANCH  15  16
ATOM     16  C   UNL     1      26.145  24.011  30.149  0.00  0.00    +0.000 C 
BRANCH  16  18
ATOM     17  C   UNL     1      27.931  22.336  30.268  0.00  0.00    +0.000 C 
ATOM     18  C   UNL     1      26.467  22.539  29.943  0.00  0.00    +0.000 C 
ENDBRANCH  16  18
ENDBRANCH  15  16
ENDBRANCH  14  15
ENDBRANCH  12  14
ENDBRANCH  11  12
ENDBRANCH   1  11
TORSDOF 6
ENDMDL
MODEL 5
REMARK VINA RESULT:      -5.3     17.376     19.147
REMARK  Name = 
REMARK  6 active torsions:
REMARK  status: ('A' for Active; 'I' for Inactive)
REMARK    1  A    between atoms: C_2  and  C_3
REMARK    2  A    between atoms: C_3  and  C_4
REMARK    3  A    between atoms: C_4  and  N_5
REMARK    4  A    between atoms: N_5  and  C_6
REMARK    5  A    between atoms: C_6  and  N_8
REMARK    6  A    between atoms: N_8  and  C_9
REMARK                            x       y       z     vdW  Elec       q    Type
REMARK                         _______ _______ _______ _____ _____    ______ ____
ROOT
ATOM      1  C   UNL     1      27.844  22.698  26.113  0.00  0.00    +0.000 A 
ATOM      2  C   UNL     1      28.999  22.545  25.396  0.00  0.00    +0.000 A 
ATOM      3  C   UNL     1      30.223  22.470  26.011  0.00  0.00    +0.000 A 
ATOM      4  C   UNL     1      30.287  22.551  27.399  0.00  0.00    +0.000 A 
ATOM      5  C   UNL     1      29.109  22.706  28.109  0.00  0.00    +0.000 A 
ATOM      6  N   UNL     1      29.176  22.784  29.463  0.00  0.00    +0.000 NA
ATOM      7  C   UNL     1      28.087  22.933  30.209  0.00  0.00    +0.000 A 
ATOM      8  C   UNL     1      26.830  23.015  29.646  0.00  0.00    +0.000 A 
ATOM      9  C   UNL     1      26.762  22.934  28.264  0.00  0.00    +0.000 A 
ATOM     10  C   UNL     1      27.892  22.780  27.478  0.00  0.00    +0.000 A 
ENDROOT
BRANCH   1  11
ATOM     11  N   UNL     1      26.612  22.772  25.436  0.00  0.00    +0.000 NA
BRANCH  11  12
ATOM     12  C   UNL     1      26.401  23.740  24.419  0.00  0.00    +0.000 C 
ATOM     13  S   UNL     1      26.183  25.324  24.775  0.00  0.00    +0.000 S 
BRANCH  12  14
ATOM     14  N   UNL     1      26.391  23.254  23.082  0.00  0.00    +0.000 NA
BRANCH  14  15
ATOM     15  C   UNL     1      26.995  23.980  21.987  0.00  0.00    +0.000 C 
BRANCH  15  16
ATOM     16  C   UNL     1      28.491  23.703  21.958  0.00  0.00    +0.000 C 
BRANCH  16  18
ATOM     17  C   UNL     1      29.694  25.464  23.166  0.00  0.00    +0.000 C 
ATOM     18  C   UNL     1      29.252  25.009  21.793  0.00  0.00    +0.000 C 
ENDBRANCH  16  18
ENDBRANCH  15  16
ENDBRANCH  14  15
ENDBRANCH  12  14
ENDBRANCH  11  12
ENDBRANCH   1  11
TORSDOF 6
ENDMDL
MODEL 6
REMARK VINA RESULT:      -5.3      3.392      6.405
REMARK  Name = 
REMARK  6 active torsions:
REMARK  status: ('A' for Active; 'I' for Inactive)
REMARK    1  A    between atoms: C_2  and  C_3
REMARK    2  A    between atoms: C_3  and  C_4
REMARK    3  A    between atoms: C_4  and  N_5
REMARK    4  A    between atoms: N_5  and  C_6
REMARK    5  A    between atoms: C_6  and  N_8
REMARK    6  A    between atoms: N_8  and  C_9
REMARK                            x       y       z     vdW  Elec       q    Type
REMARK                         _______ _______ _______ _____ _____    ______ ____
ROOT
ATOM      1  C   UNL     1      16.913  10.318  36.644  0.00  0.00    +0.000 A 
ATOM      2  C   UNL     1      16.186  10.844  37.678  0.00  0.00    +0.000 A 
ATOM      3  C   UNL     1      15.161  11.730  37.459  0.00  0.00    +0.000 A 
ATOM      4  C   UNL     1      14.855  12.099  36.153  0.00  0.00    +0.000 A 
ATOM      5  C   UNL     1      15.600  11.557  35.119  0.00  0.00    +0.000 A 
ATOM      6  N   UNL     1      15.298  11.920  33.845  0.00  0.00    +0.000 NA
ATOM      7  C   UNL     1      15.970  11.440  32.805  0.00  0.00    +0.000 A 
ATOM      8  C   UNL     1      17.010  10.547  32.963  0.00  0.00    +0.000 A 
ATOM      9  C   UNL     1      17.317  10.178  34.263  0.00  0.00    +0.000 A 
ATOM     10  C   UNL     1      16.623  10.673  35.354  0.00  0.00    +0.000 A 
ENDROOT
BRANCH   1  11
ATOM     11  N   UNL     1      17.956   9.414  36.920  0.00  0.00    +0.000 NA
BRANCH  11  12
ATOM     12  C   UNL     1      18.932   9.713  37.905  0.00  0.00    +0.000 C 
ATOM     13  S   UNL     1      19.130   8.771  39.231  0.00  0.00    +0.000 S 
BRANCH  12  14
ATOM     14  N   UNL     1      19.724  10.872  37.674  0.00  0.00    +0.000 NA
BRANCH  14  15
ATOM     15  C   UNL     1      21.167  10.858  37.759  0.00  0.00    +0.000 C 
BRANCH  15  16
ATOM     16  C   UNL     1      21.656  12.187  38.316  0.00  0.00    +0.000 C 
BRANCH  16  18
ATOM     17  C   UNL     1      20.989  14.458  38.959  0.00  0.00    +0.000 C 
ATOM     18  C   UNL     1      20.465  13.072  38.648  0.00  0.00    +0.000 C 
ENDBRANCH  16  18
ENDBRANCH  15  16
ENDBRANCH  14  15
ENDBRANCH  12  14
ENDBRANCH  11  12
ENDBRANCH   1  11
TORSDOF 6
ENDMDL
MODEL 7
REMARK VINA RESULT:      -5.2     20.370     22.227
REMARK  Name = 
REMARK  6 active torsions:
REMARK  status: ('A' for Active; 'I' for Inactive)
REMARK    1  A    between atoms: C_2  and  C_3
REMARK    2  A    between atoms: C_3  and  C_4
REMARK    3  A    between atoms: C_4  and  N_5
REMARK    4  A    between atoms: N_5  and  C_6
REMARK    5  A    between atoms: C_6  and  N_8
REMARK    6  A    between atoms: N_8  and  C_9
REMARK                            x       y       z     vdW  Elec       q    Type
REMARK                         _______ _______ _______ _____ _____    ______ ____
ROOT
ATOM      1  C   UNL     1      20.556  -7.367  25.956  0.00  0.00    +0.000 A 
ATOM      2  C   UNL     1      20.364  -6.046  25.654  0.00  0.00    +0.000 A 
ATOM      3  C   UNL     1      19.248  -5.366  26.073  0.00  0.00    +0.000 A 
ATOM      4  C   UNL     1      18.289  -6.040  26.823  0.00  0.00    +0.000 A 
ATOM      5  C   UNL     1      18.499  -7.376  27.120  0.00  0.00    +0.000 A 
ATOM      6  N   UNL     1      17.560  -8.030  27.853  0.00  0.00    +0.000 NA
ATOM      7  C   UNL     1      17.694  -9.311  28.175  0.00  0.00    +0.000 A 
ATOM      8  C   UNL     1      18.794 -10.046  27.782  0.00  0.00    +0.000 A 
ATOM      9  C   UNL     1      19.751  -9.378  27.035  0.00  0.00    +0.000 A 
ATOM     10  C   UNL     1      19.620  -8.042  26.693  0.00  0.00    +0.000 A 
ENDROOT
BRANCH   1  11
ATOM     11  N   UNL     1      21.717  -8.021  25.503  0.00  0.00    +0.000 NA
BRANCH  11  12
ATOM     12  C   UNL     1      21.881  -8.334  24.128  0.00  0.00    +0.000 C 
ATOM     13  S   UNL     1      20.909  -9.414  23.371  0.00  0.00    +0.000 S 
BRANCH  12  14
ATOM     14  N   UNL     1      22.934  -7.657  23.452  0.00  0.00    +0.000 NA
BRANCH  14  15
ATOM     15  C   UNL     1      23.643  -6.541  24.037  0.00  0.00    +0.000 C 
BRANCH  15  16
ATOM     16  C   UNL     1      25.124  -6.651  23.706  0.00  0.00    +0.000 C 
BRANCH  16  18
ATOM     17  C   UNL     1      26.867  -8.019  22.656  0.00  0.00    +0.000 C 
ATOM     18  C   UNL     1      25.378  -7.919  22.907  0.00  0.00    +0.000 C 
ENDBRANCH  16  18
ENDBRANCH  15  16
ENDBRANCH  14  15
ENDBRANCH  12  14
ENDBRANCH  11  12
ENDBRANCH   1  11
TORSDOF 6
ENDMDL
MODEL 8
REMARK VINA RESULT:      -5.2     17.916     19.648
REMARK  Name = 
REMARK  6 active torsions:
REMARK  status: ('A' for Active; 'I' for Inactive)
REMARK    1  A    between atoms: C_2  and  C_3
REMARK    2  A    between atoms: C_3  and  C_4
REMARK    3  A    between atoms: C_4  and  N_5
REMARK    4  A    between atoms: N_5  and  C_6
REMARK    5  A    between atoms: C_6  and  N_8
REMARK    6  A    between atoms: N_8  and  C_9
REMARK                            x       y       z     vdW  Elec       q    Type
REMARK                         _______ _______ _______ _____ _____    ______ ____
ROOT
ATOM      1  C   UNL     1      28.571  22.443  26.498  0.00  0.00    +0.000 A 
ATOM      2  C   UNL     1      29.930  22.336  26.372  0.00  0.00    +0.000 A 
ATOM      3  C   UNL     1      30.560  22.545  25.172  0.00  0.00    +0.000 A 
ATOM      4  C   UNL     1      29.796  22.874  24.056  0.00  0.00    +0.000 A 
ATOM      5  C   UNL     1      28.423  22.977  24.200  0.00  0.00    +0.000 A 
ATOM      6  N   UNL     1      27.681  23.298  23.109  0.00  0.00    +0.000 NA
ATOM      7  C   UNL     1      26.360  23.415  23.173  0.00  0.00    +0.000 A 
ATOM      8  C   UNL     1      25.671  23.217  24.352  0.00  0.00    +0.000 A 
ATOM      9  C   UNL     1      26.429  22.890  25.465  0.00  0.00    +0.000 A 
ATOM     10  C   UNL     1      27.807  22.765  25.408  0.00  0.00    +0.000 A 
ENDROOT
BRANCH   1  11
ATOM     11  N   UNL     1      27.970  22.218  27.751  0.00  0.00    +0.000 NA
BRANCH  11  12
ATOM     12  C   UNL     1      28.119  23.157  28.804  0.00  0.00    +0.000 C 
ATOM     13  S   UNL     1      29.067  22.846  30.103  0.00  0.00    +0.000 S 
BRANCH  12  14
ATOM     14  N   UNL     1      27.400  24.377  28.665  0.00  0.00    +0.000 NA
BRANCH  14  15
ATOM     15  C   UNL     1      28.042  25.621  28.305  0.00  0.00    +0.000 C 
BRANCH  15  16
ATOM     16  C   UNL     1      27.440  26.148  27.011  0.00  0.00    +0.000 C 
BRANCH  16  18
ATOM     17  C   UNL     1      27.859  26.615  24.640  0.00  0.00    +0.000 C 
ATOM     18  C   UNL     1      28.527  26.283  25.957  0.00  0.00    +0.000 C 
ENDBRANCH  16  18
ENDBRANCH  15  16
ENDBRANCH  14  15
ENDBRANCH  12  14
ENDBRANCH  11  12
ENDBRANCH   1  11
TORSDOF 6
ENDMDL
MODEL 9
REMARK VINA RESULT:      -5.2     18.132     20.472
REMARK  Name = 
REMARK  6 active torsions:
REMARK  status: ('A' for Active; 'I' for Inactive)
REMARK    1  A    between atoms: C_2  and  C_3
REMARK    2  A    between atoms: C_3  and  C_4
REMARK    3  A    between atoms: C_4  and  N_5
REMARK    4  A    between atoms: N_5  and  C_6
REMARK    5  A    between atoms: C_6  and  N_8
REMARK    6  A    between atoms: N_8  and  C_9
REMARK                            x       y       z     vdW  Elec       q    Type
REMARK                         _______ _______ _______ _____ _____    ______ ____
ROOT
ATOM      1  C   UNL     1      28.602  22.745  25.677  0.00  0.00    +0.000 A 
ATOM      2  C   UNL     1      29.804  22.530  26.294  0.00  0.00    +0.000 A 
ATOM      3  C   UNL     1      30.994  22.778  25.659  0.00  0.00    +0.000 A 
ATOM      4  C   UNL     1      30.975  23.262  24.354  0.00  0.00    +0.000 A 
ATOM      5  C   UNL     1      29.750  23.474  23.744  0.00  0.00    +0.000 A 
ATOM      6  N   UNL     1      29.735  23.946  22.470  0.00  0.00    +0.000 NA
ATOM      7  C   UNL     1      28.598  24.173  21.823  0.00  0.00    +0.000 A 
ATOM      8  C   UNL     1      27.372  23.942  22.410  0.00  0.00    +0.000 A 
ATOM      9  C   UNL     1      27.387  23.460  23.710  0.00  0.00    +0.000 A 
ATOM     10  C   UNL     1      28.568  23.220  24.393  0.00  0.00    +0.000 A 
ENDROOT
BRANCH   1  11
ATOM     11  N   UNL     1      27.407  22.473  26.370  0.00  0.00    +0.000 NA
BRANCH  11  12
ATOM     12  C   UNL     1      27.010  23.276  27.471  0.00  0.00    +0.000 C 
ATOM     13  S   UNL     1      27.194  22.764  29.016  0.00  0.00    +0.000 S 
BRANCH  12  14
ATOM     14  N   UNL     1      26.448  24.544  27.154  0.00  0.00    +0.000 NA
BRANCH  14  15
ATOM     15  C   UNL     1      27.144  25.787  27.401  0.00  0.00    +0.000 C 
BRANCH  15  16
ATOM     16  C   UNL     1      27.681  26.338  26.088  0.00  0.00    +0.000 C 
BRANCH  16  18
ATOM     17  C   UNL     1      29.687  26.936  24.812  0.00  0.00    +0.000 C 
ATOM     18  C   UNL     1      29.199  26.392  26.137  0.00  0.00    +0.000 C 
ENDBRANCH  16  18
ENDBRANCH  15  16
ENDBRANCH  14  15
ENDBRANCH  12  14
ENDBRANCH  11  12
ENDBRANCH   1  11
TORSDOF 6
ENDMDL
MODEL 10
REMARK VINA RESULT:      -5.0      4.358      6.577
REMARK  Name = 
REMARK  6 active torsions:
REMARK  status: ('A' for Active; 'I' for Inactive)
REMARK    1  A    between atoms: C_2  and  C_3
REMARK    2  A    between atoms: C_3  and  C_4
REMARK    3  A    between atoms: C_4  and  N_5
REMARK    4  A    between atoms: N_5  and  C_6
REMARK    5  A    between atoms: C_6  and  N_8
REMARK    6  A    between atoms: N_8  and  C_9
REMARK                            x       y       z     vdW  Elec       q    Type
REMARK                         _______ _______ _______ _____ _____    ______ ____
ROOT
ATOM      1  C   UNL     1      18.000   8.654  39.864  0.00  0.00    +0.000 A 
ATOM      2  C   UNL     1      16.957   9.486  40.172  0.00  0.00    +0.000 A 
ATOM      3  C   UNL     1      15.962   9.103  41.034  0.00  0.00    +0.000 A 
ATOM      4  C   UNL     1      16.016   7.837  41.610  0.00  0.00    +0.000 A 
ATOM      5  C   UNL     1      17.078   7.008  41.287  0.00  0.00    +0.000 A 
ATOM      6  N   UNL     1      17.127   5.773  41.851  0.00  0.00    +0.000 NA
ATOM      7  C   UNL     1      18.115   4.925  41.588  0.00  0.00    +0.000 A 
ATOM      8  C   UNL     1      19.143   5.254  40.730  0.00  0.00    +0.000 A 
ATOM      9  C   UNL     1      19.092   6.515  40.155  0.00  0.00    +0.000 A 
ATOM     10  C   UNL     1      18.066   7.406  40.422  0.00  0.00    +0.000 A 
ENDROOT
BRANCH   1  11
ATOM     11  N   UNL     1      18.997   9.092  38.972  0.00  0.00    +0.000 NA
BRANCH  11  12
ATOM     12  C   UNL     1      18.668   9.921  37.869  0.00  0.00    +0.000 C 
ATOM     13  S   UNL     1      18.934  11.538  37.902  0.00  0.00    +0.000 S 
BRANCH  12  14
ATOM     14  N   UNL     1      18.098   9.270  36.741  0.00  0.00    +0.000 NA
BRANCH  14  15
ATOM     15  C   UNL     1      17.173   9.930  35.846  0.00  0.00    +0.000 C 
BRANCH  15  16
ATOM     16  C   UNL     1      17.737   9.917  34.433  0.00  0.00    +0.000 C 
BRANCH  16  18
ATOM     17  C   UNL     1      15.863  11.494  34.326  0.00  0.00    +0.000 C 
ATOM     18  C   UNL     1      16.775  10.623  33.490  0.00  0.00    +0.000 C 
ENDBRANCH  16  18
ENDBRANCH  15  16
ENDBRANCH  14  15
ENDBRANCH  12  14
ENDBRANCH  11  12
ENDBRANCH   1  11
TORSDOF 6
ENDMDL
