MODEL 1
REMARK VINA RESULT:      -7.7      0.000      0.000
REMARK  Name = 
REMARK  2 active torsions:
REMARK  status: ('A' for Active; 'I' for Inactive)
REMARK    1  A    between atoms: C_12  and  C_13
REMARK    2  A    between atoms: C_13  and  C_14
REMARK                            x       y       z     vdW  Elec       q    Type
REMARK                         _______ _______ _______ _____ _____    ______ ____
ROOT
ATOM      1  C   UNL     1      15.461  12.544  36.371  0.00  0.00    +0.000 C 
ATOM      2  C   UNL     1      15.561  11.023  35.792  0.00  0.00    +0.000 C 
ATOM      3  C   UNL     1      16.866  10.642  36.594  0.00  0.00    +0.000 A 
ATOM      4  C   UNL     1      17.155  10.756  37.925  0.00  0.00    +0.000 A 
ATOM      5  C   UNL     1      18.370  10.300  38.381  0.00  0.00    +0.000 A 
ATOM      6  O   UNL     1      18.723  10.392  39.747  0.00  0.00    +0.000 OA
ATOM      7  C   UNL     1      19.251   9.745  37.476  0.00  0.00    +0.000 A 
ATOM      8  O   UNL     1      20.467   9.297  37.980  0.00  0.00    +0.000 OA
ATOM      9  C   UNL     1      18.940   9.638  36.127  0.00  0.00    +0.000 A 
ATOM     10  C   UNL     1      17.710  10.107  35.694  0.00  0.00    +0.000 A 
ATOM     11  O   UNL     1      17.182  10.113  34.411  0.00  0.00    +0.000 OA
ATOM     12  C   UNL     1      16.469  11.518  34.422  0.00  0.00    +0.000 C 
ENDROOT
BRANCH  12  13
ATOM     13  C   UNL     1      15.302  10.988  33.358  0.00  0.00    +0.000 C 
BRANCH  13  14
ATOM     14  C   UNL     1      15.296  12.073  32.338  0.00  0.00    +0.000 A 
ATOM     15  C   UNL     1      14.293  13.017  32.254  0.00  0.00    +0.000 A 
ATOM     16  C   UNL     1      14.291  14.020  31.309  0.00  0.00    +0.000 A 
ATOM     17  C   UNL     1      15.340  14.091  30.400  0.00  0.00    +0.000 A 
ATOM     18  C   UNL     1      16.352  13.157  30.464  0.00  0.00    +0.000 A 
ATOM     19  C   UNL     1      16.328  12.150  31.435  0.00  0.00    +0.000 A 
ENDBRANCH  13  14
ENDBRANCH  12  13
TORSDOF 2
ENDMDL
MODEL 2
REMARK VINA RESULT:      -7.5      2.259      7.033
REMARK  Name = 
REMARK  2 active torsions:
REMARK  status: ('A' for Active; 'I' for Inactive)
REMARK    1  A    between atoms: C_12  and  C_13
REMARK    2  A    between atoms: C_13  and  C_14
REMARK                            x       y       z     vdW  Elec       q    Type
REMARK                         _______ _______ _______ _____ _____    ______ ____
ROOT
ATOM      1  C   UNL     1      14.793  11.767  37.252  0.00  0.00    +0.000 C 
ATOM      2  C   UNL     1      16.349  11.968  36.810  0.00  0.00    +0.000 C 
ATOM      3  C   UNL     1      16.106  11.705  35.273  0.00  0.00    +0.000 A 
ATOM      4  C   UNL     1      15.201  12.260  34.411  0.00  0.00    +0.000 A 
ATOM      5  C   UNL     1      15.229  11.883  33.089  0.00  0.00    +0.000 A 
ATOM      6  O   UNL     1      14.319  12.424  32.152  0.00  0.00    +0.000 OA
ATOM      7  C   UNL     1      16.169  10.958  32.683  0.00  0.00    +0.000 A 
ATOM      8  O   UNL     1      16.161  10.605  31.338  0.00  0.00    +0.000 OA
ATOM      9  C   UNL     1      17.079  10.405  33.574  0.00  0.00    +0.000 A 
ATOM     10  C   UNL     1      17.028  10.801  34.901  0.00  0.00    +0.000 A 
ATOM     11  O   UNL     1      17.821  10.391  35.964  0.00  0.00    +0.000 OA
ATOM     12  C   UNL     1      16.729  10.318  37.098  0.00  0.00    +0.000 C 
ENDROOT
BRANCH  12  13
ATOM     13  C   UNL     1      17.850  10.697  38.269  0.00  0.00    +0.000 C 
BRANCH  13  14
ATOM     14  C   UNL     1      17.724   9.546  39.204  0.00  0.00    +0.000 A 
ATOM     15  C   UNL     1      16.743   9.469  40.172  0.00  0.00    +0.000 A 
ATOM     16  C   UNL     1      16.628   8.402  41.035  0.00  0.00    +0.000 A 
ATOM     17  C   UNL     1      17.536   7.354  40.934  0.00  0.00    +0.000 A 
ATOM     18  C   UNL     1      18.525   7.409  39.975  0.00  0.00    +0.000 A 
ATOM     19  C   UNL     1      18.617   8.505  39.112  0.00  0.00    +0.000 A 
ENDBRANCH  13  14
ENDBRANCH  12  13
TORSDOF 2
ENDMDL
MODEL 3
REMARK VINA RESULT:      -7.0      2.458      7.014
REMARK  Name = 
REMARK  2 active torsions:
REMARK  status: ('A' for Active; 'I' for Inactive)
REMARK    1  A    between atoms: C_12  and  C_13
REMARK    2  A    between atoms: C_13  and  C_14
REMARK                            x       y       z     vdW  Elec       q    Type
REMARK                         _______ _______ _______ _____ _____    ______ ____
ROOT
ATOM      1  C   UNL     1      17.658  10.357  33.953  0.00  0.00    +0.000 C 
ATOM      2  C   UNL     1      16.217  10.371  34.716  0.00  0.00    +0.000 C 
ATOM      3  C   UNL     1      15.534  11.399  33.733  0.00  0.00    +0.000 A 
ATOM      4  C   UNL     1      15.447  11.398  32.369  0.00  0.00    +0.000 A 
ATOM      5  C   UNL     1      14.746  12.406  31.748  0.00  0.00    +0.000 A 
ATOM      6  O   UNL     1      14.621  12.456  30.341  0.00  0.00    +0.000 OA
ATOM      7  C   UNL     1      14.157  13.380  32.529  0.00  0.00    +0.000 A 
ATOM      8  O   UNL     1      13.457  14.380  31.861  0.00  0.00    +0.000 OA
ATOM      9  C   UNL     1      14.257  13.364  33.914  0.00  0.00    +0.000 A 
ATOM     10  C   UNL     1      14.971  12.339  34.512  0.00  0.00    +0.000 A 
ATOM     11  O   UNL     1      15.211  12.114  35.861  0.00  0.00    +0.000 OA
ATOM     12  C   UNL     1      16.705  11.620  35.788  0.00  0.00    +0.000 C 
ENDROOT
BRANCH  12  13
ATOM     13  C   UNL     1      16.502  10.656  37.131  0.00  0.00    +0.000 C 
BRANCH  13  14
ATOM     14  C   UNL     1      17.759  10.909  37.887  0.00  0.00    +0.000 A 
ATOM     15  C   UNL     1      18.555  12.015  37.670  0.00  0.00    +0.000 A 
ATOM     16  C   UNL     1      19.718  12.247  38.372  0.00  0.00    +0.000 A 
ATOM     17  C   UNL     1      20.112  11.333  39.342  0.00  0.00    +0.000 A 
ATOM     18  C   UNL     1      19.332  10.220  39.576  0.00  0.00    +0.000 A 
ATOM     19  C   UNL     1      18.156  10.011  38.848  0.00  0.00    +0.000 A 
ENDBRANCH  13  14
ENDBRANCH  12  13
TORSDOF 2
ENDMDL
MODEL 4
REMARK VINA RESULT:      -6.8     27.527     29.873
REMARK  Name = 
REMARK  2 active torsions:
REMARK  status: ('A' for Active; 'I' for Inactive)
REMARK    1  A    between atoms: C_12  and  C_13
REMARK    2  A    between atoms: C_13  and  C_14
REMARK                            x       y       z     vdW  Elec       q    Type
REMARK                         _______ _______ _______ _____ _____    ______ ____
ROOT
ATOM      1  C   UNL     1      30.291  21.521   9.502  0.00  0.00    +0.000 C 
ATOM      2  C   UNL     1      30.370  20.875  10.996  0.00  0.00    +0.000 C 
ATOM      3  C   UNL     1      29.407  21.929  11.669  0.00  0.00    +0.000 A 
ATOM      4  C   UNL     1      28.159  22.349  11.304  0.00  0.00    +0.000 A 
ATOM      5  C   UNL     1      27.507  23.260  12.102  0.00  0.00    +0.000 A 
ATOM      6  O   UNL     1      26.214  23.730  11.775  0.00  0.00    +0.000 OA
ATOM      7  C   UNL     1      28.140  23.716  13.240  0.00  0.00    +0.000 A 
ATOM      8  O   UNL     1      27.445  24.636  14.018  0.00  0.00    +0.000 OA
ATOM      9  C   UNL     1      29.409  23.278  13.594  0.00  0.00    +0.000 A 
ATOM     10  C   UNL     1      30.043  22.361  12.771  0.00  0.00    +0.000 A 
ATOM     11  O   UNL     1      31.299  21.786  12.912  0.00  0.00    +0.000 OA
ATOM     12  C   UNL     1      31.764  21.789  11.406  0.00  0.00    +0.000 C 
ENDROOT
BRANCH  12  13
ATOM     13  C   UNL     1      32.689  20.423  11.639  0.00  0.00    +0.000 C 
BRANCH  13  14
ATOM     14  C   UNL     1      34.068  20.942  11.422  0.00  0.00    +0.000 A 
ATOM     15  C   UNL     1      35.194  20.297  11.889  0.00  0.00    +0.000 A 
ATOM     16  C   UNL     1      36.469  20.779  11.687  0.00  0.00    +0.000 A 
ATOM     17  C   UNL     1      36.635  21.967  10.983  0.00  0.00    +0.000 A 
ATOM     18  C   UNL     1      35.523  22.630  10.508  0.00  0.00    +0.000 A 
ATOM     19  C   UNL     1      34.241  22.116  10.729  0.00  0.00    +0.000 A 
ENDBRANCH  13  14
ENDBRANCH  12  13
TORSDOF 2
ENDMDL
MODEL 5
REMARK VINA RESULT:      -6.5      1.922      3.298
REMARK  Name = 
REMARK  2 active torsions:
REMARK  status: ('A' for Active; 'I' for Inactive)
REMARK    1  A    between atoms: C_12  and  C_13
REMARK    2  A    between atoms: C_13  and  C_14
REMARK                            x       y       z     vdW  Elec       q    Type
REMARK                         _______ _______ _______ _____ _____    ______ ____
ROOT
ATOM      1  C   UNL     1      18.550   9.516  36.081  0.00  0.00    +0.000 C 
ATOM      2  C   UNL     1      17.984  10.891  36.747  0.00  0.00    +0.000 C 
ATOM      3  C   UNL     1      17.523  10.225  38.102  0.00  0.00    +0.000 A 
ATOM      4  C   UNL     1      18.204   9.419  38.970  0.00  0.00    +0.000 A 
ATOM      5  C   UNL     1      17.574   9.003  40.121  0.00  0.00    +0.000 A 
ATOM      6  O   UNL     1      18.229   8.170  41.056  0.00  0.00    +0.000 OA
ATOM      7  C   UNL     1      16.278   9.416  40.353  0.00  0.00    +0.000 A 
ATOM      8  O   UNL     1      15.680   8.973  41.527  0.00  0.00    +0.000 OA
ATOM      9  C   UNL     1      15.602  10.234  39.457  0.00  0.00    +0.000 A 
ATOM     10  C   UNL     1      16.260  10.637  38.306  0.00  0.00    +0.000 A 
ATOM     11  O   UNL     1      15.797  11.442  37.274  0.00  0.00    +0.000 OA
ATOM     12  C   UNL     1      16.431  10.689  36.043  0.00  0.00    +0.000 C 
ENDROOT
BRANCH  12  13
ATOM     13  C   UNL     1      16.552  12.106  35.177  0.00  0.00    +0.000 C 
BRANCH  13  14
ATOM     14  C   UNL     1      16.085  11.685  33.827  0.00  0.00    +0.000 A 
ATOM     15  C   UNL     1      16.690  10.675  33.106  0.00  0.00    +0.000 A 
ATOM     16  C   UNL     1      16.255  10.288  31.857  0.00  0.00    +0.000 A 
ATOM     17  C   UNL     1      15.163  10.936  31.293  0.00  0.00    +0.000 A 
ATOM     18  C   UNL     1      14.544  11.949  31.995  0.00  0.00    +0.000 A 
ATOM     19  C   UNL     1      15.006  12.321  33.261  0.00  0.00    +0.000 A 
ENDBRANCH  13  14
ENDBRANCH  12  13
TORSDOF 2
ENDMDL
MODEL 6
REMARK VINA RESULT:      -6.5     19.731     21.224
REMARK  Name = 
REMARK  2 active torsions:
REMARK  status: ('A' for Active; 'I' for Inactive)
REMARK    1  A    between atoms: C_12  and  C_13
REMARK    2  A    between atoms: C_13  and  C_14
REMARK                            x       y       z     vdW  Elec       q    Type
REMARK                         _______ _______ _______ _____ _____    ______ ____
ROOT
ATOM      1  C   UNL     1      24.468   1.835  15.772  0.00  0.00    +0.000 C 
ATOM      2  C   UNL     1      23.997   1.769  17.332  0.00  0.00    +0.000 C 
ATOM      3  C   UNL     1      22.458   1.615  17.019  0.00  0.00    +0.000 A 
ATOM      4  C   UNL     1      21.803   0.741  16.198  0.00  0.00    +0.000 A 
ATOM      5  C   UNL     1      20.429   0.790  16.138  0.00  0.00    +0.000 A 
ATOM      6  O   UNL     1      19.698  -0.090  15.307  0.00  0.00    +0.000 OA
ATOM      7  C   UNL     1      19.766   1.721  16.911  0.00  0.00    +0.000 A 
ATOM      8  O   UNL     1      18.378   1.735  16.821  0.00  0.00    +0.000 OA
ATOM      9  C   UNL     1      20.449   2.601  17.739  0.00  0.00    +0.000 A 
ATOM     10  C   UNL     1      21.832   2.531  17.778  0.00  0.00    +0.000 A 
ATOM     11  O   UNL     1      22.724   3.298  18.517  0.00  0.00    +0.000 OA
ATOM     12  C   UNL     1      23.869   3.477  17.449  0.00  0.00    +0.000 C 
ENDROOT
BRANCH  12  13
ATOM     13  C   UNL     1      25.031   3.562  18.640  0.00  0.00    +0.000 C 
BRANCH  13  14
ATOM     14  C   UNL     1      25.789   4.782  18.247  0.00  0.00    +0.000 A 
ATOM     15  C   UNL     1      26.896   5.231  18.937  0.00  0.00    +0.000 A 
ATOM     16  C   UNL     1      27.595   6.361  18.571  0.00  0.00    +0.000 A 
ATOM     17  C   UNL     1      27.174   7.082  17.460  0.00  0.00    +0.000 A 
ATOM     18  C   UNL     1      26.070   6.652  16.755  0.00  0.00    +0.000 A 
ATOM     19  C   UNL     1      25.379   5.501  17.151  0.00  0.00    +0.000 A 
ENDBRANCH  13  14
ENDBRANCH  12  13
TORSDOF 2
ENDMDL
MODEL 7
REMARK VINA RESULT:      -6.4     19.389     21.657
REMARK  Name = 
REMARK  2 active torsions:
REMARK  status: ('A' for Active; 'I' for Inactive)
REMARK    1  A    between atoms: C_12  and  C_13
REMARK    2  A    between atoms: C_13  and  C_14
REMARK                            x       y       z     vdW  Elec       q    Type
REMARK                         _______ _______ _______ _____ _____    ______ ____
ROOT
ATOM      1  C   UNL     1      26.870  24.959  23.762  0.00  0.00    +0.000 C 
ATOM      2  C   UNL     1      27.851  23.882  23.031  0.00  0.00    +0.000 C 
ATOM      3  C   UNL     1      28.462  23.303  24.366  0.00  0.00    +0.000 A 
ATOM      4  C   UNL     1      27.847  22.829  25.491  0.00  0.00    +0.000 A 
ATOM      5  C   UNL     1      28.623  22.332  26.512  0.00  0.00    +0.000 A 
ATOM      6  O   UNL     1      28.042  21.828  27.698  0.00  0.00    +0.000 OA
ATOM      7  C   UNL     1      29.995  22.332  26.361  0.00  0.00    +0.000 A 
ATOM      8  O   UNL     1      30.742  21.820  27.417  0.00  0.00    +0.000 OA
ATOM      9  C   UNL     1      30.602  22.819  25.210  0.00  0.00    +0.000 A 
ATOM     10  C   UNL     1      29.796  23.314  24.199  0.00  0.00    +0.000 A 
ATOM     11  O   UNL     1      30.166  23.851  22.973  0.00  0.00    +0.000 OA
ATOM     12  C   UNL     1      29.121  25.026  22.869  0.00  0.00    +0.000 C 
ENDROOT
BRANCH  12  13
ATOM     13  C   UNL     1      29.104  24.928  21.206  0.00  0.00    +0.000 C 
BRANCH  13  14
ATOM     14  C   UNL     1      29.331  26.345  20.810  0.00  0.00    +0.000 A 
ATOM     15  C   UNL     1      29.882  26.706  19.598  0.00  0.00    +0.000 A 
ATOM     16  C   UNL     1      30.091  28.019  19.235  0.00  0.00    +0.000 A 
ATOM     17  C   UNL     1      29.733  29.027  20.121  0.00  0.00    +0.000 A 
ATOM     18  C   UNL     1      29.180  28.690  21.339  0.00  0.00    +0.000 A 
ATOM     19  C   UNL     1      28.980  27.349  21.681  0.00  0.00    +0.000 A 
ENDBRANCH  13  14
ENDBRANCH  12  13
TORSDOF 2
ENDMDL
MODEL 8
REMARK VINA RESULT:      -6.4     16.952     19.055
REMARK  Name = 
REMARK  2 active torsions:
REMARK  status: ('A' for Active; 'I' for Inactive)
REMARK    1  A    between atoms: C_12  and  C_13
REMARK    2  A    between atoms: C_13  and  C_14
REMARK                            x       y       z     vdW  Elec       q    Type
REMARK                         _______ _______ _______ _____ _____    ______ ____
ROOT
ATOM      1  C   UNL     1      25.721  25.733  26.021  0.00  0.00    +0.000 C 
ATOM      2  C   UNL     1      25.754  24.132  25.716  0.00  0.00    +0.000 C 
ATOM      3  C   UNL     1      26.247  23.713  27.156  0.00  0.00    +0.000 A 
ATOM      4  C   UNL     1      25.760  24.040  28.390  0.00  0.00    +0.000 A 
ATOM      5  C   UNL     1      26.356  23.496  29.504  0.00  0.00    +0.000 A 
ATOM      6  O   UNL     1      25.894  23.797  30.806  0.00  0.00    +0.000 OA
ATOM      7  C   UNL     1      27.425  22.641  29.331  0.00  0.00    +0.000 A 
ATOM      8  O   UNL     1      27.998  22.113  30.483  0.00  0.00    +0.000 OA
ATOM      9  C   UNL     1      27.907  22.322  28.069  0.00  0.00    +0.000 A 
ATOM     10  C   UNL     1      27.288  22.885  26.964  0.00  0.00    +0.000 A 
ATOM     11  O   UNL     1      27.589  22.722  25.619  0.00  0.00    +0.000 OA
ATOM     12  C   UNL     1      27.360  24.197  25.114  0.00  0.00    +0.000 C 
ENDROOT
BRANCH  12  13
ATOM     13  C   UNL     1      26.901  23.660  23.605  0.00  0.00    +0.000 C 
BRANCH  13  14
ATOM     14  C   UNL     1      27.667  24.567  22.707  0.00  0.00    +0.000 A 
ATOM     15  C   UNL     1      28.670  24.123  21.871  0.00  0.00    +0.000 A 
ATOM     16  C   UNL     1      29.378  24.965  21.041  0.00  0.00    +0.000 A 
ATOM     17  C   UNL     1      29.073  26.321  21.040  0.00  0.00    +0.000 A 
ATOM     18  C   UNL     1      28.075  26.788  21.868  0.00  0.00    +0.000 A 
ATOM     19  C   UNL     1      27.373  25.910  22.700  0.00  0.00    +0.000 A 
ENDBRANCH  13  14
ENDBRANCH  12  13
TORSDOF 2
ENDMDL
MODEL 9
REMARK VINA RESULT:      -6.3     19.802     21.401
REMARK  Name = 
REMARK  2 active torsions:
REMARK  status: ('A' for Active; 'I' for Inactive)
REMARK    1  A    between atoms: C_12  and  C_13
REMARK    2  A    between atoms: C_13  and  C_14
REMARK                            x       y       z     vdW  Elec       q    Type
REMARK                         _______ _______ _______ _____ _____    ______ ____
ROOT
ATOM      1  C   UNL     1      26.598   2.965  16.598  0.00  0.00    +0.000 C 
ATOM      2  C   UNL     1      25.933   3.564  17.961  0.00  0.00    +0.000 C 
ATOM      3  C   UNL     1      24.593   2.738  17.851  0.00  0.00    +0.000 A 
ATOM      4  C   UNL     1      24.389   1.398  17.669  0.00  0.00    +0.000 A 
ATOM      5  C   UNL     1      23.099   0.920  17.654  0.00  0.00    +0.000 A 
ATOM      6  O   UNL     1      22.828  -0.455  17.470  0.00  0.00    +0.000 OA
ATOM      7  C   UNL     1      22.060   1.812  17.824  0.00  0.00    +0.000 A 
ATOM      8  O   UNL     1      20.773   1.286  17.802  0.00  0.00    +0.000 OA
ATOM      9  C   UNL     1      22.287   3.170  18.007  0.00  0.00    +0.000 A 
ATOM     10  C   UNL     1      23.596   3.624  18.016  0.00  0.00    +0.000 A 
ATOM     11  O   UNL     1      24.068   4.920  18.177  0.00  0.00    +0.000 OA
ATOM     12  C   UNL     1      25.249   4.905  17.135  0.00  0.00    +0.000 C 
ENDROOT
BRANCH  12  13
ATOM     13  C   UNL     1      26.120   6.004  18.034  0.00  0.00    +0.000 C 
BRANCH  13  14
ATOM     14  C   UNL     1      27.029   6.591  17.011  0.00  0.00    +0.000 A 
ATOM     15  C   UNL     1      28.341   6.926  17.277  0.00  0.00    +0.000 A 
ATOM     16  C   UNL     1      29.179   7.469  16.328  0.00  0.00    +0.000 A 
ATOM     17  C   UNL     1      28.690   7.691  15.046  0.00  0.00    +0.000 A 
ATOM     18  C   UNL     1      27.382   7.365  14.757  0.00  0.00    +0.000 A 
ATOM     19  C   UNL     1      26.554   6.814  15.741  0.00  0.00    +0.000 A 
ENDBRANCH  13  14
ENDBRANCH  12  13
TORSDOF 2
ENDMDL
MODEL 10
REMARK VINA RESULT:      -6.2     18.228     21.006
REMARK  Name = 
REMARK  2 active torsions:
REMARK  status: ('A' for Active; 'I' for Inactive)
REMARK    1  A    between atoms: C_12  and  C_13
REMARK    2  A    between atoms: C_13  and  C_14
REMARK                            x       y       z     vdW  Elec       q    Type
REMARK                         _______ _______ _______ _____ _____    ______ ____
ROOT
ATOM      1  C   UNL     1      30.706  23.092  24.495  0.00  0.00    +0.000 C 
ATOM      2  C   UNL     1      29.151  22.683  24.226  0.00  0.00    +0.000 C 
ATOM      3  C   UNL     1      28.867  23.840  23.191  0.00  0.00    +0.000 A 
ATOM      4  C   UNL     1      29.552  24.213  22.068  0.00  0.00    +0.000 A 
ATOM      5  C   UNL     1      29.058  25.245  21.303  0.00  0.00    +0.000 A 
ATOM      6  O   UNL     1      29.722  25.673  20.132  0.00  0.00    +0.000 OA
ATOM      7  C   UNL     1      27.890  25.863  21.700  0.00  0.00    +0.000 A 
ATOM      8  O   UNL     1      27.427  26.901  20.898  0.00  0.00    +0.000 OA
ATOM      9  C   UNL     1      27.210  25.470  22.845  0.00  0.00    +0.000 A 
ATOM     10  C   UNL     1      27.730  24.430  23.597  0.00  0.00    +0.000 A 
ATOM     11  O   UNL     1      27.237  23.869  24.768  0.00  0.00    +0.000 OA
ATOM     12  C   UNL     1      28.590  23.634  25.541  0.00  0.00    +0.000 C 
ENDROOT
BRANCH  12  13
ATOM     13  C   UNL     1      27.962  22.310  26.334  0.00  0.00    +0.000 C 
BRANCH  13  14
ATOM     14  C   UNL     1      28.425  22.536  27.730  0.00  0.00    +0.000 A 
ATOM     15  C   UNL     1      27.563  22.584  28.807  0.00  0.00    +0.000 A 
ATOM     16  C   UNL     1      27.995  22.794  30.099  0.00  0.00    +0.000 A 
ATOM     17  C   UNL     1      29.354  22.966  30.335  0.00  0.00    +0.000 A 
ATOM     18  C   UNL     1      30.233  22.924  29.274  0.00  0.00    +0.000 A 
ATOM     19  C   UNL     1      29.766  22.709  27.973  0.00  0.00    +0.000 A 
ENDBRANCH  13  14
ENDBRANCH  12  13
TORSDOF 2
ENDMDL
