MODEL 1
REMARK VINA RESULT:      -6.3      0.000      0.000
REMARK  Name = 
REMARK  4 active torsions:
REMARK  status: ('A' for Active; 'I' for Inactive)
REMARK    1  A    between atoms: C_2  and  C_5
REMARK    2  A    between atoms: C_8  and  N_9
REMARK    3  A    between atoms: N_9  and  S_10
REMARK    4  A    between atoms: S_10  and  C_13
REMARK                            x       y       z     vdW  Elec       q    Type
REMARK                         _______ _______ _______ _____ _____    ______ ____
ROOT
ATOM      1  C   UNL     1      20.458  10.194  37.437  0.00  0.00    +0.000 A 
ATOM      2  C   UNL     1      19.589  10.852  38.258  0.00  0.00    +0.000 A 
ATOM      3  C   UNL     1      18.252  10.917  37.966  0.00  0.00    +0.000 A 
ATOM      4  C   UNL     1      17.690  10.328  36.827  0.00  0.00    +0.000 A 
ATOM      5  C   UNL     1      18.588   9.668  36.005  0.00  0.00    +0.000 A 
ATOM      6  C   UNL     1      19.923   9.602  36.297  0.00  0.00    +0.000 A 
ENDROOT
BRANCH   1   8
ATOM      7  C   UNL     1      22.672   9.496  36.520  0.00  0.00    +0.000 C 
ATOM      8  C   UNL     1      21.933  10.108  37.702  0.00  0.00    +0.000 C 
ATOM      9  C   UNL     1      22.485  11.526  37.859  0.00  0.00    +0.000 C 
ATOM     10  C   UNL     1      22.281   9.334  38.936  0.00  0.00    +0.000 C 
ENDBRANCH   1   8
BRANCH   4  11
ATOM     11  N   UNL     1      16.304  10.406  36.559  0.00  0.00    +0.000 NA
BRANCH  11  12
ATOM     12  S   UNL     1      15.663  11.774  35.734  0.00  0.00    +0.000 S 
ATOM     13  O   UNL     1      16.462  13.016  36.112  0.00  0.00    +0.000 OA
ATOM     14  O   UNL     1      14.253  12.017  36.131  0.00  0.00    +0.000 OA
BRANCH  12  15
ATOM     15  C   UNL     1      15.731  11.536  33.986  0.00  0.00    +0.000 A 
ATOM     16  C   UNL     1      16.486  10.608  33.325  0.00  0.00    +0.000 A 
ATOM     17  C   UNL     1      16.391  10.565  32.000  0.00  0.00    +0.000 A 
ATOM     18  C   UNL     1      15.546  11.458  31.395  0.00  0.00    +0.000 A 
ATOM     19  S   UNL     1      14.912  12.316  32.717  0.00  0.00    +0.000 S 
ENDBRANCH  12  15
ENDBRANCH  11  12
ENDBRANCH   4  11
TORSDOF 4
ENDMDL
MODEL 2
REMARK VINA RESULT:      -6.0     18.051     19.227
REMARK  Name = 
REMARK  4 active torsions:
REMARK  status: ('A' for Active; 'I' for Inactive)
REMARK    1  A    between atoms: C_2  and  C_5
REMARK    2  A    between atoms: C_8  and  N_9
REMARK    3  A    between atoms: N_9  and  S_10
REMARK    4  A    between atoms: S_10  and  C_13
REMARK                            x       y       z     vdW  Elec       q    Type
REMARK                         _______ _______ _______ _____ _____    ______ ____
ROOT
ATOM      1  C   UNL     1      26.856  23.063  28.410  0.00  0.00    +0.000 A 
ATOM      2  C   UNL     1      25.936  23.812  27.737  0.00  0.00    +0.000 A 
ATOM      3  C   UNL     1      25.884  23.808  26.368  0.00  0.00    +0.000 A 
ATOM      4  C   UNL     1      26.756  23.052  25.574  0.00  0.00    +0.000 A 
ATOM      5  C   UNL     1      27.684  22.301  26.275  0.00  0.00    +0.000 A 
ATOM      6  C   UNL     1      27.734  22.304  27.642  0.00  0.00    +0.000 A 
ENDROOT
BRANCH   1   8
ATOM      7  C   UNL     1      28.407  23.230  30.358  0.00  0.00    +0.000 C 
ATOM      8  C   UNL     1      26.964  23.045  29.907  0.00  0.00    +0.000 C 
ATOM      9  C   UNL     1      26.189  24.239  30.467  0.00  0.00    +0.000 C 
ATOM     10  C   UNL     1      26.423  21.801  30.538  0.00  0.00    +0.000 C 
ENDBRANCH   1   8
BRANCH   4  11
ATOM     11  N   UNL     1      26.671  23.064  24.163  0.00  0.00    +0.000 NA
BRANCH  11  12
ATOM     12  S   UNL     1      27.798  23.980  23.241  0.00  0.00    +0.000 S 
ATOM     13  O   UNL     1      27.292  25.410  23.095  0.00  0.00    +0.000 OA
ATOM     14  O   UNL     1      27.941  23.420  21.872  0.00  0.00    +0.000 OA
BRANCH  12  15
ATOM     15  C   UNL     1      29.382  23.990  24.021  0.00  0.00    +0.000 A 
ATOM     16  C   UNL     1      30.250  22.936  24.099  0.00  0.00    +0.000 A 
ATOM     17  C   UNL     1      31.411  23.139  24.713  0.00  0.00    +0.000 A 
ATOM     18  C   UNL     1      31.650  24.388  25.225  0.00  0.00    +0.000 A 
ATOM     19  S   UNL     1      30.233  25.229  24.813  0.00  0.00    +0.000 S 
ENDBRANCH  12  15
ENDBRANCH  11  12
ENDBRANCH   4  11
TORSDOF 4
ENDMDL
MODEL 3
REMARK VINA RESULT:      -5.9     17.047     19.475
REMARK  Name = 
REMARK  4 active torsions:
REMARK  status: ('A' for Active; 'I' for Inactive)
REMARK    1  A    between atoms: C_2  and  C_5
REMARK    2  A    between atoms: C_8  and  N_9
REMARK    3  A    between atoms: N_9  and  S_10
REMARK    4  A    between atoms: S_10  and  C_13
REMARK                            x       y       z     vdW  Elec       q    Type
REMARK                         _______ _______ _______ _____ _____    ______ ____
ROOT
ATOM      1  C   UNL     1      33.704   3.319  34.558  0.00  0.00    +0.000 A 
ATOM      2  C   UNL     1      33.698   2.875  33.268  0.00  0.00    +0.000 A 
ATOM      3  C   UNL     1      33.764   1.538  32.979  0.00  0.00    +0.000 A 
ATOM      4  C   UNL     1      33.844   0.547  33.966  0.00  0.00    +0.000 A 
ATOM      5  C   UNL     1      33.852   1.017  35.268  0.00  0.00    +0.000 A 
ATOM      6  C   UNL     1      33.784   2.353  35.556  0.00  0.00    +0.000 A 
ENDROOT
BRANCH   1   8
ATOM      7  C   UNL     1      33.390   4.955  36.416  0.00  0.00    +0.000 C 
ATOM      8  C   UNL     1      33.650   4.773  34.926  0.00  0.00    +0.000 C 
ATOM      9  C   UNL     1      35.020   5.397  34.656  0.00  0.00    +0.000 C 
ATOM     10  C   UNL     1      32.625   5.552  34.164  0.00  0.00    +0.000 C 
ENDBRANCH   1   8
BRANCH   4  11
ATOM     11  N   UNL     1      33.903  -0.826  33.634  0.00  0.00    +0.000 NA
BRANCH  11  12
ATOM     12  S   UNL     1      33.186  -1.994  34.675  0.00  0.00    +0.000 S 
ATOM     13  O   UNL     1      31.794  -1.524  35.082  0.00  0.00    +0.000 OA
ATOM     14  O   UNL     1      33.981  -2.151  35.920  0.00  0.00    +0.000 OA
BRANCH  12  15
ATOM     15  C   UNL     1      33.070  -3.561  33.870  0.00  0.00    +0.000 A 
ATOM     16  C   UNL     1      33.592  -3.882  32.648  0.00  0.00    +0.000 A 
ATOM     17  C   UNL     1      33.419  -5.125  32.211  0.00  0.00    +0.000 A 
ATOM     18  C   UNL     1      32.727  -5.991  33.017  0.00  0.00    +0.000 A 
ATOM     19  S   UNL     1      32.356  -5.022  34.361  0.00  0.00    +0.000 S 
ENDBRANCH  12  15
ENDBRANCH  11  12
ENDBRANCH   4  11
TORSDOF 4
ENDMDL
MODEL 4
REMARK VINA RESULT:      -5.9     19.767     20.871
REMARK  Name = 
REMARK  4 active torsions:
REMARK  status: ('A' for Active; 'I' for Inactive)
REMARK    1  A    between atoms: C_2  and  C_5
REMARK    2  A    between atoms: C_8  and  N_9
REMARK    3  A    between atoms: N_9  and  S_10
REMARK    4  A    between atoms: S_10  and  C_13
REMARK                            x       y       z     vdW  Elec       q    Type
REMARK                         _______ _______ _______ _____ _____    ______ ____
ROOT
ATOM      1  C   UNL     1      31.610  24.339  24.878  0.00  0.00    +0.000 A 
ATOM      2  C   UNL     1      31.170  23.053  24.998  0.00  0.00    +0.000 A 
ATOM      3  C   UNL     1      30.078  22.610  24.299  0.00  0.00    +0.000 A 
ATOM      4  C   UNL     1      29.346  23.428  23.429  0.00  0.00    +0.000 A 
ATOM      5  C   UNL     1      29.805  24.729  23.323  0.00  0.00    +0.000 A 
ATOM      6  C   UNL     1      30.897  25.171  24.020  0.00  0.00    +0.000 A 
ENDROOT
BRANCH   1   8
ATOM      7  C   UNL     1      34.087  24.637  24.875  0.00  0.00    +0.000 C 
ATOM      8  C   UNL     1      32.789  24.878  25.634  0.00  0.00    +0.000 C 
ATOM      9  C   UNL     1      32.642  26.396  25.752  0.00  0.00    +0.000 C 
ATOM     10  C   UNL     1      32.932  24.315  27.014  0.00  0.00    +0.000 C 
ENDBRANCH   1   8
BRANCH   4  11
ATOM     11  N   UNL     1      28.228  22.937  22.716  0.00  0.00    +0.000 NA
BRANCH  11  12
ATOM     12  S   UNL     1      26.717  23.753  22.818  0.00  0.00    +0.000 S 
ATOM     13  O   UNL     1      25.638  22.912  22.146  0.00  0.00    +0.000 OA
ATOM     14  O   UNL     1      26.770  25.055  22.105  0.00  0.00    +0.000 OA
BRANCH  12  15
ATOM     15  C   UNL     1      26.276  24.044  24.503  0.00  0.00    +0.000 A 
ATOM     16  C   UNL     1      26.508  23.202  25.555  0.00  0.00    +0.000 A 
ATOM     17  C   UNL     1      26.120  23.602  26.762  0.00  0.00    +0.000 A 
ATOM     18  C   UNL     1      25.513  24.827  26.860  0.00  0.00    +0.000 A 
ATOM     19  S   UNL     1      25.522  25.370  25.250  0.00  0.00    +0.000 S 
ENDBRANCH  12  15
ENDBRANCH  11  12
ENDBRANCH   4  11
TORSDOF 4
ENDMDL
MODEL 5
REMARK VINA RESULT:      -5.8     20.642     21.467
REMARK  Name = 
REMARK  4 active torsions:
REMARK  status: ('A' for Active; 'I' for Inactive)
REMARK    1  A    between atoms: C_2  and  C_5
REMARK    2  A    between atoms: C_8  and  N_9
REMARK    3  A    between atoms: N_9  and  S_10
REMARK    4  A    between atoms: S_10  and  C_13
REMARK                            x       y       z     vdW  Elec       q    Type
REMARK                         _______ _______ _______ _____ _____    ______ ____
ROOT
ATOM      1  C   UNL     1      26.271   4.511  17.811  0.00  0.00    +0.000 A 
ATOM      2  C   UNL     1      25.155   4.304  18.569  0.00  0.00    +0.000 A 
ATOM      3  C   UNL     1      24.489   3.107  18.536  0.00  0.00    +0.000 A 
ATOM      4  C   UNL     1      24.893   2.030  17.737  0.00  0.00    +0.000 A 
ATOM      5  C   UNL     1      26.025   2.260  16.974  0.00  0.00    +0.000 A 
ATOM      6  C   UNL     1      26.692   3.455  17.008  0.00  0.00    +0.000 A 
ENDROOT
BRANCH   1   8
ATOM      7  C   UNL     1      28.141   5.787  16.761  0.00  0.00    +0.000 C 
ATOM      8  C   UNL     1      27.027   5.807  17.799  0.00  0.00    +0.000 C 
ATOM      9  C   UNL     1      26.072   6.925  17.375  0.00  0.00    +0.000 C 
ATOM     10  C   UNL     1      27.616   6.176  19.125  0.00  0.00    +0.000 C 
ENDBRANCH   1   8
BRANCH   4  11
ATOM     11  N   UNL     1      24.188   0.805  17.732  0.00  0.00    +0.000 NA
BRANCH  11  12
ATOM     12  S   UNL     1      23.157   0.412  16.411  0.00  0.00    +0.000 S 
ATOM     13  O   UNL     1      23.145  -1.099  16.209  0.00  0.00    +0.000 OA
ATOM     14  O   UNL     1      23.656   1.022  15.152  0.00  0.00    +0.000 OA
BRANCH  12  15
ATOM     15  C   UNL     1      21.513   0.982  16.710  0.00  0.00    +0.000 A 
ATOM     16  C   UNL     1      21.110   1.775  17.749  0.00  0.00    +0.000 A 
ATOM     17  C   UNL     1      19.828   2.120  17.798  0.00  0.00    +0.000 A 
ATOM     18  C   UNL     1      19.005   1.653  16.806  0.00  0.00    +0.000 A 
ATOM     19  S   UNL     1      20.073   0.753  15.839  0.00  0.00    +0.000 S 
ENDBRANCH  12  15
ENDBRANCH  11  12
ENDBRANCH   4  11
TORSDOF 4
ENDMDL
MODEL 6
REMARK VINA RESULT:      -5.7     17.144     18.158
REMARK  Name = 
REMARK  4 active torsions:
REMARK  status: ('A' for Active; 'I' for Inactive)
REMARK    1  A    between atoms: C_2  and  C_5
REMARK    2  A    between atoms: C_8  and  N_9
REMARK    3  A    between atoms: N_9  and  S_10
REMARK    4  A    between atoms: S_10  and  C_13
REMARK                            x       y       z     vdW  Elec       q    Type
REMARK                         _______ _______ _______ _____ _____    ______ ____
ROOT
ATOM      1  C   UNL     1      33.711   2.081  34.540  0.00  0.00    +0.000 A 
ATOM      2  C   UNL     1      34.016   2.474  35.810  0.00  0.00    +0.000 A 
ATOM      3  C   UNL     1      34.100   3.801  36.140  0.00  0.00    +0.000 A 
ATOM      4  C   UNL     1      33.884   4.832  35.217  0.00  0.00    +0.000 A 
ATOM      5  C   UNL     1      33.578   4.414  33.933  0.00  0.00    +0.000 A 
ATOM      6  C   UNL     1      33.493   3.088  33.604  0.00  0.00    +0.000 A 
ENDROOT
BRANCH   1   8
ATOM      7  C   UNL     1      34.375  -0.259  35.095  0.00  0.00    +0.000 C 
ATOM      8  C   UNL     1      33.623   0.642  34.124  0.00  0.00    +0.000 C 
ATOM      9  C   UNL     1      32.159   0.203  34.185  0.00  0.00    +0.000 C 
ATOM     10  C   UNL     1      34.130   0.380  32.740  0.00  0.00    +0.000 C 
ENDBRANCH   1   8
BRANCH   4  11
ATOM     11  N   UNL     1      33.969   6.193  35.592  0.00  0.00    +0.000 NA
BRANCH  11  12
ATOM     12  S   UNL     1      35.509   6.930  35.810  0.00  0.00    +0.000 S 
ATOM     13  O   UNL     1      36.408   6.589  34.626  0.00  0.00    +0.000 OA
ATOM     14  O   UNL     1      36.174   6.411  37.033  0.00  0.00    +0.000 OA
BRANCH  12  15
ATOM     15  C   UNL     1      35.349   8.682  35.947  0.00  0.00    +0.000 A 
ATOM     16  C   UNL     1      36.027   9.615  35.212  0.00  0.00    +0.000 A 
ATOM     17  C   UNL     1      35.759  10.896  35.443  0.00  0.00    +0.000 A 
ATOM     18  C   UNL     1      34.825  11.186  36.404  0.00  0.00    +0.000 A 
ATOM     19  S   UNL     1      34.357   9.642  36.937  0.00  0.00    +0.000 S 
ENDBRANCH  12  15
ENDBRANCH  11  12
ENDBRANCH   4  11
TORSDOF 4
ENDMDL
MODEL 7
REMARK VINA RESULT:      -5.5     18.044     19.233
REMARK  Name = 
REMARK  4 active torsions:
REMARK  status: ('A' for Active; 'I' for Inactive)
REMARK    1  A    between atoms: C_2  and  C_5
REMARK    2  A    between atoms: C_8  and  N_9
REMARK    3  A    between atoms: N_9  and  S_10
REMARK    4  A    between atoms: S_10  and  C_13
REMARK                            x       y       z     vdW  Elec       q    Type
REMARK                         _______ _______ _______ _____ _____    ______ ____
ROOT
ATOM      1  C   UNL     1      25.319  25.354  28.830  0.00  0.00    +0.000 A 
ATOM      2  C   UNL     1      26.207  24.319  28.785  0.00  0.00    +0.000 A 
ATOM      3  C   UNL     1      26.387  23.591  27.638  0.00  0.00    +0.000 A 
ATOM      4  C   UNL     1      25.687  23.849  26.453  0.00  0.00    +0.000 A 
ATOM      5  C   UNL     1      24.790  24.900  26.520  0.00  0.00    +0.000 A 
ATOM      6  C   UNL     1      24.611  25.628  27.664  0.00  0.00    +0.000 A 
ENDROOT
BRANCH   1   8
ATOM      7  C   UNL     1      25.565  25.449  31.312  0.00  0.00    +0.000 C 
ATOM      8  C   UNL     1      25.073  26.171  30.065  0.00  0.00    +0.000 C 
ATOM      9  C   UNL     1      25.892  27.460  29.970  0.00  0.00    +0.000 C 
ATOM     10  C   UNL     1      23.638  26.547  30.265  0.00  0.00    +0.000 C 
ENDBRANCH   1   8
BRANCH   4  11
ATOM     11  N   UNL     1      25.903  23.083  25.284  0.00  0.00    +0.000 NA
BRANCH  11  12
ATOM     12  S   UNL     1      26.890  23.705  24.019  0.00  0.00    +0.000 S 
ATOM     13  O   UNL     1      26.640  25.201  23.868  0.00  0.00    +0.000 OA
ATOM     14  O   UNL     1      26.550  23.067  22.721  0.00  0.00    +0.000 OA
BRANCH  12  15
ATOM     15  C   UNL     1      28.598  23.422  24.363  0.00  0.00    +0.000 A 
ATOM     16  C   UNL     1      29.102  22.605  25.336  0.00  0.00    +0.000 A 
ATOM     17  C   UNL     1      30.423  22.503  25.433  0.00  0.00    +0.000 A 
ATOM     18  C   UNL     1      31.182  23.228  24.552  0.00  0.00    +0.000 A 
ATOM     19  S   UNL     1      30.004  24.017  23.617  0.00  0.00    +0.000 S 
ENDBRANCH  12  15
ENDBRANCH  11  12
ENDBRANCH   4  11
TORSDOF 4
ENDMDL
MODEL 8
REMARK VINA RESULT:      -5.5     18.450     19.954
REMARK  Name = 
REMARK  4 active torsions:
REMARK  status: ('A' for Active; 'I' for Inactive)
REMARK    1  A    between atoms: C_2  and  C_5
REMARK    2  A    between atoms: C_8  and  N_9
REMARK    3  A    between atoms: N_9  and  S_10
REMARK    4  A    between atoms: S_10  and  C_13
REMARK                            x       y       z     vdW  Elec       q    Type
REMARK                         _______ _______ _______ _____ _____    ______ ____
ROOT
ATOM      1  C   UNL     1      28.539  23.878  23.649  0.00  0.00    +0.000 A 
ATOM      2  C   UNL     1      27.713  23.600  24.699  0.00  0.00    +0.000 A 
ATOM      3  C   UNL     1      28.181  22.969  25.821  0.00  0.00    +0.000 A 
ATOM      4  C   UNL     1      29.515  22.568  25.971  0.00  0.00    +0.000 A 
ATOM      5  C   UNL     1      30.336  22.856  24.895  0.00  0.00    +0.000 A 
ATOM      6  C   UNL     1      29.869  23.488  23.775  0.00  0.00    +0.000 A 
ENDROOT
BRANCH   1   8
ATOM      7  C   UNL     1      26.905  23.801  21.765  0.00  0.00    +0.000 C 
ATOM      8  C   UNL     1      28.072  24.552  22.393  0.00  0.00    +0.000 C 
ATOM      9  C   UNL     1      27.540  25.940  22.752  0.00  0.00    +0.000 C 
ATOM     10  C   UNL     1      29.143  24.717  21.360  0.00  0.00    +0.000 C 
ENDBRANCH   1   8
BRANCH   4  11
ATOM     11  N   UNL     1      29.969  21.926  27.146  0.00  0.00    +0.000 NA
BRANCH  11  12
ATOM     12  S   UNL     1      30.169  22.829  28.597  0.00  0.00    +0.000 S 
ATOM     13  O   UNL     1      30.813  24.172  28.275  0.00  0.00    +0.000 OA
ATOM     14  O   UNL     1      31.072  22.120  29.540  0.00  0.00    +0.000 OA
BRANCH  12  15
ATOM     15  C   UNL     1      28.613  23.094  29.388  0.00  0.00    +0.000 A 
ATOM     16  C   UNL     1      27.551  22.233  29.389  0.00  0.00    +0.000 A 
ATOM     17  C   UNL     1      26.462  22.598  30.059  0.00  0.00    +0.000 A 
ATOM     18  C   UNL     1      26.485  23.812  30.695  0.00  0.00    +0.000 A 
ATOM     19  S   UNL     1      28.042  24.386  30.331  0.00  0.00    +0.000 S 
ENDBRANCH  12  15
ENDBRANCH  11  12
ENDBRANCH   4  11
TORSDOF 4
ENDMDL
MODEL 9
REMARK VINA RESULT:      -5.4     21.421     22.554
REMARK  Name = 
REMARK  4 active torsions:
REMARK  status: ('A' for Active; 'I' for Inactive)
REMARK    1  A    between atoms: C_2  and  C_5
REMARK    2  A    between atoms: C_8  and  N_9
REMARK    3  A    between atoms: N_9  and  S_10
REMARK    4  A    between atoms: S_10  and  C_13
REMARK                            x       y       z     vdW  Elec       q    Type
REMARK                         _______ _______ _______ _____ _____    ______ ____
ROOT
ATOM      1  C   UNL     1      32.808  24.865  24.927  0.00  0.00    +0.000 A 
ATOM      2  C   UNL     1      31.834  25.809  24.783  0.00  0.00    +0.000 A 
ATOM      3  C   UNL     1      30.555  25.460  24.440  0.00  0.00    +0.000 A 
ATOM      4  C   UNL     1      30.160  24.135  24.213  0.00  0.00    +0.000 A 
ATOM      5  C   UNL     1      31.163  23.192  24.361  0.00  0.00    +0.000 A 
ATOM      6  C   UNL     1      32.440  23.541  24.706  0.00  0.00    +0.000 A 
ENDROOT
BRANCH   1   8
ATOM      7  C   UNL     1      35.202  24.627  24.264  0.00  0.00    +0.000 C 
ATOM      8  C   UNL     1      34.227  25.197  25.285  0.00  0.00    +0.000 C 
ATOM      9  C   UNL     1      34.401  26.717  25.235  0.00  0.00    +0.000 C 
ATOM     10  C   UNL     1      34.633  24.727  26.647  0.00  0.00    +0.000 C 
ENDBRANCH   1   8
BRANCH   4  11
ATOM     11  N   UNL     1      28.829  23.807  23.868  0.00  0.00    +0.000 NA
BRANCH  11  12
ATOM     12  S   UNL     1      28.213  24.229  22.318  0.00  0.00    +0.000 S 
ATOM     13  O   UNL     1      27.116  23.247  21.922  0.00  0.00    +0.000 OA
ATOM     14  O   UNL     1      29.278  24.142  21.285  0.00  0.00    +0.000 OA
BRANCH  12  15
ATOM     15  C   UNL     1      27.562  25.870  22.330  0.00  0.00    +0.000 A 
ATOM     16  C   UNL     1      27.013  26.513  23.404  0.00  0.00    +0.000 A 
ATOM     17  C   UNL     1      26.591  27.761  23.226  0.00  0.00    +0.000 A 
ATOM     18  C   UNL     1      26.737  28.308  21.978  0.00  0.00    +0.000 A 
ATOM     19  S   UNL     1      27.468  27.046  21.108  0.00  0.00    +0.000 S 
ENDBRANCH  12  15
ENDBRANCH  11  12
ENDBRANCH   4  11
TORSDOF 4
ENDMDL
MODEL 10
REMARK VINA RESULT:      -5.4     20.483     21.924
REMARK  Name = 
REMARK  4 active torsions:
REMARK  status: ('A' for Active; 'I' for Inactive)
REMARK    1  A    between atoms: C_2  and  C_5
REMARK    2  A    between atoms: C_8  and  N_9
REMARK    3  A    between atoms: N_9  and  S_10
REMARK    4  A    between atoms: S_10  and  C_13
REMARK                            x       y       z     vdW  Elec       q    Type
REMARK                         _______ _______ _______ _____ _____    ______ ____
ROOT
ATOM      1  C   UNL     1      26.328   4.544  17.731  0.00  0.00    +0.000 A 
ATOM      2  C   UNL     1      25.276   4.242  18.547  0.00  0.00    +0.000 A 
ATOM      3  C   UNL     1      24.701   2.999  18.531  0.00  0.00    +0.000 A 
ATOM      4  C   UNL     1      25.139   1.967  17.691  0.00  0.00    +0.000 A 
ATOM      5  C   UNL     1      26.204   2.293  16.870  0.00  0.00    +0.000 A 
ATOM      6  C   UNL     1      26.780   3.534  16.887  0.00  0.00    +0.000 A 
ENDROOT
BRANCH   1   8
ATOM      7  C   UNL     1      28.028   5.975  16.596  0.00  0.00    +0.000 C 
ATOM      8  C   UNL     1      26.981   5.894  17.699  0.00  0.00    +0.000 C 
ATOM      9  C   UNL     1      25.921   6.942  17.356  0.00  0.00    +0.000 C 
ATOM     10  C   UNL     1      27.621   6.287  18.994  0.00  0.00    +0.000 C 
ENDBRANCH   1   8
BRANCH   4  11
ATOM     11  N   UNL     1      24.529   0.691  17.705  0.00  0.00    +0.000 NA
BRANCH  11  12
ATOM     12  S   UNL     1      23.035   0.444  16.887  0.00  0.00    +0.000 S 
ATOM     13  O   UNL     1      21.880   0.751  17.833  0.00  0.00    +0.000 OA
ATOM     14  O   UNL     1      22.894  -0.973  16.463  0.00  0.00    +0.000 OA
BRANCH  12  15
ATOM     15  C   UNL     1      22.925   1.479  15.461  0.00  0.00    +0.000 A 
ATOM     16  C   UNL     1      22.375   2.730  15.412  0.00  0.00    +0.000 A 
ATOM     17  C   UNL     1      22.400   3.369  14.247  0.00  0.00    +0.000 A 
ATOM     18  C   UNL     1      22.971   2.724  13.181  0.00  0.00    +0.000 A 
ATOM     19  S   UNL     1      23.458   1.248  13.865  0.00  0.00    +0.000 S 
ENDBRANCH  12  15
ENDBRANCH  11  12
ENDBRANCH   4  11
TORSDOF 4
ENDMDL
