MODEL 1
REMARK VINA RESULT:      -9.1      0.000      0.000
REMARK  Name = 
REMARK  7 active torsions:
REMARK  status: ('A' for Active; 'I' for Inactive)
REMARK    1  A    between atoms: C_6  and  C_7
REMARK    2  A    between atoms: N_8  and  N_9
REMARK    3  A    between atoms: C_10  and  C_12
REMARK    4  A    between atoms: C_12  and  S_13
REMARK    5  A    between atoms: S_13  and  C_14
REMARK    6  A    between atoms: N_22  and  C_23
REMARK    7  A    between atoms: C_23  and  C_24
REMARK                            x       y       z     vdW  Elec       q    Type
REMARK                         _______ _______ _______ _____ _____    ______ ____
ROOT
ATOM      1  C   UNL     1      37.073  -0.425  16.004  0.00  0.00    +0.000 A 
ATOM      2  N   UNL     1      36.791  -0.302  17.337  0.00  0.00    +0.000 NA
ATOM      3  C   UNL     1      37.353  -1.286  18.027  0.00  0.00    +0.000 A 
ATOM      4  C   UNL     1      37.400  -1.646  19.366  0.00  0.00    +0.000 A 
ATOM      5  C   UNL     1      38.097  -2.764  19.759  0.00  0.00    +0.000 A 
ATOM      6  C   UNL     1      38.752  -3.532  18.841  0.00  0.00    +0.000 A 
ATOM      7  C   UNL     1      38.728  -3.205  17.505  0.00  0.00    +0.000 A 
ATOM      8  C   UNL     1      38.017  -2.073  17.134  0.00  0.00    +0.000 A 
ATOM      9  N   UNL     1      37.823  -1.516  15.905  0.00  0.00    +0.000 N 
ENDROOT
BRANCH   1  10
ATOM     10  S   UNL     1      36.486   0.736  14.778  0.00  0.00    +0.000 S 
BRANCH  10  11
ATOM     11  C   UNL     1      36.093   2.335  15.483  0.00  0.00    +0.000 C 
BRANCH  11  13
ATOM     12  N   UNL     1      37.396   3.675  17.248  0.00  0.00    +0.000 NA
ATOM     13  C   UNL     1      37.340   2.967  16.021  0.00  0.00    +0.000 C 
ATOM     14  O   UNL     1      38.416   2.878  15.358  0.00  0.00    +0.000 OA
BRANCH  12  16
ATOM     15  C   UNL     1      38.766   5.375  18.156  0.00  0.00    +0.000 C 
ATOM     16  N   UNL     1      38.615   4.223  17.648  0.00  0.00    +0.000 NA
BRANCH  15  22
ATOM     17  C   UNL     1      43.413   6.867  17.073  0.00  0.00    +0.000 C 
ATOM     18  C   UNL     1      42.315   6.637  18.036  0.00  0.00    +0.000 A 
ATOM     19  C   UNL     1      42.541   6.951  19.361  0.00  0.00    +0.000 A 
ATOM     20  C   UNL     1      41.534   6.749  20.293  0.00  0.00    +0.000 A 
ATOM     21  C   UNL     1      40.321   6.237  19.875  0.00  0.00    +0.000 A 
ATOM     22  C   UNL     1      40.063   5.915  18.561  0.00  0.00    +0.000 A 
ATOM     23  C   UNL     1      41.075   6.121  17.647  0.00  0.00    +0.000 A 
ENDBRANCH  15  22
ENDBRANCH  12  16
ENDBRANCH  11  13
ENDBRANCH  10  11
ENDBRANCH   1  10
BRANCH   9  24
ATOM     24  C   UNL     1      38.368  -2.048  14.664  0.00  0.00    +0.000 C 
BRANCH  24  25
ATOM     25  C   UNL     1      39.740  -1.477  14.500  0.00  0.00    +0.000 A 
ATOM     26  C   UNL     1      40.776  -2.401  14.545  0.00  0.00    +0.000 A 
ATOM     27  C   UNL     1      42.079  -2.011  14.411  0.00  0.00    +0.000 A 
ATOM     28  C   UNL     1      42.397  -0.682  14.225  0.00  0.00    +0.000 A 
ATOM     29  C   UNL     1      41.355   0.215  14.183  0.00  0.00    +0.000 A 
ATOM     30  C   UNL     1      40.034  -0.156  14.316  0.00  0.00    +0.000 A 
ENDBRANCH  24  25
ENDBRANCH   9  24
TORSDOF 7
ENDMDL
MODEL 2
REMARK VINA RESULT:      -8.9      1.382      3.884
REMARK  Name = 
REMARK  7 active torsions:
REMARK  status: ('A' for Active; 'I' for Inactive)
REMARK    1  A    between atoms: C_6  and  C_7
REMARK    2  A    between atoms: N_8  and  N_9
REMARK    3  A    between atoms: C_10  and  C_12
REMARK    4  A    between atoms: C_12  and  S_13
REMARK    5  A    between atoms: S_13  and  C_14
REMARK    6  A    between atoms: N_22  and  C_23
REMARK    7  A    between atoms: C_23  and  C_24
REMARK                            x       y       z     vdW  Elec       q    Type
REMARK                         _______ _______ _______ _____ _____    ______ ____
ROOT
ATOM      1  C   UNL     1      37.569   0.443  14.201  0.00  0.00    +0.000 A 
ATOM      2  N   UNL     1      38.802   0.926  13.858  0.00  0.00    +0.000 NA
ATOM      3  C   UNL     1      39.741   0.019  14.090  0.00  0.00    +0.000 A 
ATOM      4  C   UNL     1      41.118  -0.033  13.934  0.00  0.00    +0.000 A 
ATOM      5  C   UNL     1      41.813  -1.167  14.284  0.00  0.00    +0.000 A 
ATOM      6  C   UNL     1      41.160  -2.254  14.788  0.00  0.00    +0.000 A 
ATOM      7  C   UNL     1      39.795  -2.238  14.957  0.00  0.00    +0.000 A 
ATOM      8  C   UNL     1      39.117  -1.083  14.596  0.00  0.00    +0.000 A 
ATOM      9  N   UNL     1      37.788  -0.786  14.651  0.00  0.00    +0.000 N 
ENDROOT
BRANCH   1  10
ATOM     10  S   UNL     1      36.067   1.394  14.009  0.00  0.00    +0.000 S 
BRANCH  10  11
ATOM     11  C   UNL     1      35.461   2.038  15.568  0.00  0.00    +0.000 C 
BRANCH  11  13
ATOM     12  N   UNL     1      37.473   3.621  15.799  0.00  0.00    +0.000 NA
ATOM     13  C   UNL     1      36.596   2.647  16.335  0.00  0.00    +0.000 C 
ATOM     14  O   UNL     1      36.800   2.283  17.531  0.00  0.00    +0.000 OA
BRANCH  12  16
ATOM     15  C   UNL     1      38.585   5.311  17.025  0.00  0.00    +0.000 C 
ATOM     16  N   UNL     1      38.496   4.116  16.608  0.00  0.00    +0.000 NA
BRANCH  15  22
ATOM     17  C   UNL     1      43.311   6.824  17.627  0.00  0.00    +0.000 C 
ATOM     18  C   UNL     1      41.967   6.524  18.162  0.00  0.00    +0.000 A 
ATOM     19  C   UNL     1      41.752   6.712  19.514  0.00  0.00    +0.000 A 
ATOM     20  C   UNL     1      40.503   6.441  20.052  0.00  0.00    +0.000 A 
ATOM     21  C   UNL     1      39.495   5.988  19.223  0.00  0.00    +0.000 A 
ATOM     22  C   UNL     1      39.676   5.791  17.871  0.00  0.00    +0.000 A 
ATOM     23  C   UNL     1      40.923   6.064  17.352  0.00  0.00    +0.000 A 
ENDBRANCH  15  22
ENDBRANCH  12  16
ENDBRANCH  11  13
ENDBRANCH  10  11
ENDBRANCH   1  10
BRANCH   9  24
ATOM     24  C   UNL     1      36.759  -1.697  15.133  0.00  0.00    +0.000 C 
BRANCH  24  25
ATOM     25  C   UNL     1      36.507  -1.366  16.568  0.00  0.00    +0.000 A 
ATOM     26  C   UNL     1      35.200  -1.012  16.876  0.00  0.00    +0.000 A 
ATOM     27  C   UNL     1      34.836  -0.683  18.151  0.00  0.00    +0.000 A 
ATOM     28  C   UNL     1      35.765  -0.696  19.170  0.00  0.00    +0.000 A 
ATOM     29  C   UNL     1      37.054  -1.050  18.843  0.00  0.00    +0.000 A 
ATOM     30  C   UNL     1      37.443  -1.385  17.564  0.00  0.00    +0.000 A 
ENDBRANCH  24  25
ENDBRANCH   9  24
TORSDOF 7
ENDMDL
MODEL 3
REMARK VINA RESULT:      -8.8      1.052      3.619
REMARK  Name = 
REMARK  7 active torsions:
REMARK  status: ('A' for Active; 'I' for Inactive)
REMARK    1  A    between atoms: C_6  and  C_7
REMARK    2  A    between atoms: N_8  and  N_9
REMARK    3  A    between atoms: C_10  and  C_12
REMARK    4  A    between atoms: C_12  and  S_13
REMARK    5  A    between atoms: S_13  and  C_14
REMARK    6  A    between atoms: N_22  and  C_23
REMARK    7  A    between atoms: C_23  and  C_24
REMARK                            x       y       z     vdW  Elec       q    Type
REMARK                         _______ _______ _______ _____ _____    ______ ____
ROOT
ATOM      1  C   UNL     1      37.308  -0.243  15.461  0.00  0.00    +0.000 A 
ATOM      2  N   UNL     1      38.233   0.629  14.954  0.00  0.00    +0.000 NA
ATOM      3  C   UNL     1      39.388   0.013  14.738  0.00  0.00    +0.000 A 
ATOM      4  C   UNL     1      40.628   0.393  14.248  0.00  0.00    +0.000 A 
ATOM      5  C   UNL     1      41.646  -0.527  14.150  0.00  0.00    +0.000 A 
ATOM      6  C   UNL     1      41.450  -1.823  14.531  0.00  0.00    +0.000 A 
ATOM      7  C   UNL     1      40.233  -2.235  15.020  0.00  0.00    +0.000 A 
ATOM      8  C   UNL     1      39.223  -1.289  15.110  0.00  0.00    +0.000 A 
ATOM      9  N   UNL     1      37.938  -1.407  15.549  0.00  0.00    +0.000 N 
ENDROOT
BRANCH   1  10
ATOM     10  S   UNL     1      35.635   0.243  15.861  0.00  0.00    +0.000 S 
BRANCH  10  11
ATOM     11  C   UNL     1      35.421   2.022  15.864  0.00  0.00    +0.000 C 
BRANCH  11  13
ATOM     12  N   UNL     1      37.202   3.820  16.316  0.00  0.00    +0.000 NA
ATOM     13  C   UNL     1      36.492   2.655  16.700  0.00  0.00    +0.000 C 
ATOM     14  O   UNL     1      36.795   2.136  17.815  0.00  0.00    +0.000 OA
BRANCH  12  16
ATOM     15  C   UNL     1      38.898   5.340  16.952  0.00  0.00    +0.000 C 
ATOM     16  N   UNL     1      38.180   4.319  17.176  0.00  0.00    +0.000 NA
BRANCH  15  22
ATOM     17  C   UNL     1      43.516   7.004  17.897  0.00  0.00    +0.000 C 
ATOM     18  C   UNL     1      42.154   6.637  18.337  0.00  0.00    +0.000 A 
ATOM     19  C   UNL     1      41.849   6.771  19.678  0.00  0.00    +0.000 A 
ATOM     20  C   UNL     1      40.581   6.438  20.127  0.00  0.00    +0.000 A 
ATOM     21  C   UNL     1      39.644   5.976  19.223  0.00  0.00    +0.000 A 
ATOM     22  C   UNL     1      39.915   5.831  17.880  0.00  0.00    +0.000 A 
ATOM     23  C   UNL     1      41.181   6.167  17.449  0.00  0.00    +0.000 A 
ENDBRANCH  15  22
ENDBRANCH  12  16
ENDBRANCH  11  13
ENDBRANCH  10  11
ENDBRANCH   1  10
BRANCH   9  24
ATOM     24  C   UNL     1      37.346  -2.645  16.039  0.00  0.00    +0.000 C 
BRANCH  24  25
ATOM     25  C   UNL     1      37.616  -2.716  17.508  0.00  0.00    +0.000 A 
ATOM     26  C   UNL     1      38.507  -3.707  17.900  0.00  0.00    +0.000 A 
ATOM     27  C   UNL     1      38.839  -3.882  19.213  0.00  0.00    +0.000 A 
ATOM     28  C   UNL     1      38.295  -3.071  20.188  0.00  0.00    +0.000 A 
ATOM     29  C   UNL     1      37.415  -2.095  19.777  0.00  0.00    +0.000 A 
ATOM     30  C   UNL     1      37.066  -1.902  18.457  0.00  0.00    +0.000 A 
ENDBRANCH  24  25
ENDBRANCH   9  24
TORSDOF 7
ENDMDL
MODEL 4
REMARK VINA RESULT:      -8.3      1.427      2.018
REMARK  Name = 
REMARK  7 active torsions:
REMARK  status: ('A' for Active; 'I' for Inactive)
REMARK    1  A    between atoms: C_6  and  C_7
REMARK    2  A    between atoms: N_8  and  N_9
REMARK    3  A    between atoms: C_10  and  C_12
REMARK    4  A    between atoms: C_12  and  S_13
REMARK    5  A    between atoms: S_13  and  C_14
REMARK    6  A    between atoms: N_22  and  C_23
REMARK    7  A    between atoms: C_23  and  C_24
REMARK                            x       y       z     vdW  Elec       q    Type
REMARK                         _______ _______ _______ _____ _____    ______ ____
ROOT
ATOM      1  C   UNL     1      37.796  -0.647  15.468  0.00  0.00    +0.000 A 
ATOM      2  N   UNL     1      37.498  -0.482  16.793  0.00  0.00    +0.000 NA
ATOM      3  C   UNL     1      37.845  -1.557  17.488  0.00  0.00    +0.000 A 
ATOM      4  C   UNL     1      37.780  -1.928  18.823  0.00  0.00    +0.000 A 
ATOM      5  C   UNL     1      38.245  -3.159  19.223  0.00  0.00    +0.000 A 
ATOM      6  C   UNL     1      38.776  -4.029  18.317  0.00  0.00    +0.000 A 
ATOM      7  C   UNL     1      38.857  -3.695  16.985  0.00  0.00    +0.000 A 
ATOM      8  C   UNL     1      38.381  -2.448  16.606  0.00  0.00    +0.000 A 
ATOM      9  N   UNL     1      38.333  -1.857  15.379  0.00  0.00    +0.000 N 
ENDROOT
BRANCH   1  10
ATOM     10  S   UNL     1      37.475   0.611  14.238  0.00  0.00    +0.000 S 
BRANCH  10  11
ATOM     11  C   UNL     1      36.143   1.710  14.716  0.00  0.00    +0.000 C 
BRANCH  11  13
ATOM     12  N   UNL     1      37.893   3.168  15.906  0.00  0.00    +0.000 NA
ATOM     13  C   UNL     1      36.599   2.596  15.835  0.00  0.00    +0.000 C 
ATOM     14  O   UNL     1      35.799   2.859  16.782  0.00  0.00    +0.000 OA
BRANCH  12  16
ATOM     15  C   UNL     1      38.558   5.194  16.931  0.00  0.00    +0.000 C 
ATOM     16  N   UNL     1      38.207   3.977  16.999  0.00  0.00    +0.000 NA
BRANCH  15  22
ATOM     17  C   UNL     1      37.597   9.033  19.984  0.00  0.00    +0.000 C 
ATOM     18  C   UNL     1      38.414   7.870  19.581  0.00  0.00    +0.000 A 
ATOM     19  C   UNL     1      39.516   7.554  20.351  0.00  0.00    +0.000 A 
ATOM     20  C   UNL     1      40.305   6.469  20.003  0.00  0.00    +0.000 A 
ATOM     21  C   UNL     1      39.972   5.721  18.890  0.00  0.00    +0.000 A 
ATOM     22  C   UNL     1      38.880   6.008  18.101  0.00  0.00    +0.000 A 
ATOM     23  C   UNL     1      38.105   7.091  18.461  0.00  0.00    +0.000 A 
ENDBRANCH  15  22
ENDBRANCH  12  16
ENDBRANCH  11  13
ENDBRANCH  10  11
ENDBRANCH   1  10
BRANCH   9  24
ATOM     24  C   UNL     1      38.811  -2.473  14.148  0.00  0.00    +0.000 C 
BRANCH  24  25
ATOM     25  C   UNL     1      40.142  -1.868  13.836  0.00  0.00    +0.000 A 
ATOM     26  C   UNL     1      41.181  -2.255  14.672  0.00  0.00    +0.000 A 
ATOM     27  C   UNL     1      42.447  -1.774  14.498  0.00  0.00    +0.000 A 
ATOM     28  C   UNL     1      42.726  -0.888  13.478  0.00  0.00    +0.000 A 
ATOM     29  C   UNL     1      41.682  -0.519  12.661  0.00  0.00    +0.000 A 
ATOM     30  C   UNL     1      40.397  -0.991  12.820  0.00  0.00    +0.000 A 
ENDBRANCH  24  25
ENDBRANCH   9  24
TORSDOF 7
ENDMDL
MODEL 5
REMARK VINA RESULT:      -8.2      1.742      3.908
REMARK  Name = 
REMARK  7 active torsions:
REMARK  status: ('A' for Active; 'I' for Inactive)
REMARK    1  A    between atoms: C_6  and  C_7
REMARK    2  A    between atoms: N_8  and  N_9
REMARK    3  A    between atoms: C_10  and  C_12
REMARK    4  A    between atoms: C_12  and  S_13
REMARK    5  A    between atoms: S_13  and  C_14
REMARK    6  A    between atoms: N_22  and  C_23
REMARK    7  A    between atoms: C_23  and  C_24
REMARK                            x       y       z     vdW  Elec       q    Type
REMARK                         _______ _______ _______ _____ _____    ______ ____
ROOT
ATOM      1  C   UNL     1      36.598  -0.277  15.285  0.00  0.00    +0.000 A 
ATOM      2  N   UNL     1      36.742   0.059  13.966  0.00  0.00    +0.000 NA
ATOM      3  C   UNL     1      37.786  -0.565  13.436  0.00  0.00    +0.000 A 
ATOM      4  C   UNL     1      38.378  -0.600  12.183  0.00  0.00    +0.000 A 
ATOM      5  C   UNL     1      39.489  -1.380  11.963  0.00  0.00    +0.000 A 
ATOM      6  C   UNL     1      40.022  -2.130  12.970  0.00  0.00    +0.000 A 
ATOM      7  C   UNL     1      39.461  -2.121  14.226  0.00  0.00    +0.000 A 
ATOM      8  C   UNL     1      38.342  -1.325  14.423  0.00  0.00    +0.000 A 
ATOM      9  N   UNL     1      37.588  -1.122  15.540  0.00  0.00    +0.000 N 
ENDROOT
BRANCH   1  10
ATOM     10  S   UNL     1      35.285   0.370  16.312  0.00  0.00    +0.000 S 
BRANCH  10  11
ATOM     11  C   UNL     1      35.195   2.159  16.262  0.00  0.00    +0.000 C 
BRANCH  11  13
ATOM     12  N   UNL     1      37.176   3.795  16.195  0.00  0.00    +0.000 NA
ATOM     13  C   UNL     1      36.460   2.741  16.815  0.00  0.00    +0.000 C 
ATOM     14  O   UNL     1      36.934   2.279  17.895  0.00  0.00    +0.000 OA
BRANCH  12  16
ATOM     15  C   UNL     1      38.470   5.374  17.390  0.00  0.00    +0.000 C 
ATOM     16  N   UNL     1      38.344   4.256  16.803  0.00  0.00    +0.000 NA
BRANCH  15  22
ATOM     17  C   UNL     1      43.261   6.768  17.084  0.00  0.00    +0.000 C 
ATOM     18  C   UNL     1      42.036   6.496  17.865  0.00  0.00    +0.000 A 
ATOM     19  C   UNL     1      42.088   6.680  19.233  0.00  0.00    +0.000 A 
ATOM     20  C   UNL     1      40.958   6.436  19.998  0.00  0.00    +0.000 A 
ATOM     21  C   UNL     1      39.799   6.014  19.376  0.00  0.00    +0.000 A 
ATOM     22  C   UNL     1      39.714   5.822  18.014  0.00  0.00    +0.000 A 
ATOM     23  C   UNL     1      40.846   6.068  17.267  0.00  0.00    +0.000 A 
ENDBRANCH  15  22
ENDBRANCH  12  16
ENDBRANCH  11  13
ENDBRANCH  10  11
ENDBRANCH   1  10
BRANCH   9  24
ATOM     24  C   UNL     1      37.839  -1.753  16.829  0.00  0.00    +0.000 C 
BRANCH  24  25
ATOM     25  C   UNL     1      37.377  -3.171  16.729  0.00  0.00    +0.000 A 
ATOM     26  C   UNL     1      38.272  -4.123  17.201  0.00  0.00    +0.000 A 
ATOM     27  C   UNL     1      37.974  -5.455  17.165  0.00  0.00    +0.000 A 
ATOM     28  C   UNL     1      36.767  -5.890  16.657  0.00  0.00    +0.000 A 
ATOM     29  C   UNL     1      35.895  -4.930  16.196  0.00  0.00    +0.000 A 
ATOM     30  C   UNL     1      36.176  -3.581  16.222  0.00  0.00    +0.000 A 
ENDBRANCH  24  25
ENDBRANCH   9  24
TORSDOF 7
ENDMDL
MODEL 6
REMARK VINA RESULT:      -8.1      1.939      4.083
REMARK  Name = 
REMARK  7 active torsions:
REMARK  status: ('A' for Active; 'I' for Inactive)
REMARK    1  A    between atoms: C_6  and  C_7
REMARK    2  A    between atoms: N_8  and  N_9
REMARK    3  A    between atoms: C_10  and  C_12
REMARK    4  A    between atoms: C_12  and  S_13
REMARK    5  A    between atoms: S_13  and  C_14
REMARK    6  A    between atoms: N_22  and  C_23
REMARK    7  A    between atoms: C_23  and  C_24
REMARK                            x       y       z     vdW  Elec       q    Type
REMARK                         _______ _______ _______ _____ _____    ______ ____
ROOT
ATOM      1  C   UNL     1      37.147   0.089  15.726  0.00  0.00    +0.000 A 
ATOM      2  N   UNL     1      38.044   0.729  14.915  0.00  0.00    +0.000 NA
ATOM      3  C   UNL     1      39.134  -0.008  14.749  0.00  0.00    +0.000 A 
ATOM      4  C   UNL     1      40.323   0.139  14.051  0.00  0.00    +0.000 A 
ATOM      5  C   UNL     1      41.278  -0.850  14.092  0.00  0.00    +0.000 A 
ATOM      6  C   UNL     1      41.070  -1.986  14.817  0.00  0.00    +0.000 A 
ATOM      7  C   UNL     1      39.902  -2.167  15.522  0.00  0.00    +0.000 A 
ATOM      8  C   UNL     1      38.955  -1.154  15.465  0.00  0.00    +0.000 A 
ATOM      9  N   UNL     1      37.728  -1.059  16.050  0.00  0.00    +0.000 N 
ENDROOT
BRANCH   1  10
ATOM     10  S   UNL     1      35.558   0.787  16.155  0.00  0.00    +0.000 S 
BRANCH  10  11
ATOM     11  C   UNL     1      35.541   2.574  16.037  0.00  0.00    +0.000 C 
BRANCH  11  13
ATOM     12  N   UNL     1      37.639   4.059  15.982  0.00  0.00    +0.000 NA
ATOM     13  C   UNL     1      36.795   3.130  16.640  0.00  0.00    +0.000 C 
ATOM     14  O   UNL     1      37.139   2.761  17.802  0.00  0.00    +0.000 OA
BRANCH  12  16
ATOM     15  C   UNL     1      39.429   5.560  16.355  0.00  0.00    +0.000 C 
ATOM     16  N   UNL     1      38.783   4.506  16.643  0.00  0.00    +0.000 NA
BRANCH  15  22
ATOM     17  C   UNL     1      41.862   6.540  20.610  0.00  0.00    +0.000 C 
ATOM     18  C   UNL     1      41.804   6.470  19.135  0.00  0.00    +0.000 A 
ATOM     19  C   UNL     1      42.933   6.830  18.426  0.00  0.00    +0.000 A 
ATOM     20  C   UNL     1      42.917   6.776  17.041  0.00  0.00    +0.000 A 
ATOM     21  C   UNL     1      41.768   6.361  16.395  0.00  0.00    +0.000 A 
ATOM     22  C   UNL     1      40.626   5.994  17.072  0.00  0.00    +0.000 A 
ATOM     23  C   UNL     1      40.659   6.054  18.450  0.00  0.00    +0.000 A 
ENDBRANCH  15  22
ENDBRANCH  12  16
ENDBRANCH  11  13
ENDBRANCH  10  11
ENDBRANCH   1  10
BRANCH   9  24
ATOM     24  C   UNL     1      37.142  -2.081  16.907  0.00  0.00    +0.000 C 
BRANCH  24  25
ATOM     25  C   UNL     1      36.235  -2.909  16.055  0.00  0.00    +0.000 A 
ATOM     26  C   UNL     1      34.888  -2.850  16.391  0.00  0.00    +0.000 A 
ATOM     27  C   UNL     1      33.953  -3.561  15.694  0.00  0.00    +0.000 A 
ATOM     28  C   UNL     1      34.326  -4.358  14.633  0.00  0.00    +0.000 A 
ATOM     29  C   UNL     1      35.664  -4.401  14.317  0.00  0.00    +0.000 A 
ATOM     30  C   UNL     1      36.625  -3.693  15.007  0.00  0.00    +0.000 A 
ENDBRANCH  24  25
ENDBRANCH   9  24
TORSDOF 7
ENDMDL
MODEL 7
REMARK VINA RESULT:      -7.9      2.339      2.968
REMARK  Name = 
REMARK  7 active torsions:
REMARK  status: ('A' for Active; 'I' for Inactive)
REMARK    1  A    between atoms: C_6  and  C_7
REMARK    2  A    between atoms: N_8  and  N_9
REMARK    3  A    between atoms: C_10  and  C_12
REMARK    4  A    between atoms: C_12  and  S_13
REMARK    5  A    between atoms: S_13  and  C_14
REMARK    6  A    between atoms: N_22  and  C_23
REMARK    7  A    between atoms: C_23  and  C_24
REMARK                            x       y       z     vdW  Elec       q    Type
REMARK                         _______ _______ _______ _____ _____    ______ ____
ROOT
ATOM      1  C   UNL     1      37.104   0.834  14.437  0.00  0.00    +0.000 A 
ATOM      2  N   UNL     1      36.349   1.245  15.502  0.00  0.00    +0.000 NA
ATOM      3  C   UNL     1      35.715   0.216  16.051  0.00  0.00    +0.000 A 
ATOM      4  C   UNL     1      34.848   0.053  17.119  0.00  0.00    +0.000 A 
ATOM      5  C   UNL     1      34.357  -1.193  17.430  0.00  0.00    +0.000 A 
ATOM      6  C   UNL     1      34.717  -2.284  16.694  0.00  0.00    +0.000 A 
ATOM      7  C   UNL     1      35.576  -2.161  15.627  0.00  0.00    +0.000 A 
ATOM      8  C   UNL     1      36.057  -0.893  15.334  0.00  0.00    +0.000 A 
ATOM      9  N   UNL     1      36.907  -0.475  14.354  0.00  0.00    +0.000 N 
ENDROOT
BRANCH   1  10
ATOM     10  S   UNL     1      38.103   1.956  13.468  0.00  0.00    +0.000 S 
BRANCH  10  11
ATOM     11  C   UNL     1      37.336   3.563  13.274  0.00  0.00    +0.000 C 
BRANCH  11  13
ATOM     12  N   UNL     1      38.776   4.125  15.328  0.00  0.00    +0.000 NA
ATOM     13  C   UNL     1      37.772   4.466  14.388  0.00  0.00    +0.000 C 
ATOM     14  O   UNL     1      37.224   5.601  14.515  0.00  0.00    +0.000 OA
BRANCH  12  16
ATOM     15  C   UNL     1      38.588   5.075  17.486  0.00  0.00    +0.000 C 
ATOM     16  N   UNL     1      39.098   5.046  16.325  0.00  0.00    +0.000 NA
BRANCH  15  22
ATOM     17  C   UNL     1      37.695   9.307  19.992  0.00  0.00    +0.000 C 
ATOM     18  C   UNL     1      38.519   8.111  19.716  0.00  0.00    +0.000 A 
ATOM     19  C   UNL     1      39.670   7.934  20.459  0.00  0.00    +0.000 A 
ATOM     20  C   UNL     1      40.468   6.824  20.229  0.00  0.00    +0.000 A 
ATOM     21  C   UNL     1      40.094   5.913  19.260  0.00  0.00    +0.000 A 
ATOM     22  C   UNL     1      38.952   6.059  18.503  0.00  0.00    +0.000 A 
ATOM     23  C   UNL     1      38.170   7.169  18.743  0.00  0.00    +0.000 A 
ENDBRANCH  15  22
ENDBRANCH  12  16
ENDBRANCH  11  13
ENDBRANCH  10  11
ENDBRANCH   1  10
BRANCH   9  24
ATOM     24  C   UNL     1      37.513  -1.352  13.361  0.00  0.00    +0.000 C 
BRANCH  24  25
ATOM     25  C   UNL     1      38.868  -1.728  13.867  0.00  0.00    +0.000 A 
ATOM     26  C   UNL     1      39.936  -1.238  13.126  0.00  0.00    +0.000 A 
ATOM     27  C   UNL     1      41.227  -1.509  13.479  0.00  0.00    +0.000 A 
ATOM     28  C   UNL     1      41.503  -2.282  14.588  0.00  0.00    +0.000 A 
ATOM     29  C   UNL     1      40.430  -2.757  15.308  0.00  0.00    +0.000 A 
ATOM     30  C   UNL     1      39.120  -2.495  14.969  0.00  0.00    +0.000 A 
ENDBRANCH  24  25
ENDBRANCH   9  24
TORSDOF 7
ENDMDL
MODEL 8
REMARK VINA RESULT:      -7.9      2.769      9.482
REMARK  Name = 
REMARK  7 active torsions:
REMARK  status: ('A' for Active; 'I' for Inactive)
REMARK    1  A    between atoms: C_6  and  C_7
REMARK    2  A    between atoms: N_8  and  N_9
REMARK    3  A    between atoms: C_10  and  C_12
REMARK    4  A    between atoms: C_12  and  S_13
REMARK    5  A    between atoms: S_13  and  C_14
REMARK    6  A    between atoms: N_22  and  C_23
REMARK    7  A    between atoms: C_23  and  C_24
REMARK                            x       y       z     vdW  Elec       q    Type
REMARK                         _______ _______ _______ _____ _____    ______ ____
ROOT
ATOM      1  C   UNL     1      40.549   6.114  16.891  0.00  0.00    +0.000 A 
ATOM      2  N   UNL     1      41.841   6.399  16.541  0.00  0.00    +0.000 NA
ATOM      3  C   UNL     1      42.593   6.563  17.622  0.00  0.00    +0.000 A 
ATOM      4  C   UNL     1      43.928   6.853  17.856  0.00  0.00    +0.000 A 
ATOM      5  C   UNL     1      44.400   6.956  19.144  0.00  0.00    +0.000 A 
ATOM      6  C   UNL     1      43.564   6.773  20.206  0.00  0.00    +0.000 A 
ATOM      7  C   UNL     1      42.233   6.483  20.012  0.00  0.00    +0.000 A 
ATOM      8  C   UNL     1      41.782   6.385  18.704  0.00  0.00    +0.000 A 
ATOM      9  N   UNL     1      40.538   6.113  18.217  0.00  0.00    +0.000 N 
ENDROOT
BRANCH   1  10
ATOM     10  S   UNL     1      39.262   5.820  15.685  0.00  0.00    +0.000 S 
BRANCH  10  11
ATOM     11  C   UNL     1      39.603   4.395  14.654  0.00  0.00    +0.000 C 
BRANCH  11  13
ATOM     12  N   UNL     1      39.152   1.867  14.760  0.00  0.00    +0.000 NA
ATOM     13  C   UNL     1      38.932   3.185  15.229  0.00  0.00    +0.000 C 
ATOM     14  O   UNL     1      38.117   3.327  16.189  0.00  0.00    +0.000 OA
BRANCH  12  16
ATOM     15  C   UNL     1      37.574   0.106  14.822  0.00  0.00    +0.000 C 
ATOM     16  N   UNL     1      38.469   0.817  15.373  0.00  0.00    +0.000 NA
BRANCH  15  22
ATOM     17  C   UNL     1      33.667  -1.665  17.388  0.00  0.00    +0.000 C 
ATOM     18  C   UNL     1      34.985  -1.843  16.745  0.00  0.00    +0.000 A 
ATOM     19  C   UNL     1      35.565  -3.096  16.795  0.00  0.00    +0.000 A 
ATOM     20  C   UNL     1      36.801  -3.302  16.203  0.00  0.00    +0.000 A 
ATOM     21  C   UNL     1      37.431  -2.247  15.570  0.00  0.00    +0.000 A 
ATOM     22  C   UNL     1      36.880  -0.986  15.500  0.00  0.00    +0.000 A 
ATOM     23  C   UNL     1      35.650  -0.798  16.095  0.00  0.00    +0.000 A 
ENDBRANCH  15  22
ENDBRANCH  12  16
ENDBRANCH  11  13
ENDBRANCH  10  11
ENDBRANCH   1  10
BRANCH   9  24
ATOM     24  C   UNL     1      39.367   5.855  19.045  0.00  0.00    +0.000 C 
BRANCH  24  25
ATOM     25  C   UNL     1      38.720   7.174  19.324  0.00  0.00    +0.000 A 
ATOM     26  C   UNL     1      39.059   7.756  20.538  0.00  0.00    +0.000 A 
ATOM     27  C   UNL     1      38.536   8.960  20.917  0.00  0.00    +0.000 A 
ATOM     28  C   UNL     1      37.654   9.630  20.095  0.00  0.00    +0.000 A 
ATOM     29  C   UNL     1      37.333   9.035  18.896  0.00  0.00    +0.000 A 
ATOM     30  C   UNL     1      37.849   7.822  18.495  0.00  0.00    +0.000 A 
ENDBRANCH  24  25
ENDBRANCH   9  24
TORSDOF 7
ENDMDL
MODEL 9
REMARK VINA RESULT:      -7.9      2.071      4.157
REMARK  Name = 
REMARK  7 active torsions:
REMARK  status: ('A' for Active; 'I' for Inactive)
REMARK    1  A    between atoms: C_6  and  C_7
REMARK    2  A    between atoms: N_8  and  N_9
REMARK    3  A    between atoms: C_10  and  C_12
REMARK    4  A    between atoms: C_12  and  S_13
REMARK    5  A    between atoms: S_13  and  C_14
REMARK    6  A    between atoms: N_22  and  C_23
REMARK    7  A    between atoms: C_23  and  C_24
REMARK                            x       y       z     vdW  Elec       q    Type
REMARK                         _______ _______ _______ _____ _____    ______ ____
ROOT
ATOM      1  C   UNL     1      38.214  -0.573  14.717  0.00  0.00    +0.000 A 
ATOM      2  N   UNL     1      39.379   0.075  15.026  0.00  0.00    +0.000 NA
ATOM      3  C   UNL     1      40.420  -0.556  14.498  0.00  0.00    +0.000 A 
ATOM      4  C   UNL     1      41.791  -0.351  14.487  0.00  0.00    +0.000 A 
ATOM      5  C   UNL     1      42.617  -1.226  13.820  0.00  0.00    +0.000 A 
ATOM      6  C   UNL     1      42.100  -2.303  13.161  0.00  0.00    +0.000 A 
ATOM      7  C   UNL     1      40.745  -2.537  13.149  0.00  0.00    +0.000 A 
ATOM      8  C   UNL     1      39.934  -1.640  13.830  0.00  0.00    +0.000 A 
ATOM      9  N   UNL     1      38.580  -1.619  13.987  0.00  0.00    +0.000 N 
ENDROOT
BRANCH   1  10
ATOM     10  S   UNL     1      36.611   0.007  15.255  0.00  0.00    +0.000 S 
BRANCH  10  11
ATOM     11  C   UNL     1      36.323   1.721  14.822  0.00  0.00    +0.000 C 
BRANCH  11  13
ATOM     12  N   UNL     1      38.156   3.188  15.870  0.00  0.00    +0.000 NA
ATOM     13  C   UNL     1      36.862   2.610  15.902  0.00  0.00    +0.000 C 
ATOM     14  O   UNL     1      36.139   2.870  16.909  0.00  0.00    +0.000 OA
BRANCH  12  16
ATOM     15  C   UNL     1      38.440   5.261  16.971  0.00  0.00    +0.000 C 
ATOM     16  N   UNL     1      38.551   3.998  16.934  0.00  0.00    +0.000 NA
BRANCH  15  22
ATOM     17  C   UNL     1      41.683   6.300  20.630  0.00  0.00    +0.000 C 
ATOM     18  C   UNL     1      40.441   6.579  19.880  0.00  0.00    +0.000 A 
ATOM     19  C   UNL     1      39.671   7.654  20.280  0.00  0.00    +0.000 A 
ATOM     20  C   UNL     1      38.499   7.946  19.599  0.00  0.00    +0.000 A 
ATOM     21  C   UNL     1      38.124   7.154  18.530  0.00  0.00    +0.000 A 
ATOM     22  C   UNL     1      38.869   6.076  18.106  0.00  0.00    +0.000 A 
ATOM     23  C   UNL     1      40.031   5.799  18.794  0.00  0.00    +0.000 A 
ENDBRANCH  15  22
ENDBRANCH  12  16
ENDBRANCH  11  13
ENDBRANCH  10  11
ENDBRANCH   1  10
BRANCH   9  24
ATOM     24  C   UNL     1      37.669  -2.607  13.426  0.00  0.00    +0.000 C 
BRANCH  24  25
ATOM     25  C   UNL     1      37.231  -3.496  14.545  0.00  0.00    +0.000 A 
ATOM     26  C   UNL     1      35.926  -3.961  14.458  0.00  0.00    +0.000 A 
ATOM     27  C   UNL     1      35.400  -4.780  15.417  0.00  0.00    +0.000 A 
ATOM     28  C   UNL     1      36.159  -5.166  16.501  0.00  0.00    +0.000 A 
ATOM     29  C   UNL     1      37.450  -4.694  16.567  0.00  0.00    +0.000 A 
ATOM     30  C   UNL     1      38.000  -3.868  15.612  0.00  0.00    +0.000 A 
ENDBRANCH  24  25
ENDBRANCH   9  24
TORSDOF 7
ENDMDL
MODEL 10
REMARK VINA RESULT:      -7.7      2.503      9.183
REMARK  Name = 
REMARK  7 active torsions:
REMARK  status: ('A' for Active; 'I' for Inactive)
REMARK    1  A    between atoms: C_6  and  C_7
REMARK    2  A    between atoms: N_8  and  N_9
REMARK    3  A    between atoms: C_10  and  C_12
REMARK    4  A    between atoms: C_12  and  S_13
REMARK    5  A    between atoms: S_13  and  C_14
REMARK    6  A    between atoms: N_22  and  C_23
REMARK    7  A    between atoms: C_23  and  C_24
REMARK                            x       y       z     vdW  Elec       q    Type
REMARK                         _______ _______ _______ _____ _____    ______ ____
ROOT
ATOM      1  C   UNL     1      38.496   6.829  17.126  0.00  0.00    +0.000 A 
ATOM      2  N   UNL     1      37.851   8.017  16.911  0.00  0.00    +0.000 NA
ATOM      3  C   UNL     1      37.838   8.749  18.017  0.00  0.00    +0.000 A 
ATOM      4  C   UNL     1      37.342   9.996  18.365  0.00  0.00    +0.000 A 
ATOM      5  C   UNL     1      37.505  10.475  19.644  0.00  0.00    +0.000 A 
ATOM      6  C   UNL     1      38.156   9.733  20.585  0.00  0.00    +0.000 A 
ATOM      7  C   UNL     1      38.661   8.492  20.276  0.00  0.00    +0.000 A 
ATOM      8  C   UNL     1      38.484   8.031  18.980  0.00  0.00    +0.000 A 
ATOM      9  N   UNL     1      38.872   6.861  18.398  0.00  0.00    +0.000 N 
ENDROOT
BRANCH   1  10
ATOM     10  S   UNL     1      38.713   5.599  15.846  0.00  0.00    +0.000 S 
BRANCH  10  11
ATOM     11  C   UNL     1      37.200   4.708  15.490  0.00  0.00    +0.000 C 
BRANCH  11  13
ATOM     12  N   UNL     1      37.415   2.169  15.150  0.00  0.00    +0.000 NA
ATOM     13  C   UNL     1      37.314   3.302  15.995  0.00  0.00    +0.000 C 
ATOM     14  O   UNL     1      37.321   3.091  17.244  0.00  0.00    +0.000 OA
BRANCH  12  16
ATOM     15  C   UNL     1      37.537  -0.192  15.100  0.00  0.00    +0.000 C 
ATOM     16  N   UNL     1      37.515   0.907  15.734  0.00  0.00    +0.000 NA
BRANCH  15  22
ATOM     17  C   UNL     1      38.602  -3.020  19.082  0.00  0.00    +0.000 C 
ATOM     18  C   UNL     1      38.159  -2.867  17.681  0.00  0.00    +0.000 A 
ATOM     19  C   UNL     1      37.833  -4.010  16.977  0.00  0.00    +0.000 A 
ATOM     20  C   UNL     1      37.412  -3.905  15.660  0.00  0.00    +0.000 A 
ATOM     21  C   UNL     1      37.325  -2.656  15.077  0.00  0.00    +0.000 A 
ATOM     22  C   UNL     1      37.641  -1.497  15.750  0.00  0.00    +0.000 A 
ATOM     23  C   UNL     1      38.059  -1.618  17.059  0.00  0.00    +0.000 A 
ENDBRANCH  15  22
ENDBRANCH  12  16
ENDBRANCH  11  13
ENDBRANCH  10  11
ENDBRANCH   1  10
BRANCH   9  24
ATOM     24  C   UNL     1      39.600   5.801  19.083  0.00  0.00    +0.000 C 
BRANCH  24  25
ATOM     25  C   UNL     1      41.043   6.190  19.096  0.00  0.00    +0.000 A 
ATOM     26  C   UNL     1      41.622   6.280  20.356  0.00  0.00    +0.000 A 
ATOM     27  C   UNL     1      42.933   6.628  20.509  0.00  0.00    +0.000 A 
ATOM     28  C   UNL     1      43.720   6.899  19.409  0.00  0.00    +0.000 A 
ATOM     29  C   UNL     1      43.126   6.803  18.171  0.00  0.00    +0.000 A 
ATOM     30  C   UNL     1      41.805   6.454  17.994  0.00  0.00    +0.000 A 
ENDBRANCH  24  25
ENDBRANCH   9  24
TORSDOF 7
ENDMDL
