MODEL 1
REMARK VINA RESULT:      -6.2      0.000      0.000
REMARK  Name = 
REMARK  4 active torsions:
REMARK  status: ('A' for Active; 'I' for Inactive)
REMARK    1  A    between atoms: C_2  and  O_3
REMARK    2  A    between atoms: O_3  and  C_4
REMARK    3  A    between atoms: C_4  and  C_6
REMARK    4  A    between atoms: C_9  and  C_10
REMARK                            x       y       z     vdW  Elec       q    Type
REMARK                         _______ _______ _______ _____ _____    ______ ____
ROOT
ATOM      1  C   UNL     1      26.076  24.234  25.576  0.00  0.00    +0.000 C 
ATOM      2  C   UNL     1      27.020  25.041  25.347  0.00  0.00    +0.000 C 
ATOM      3  C   UNL     1      27.648  25.910  26.421  0.00  0.00    +0.000 C 
ATOM      4  C   UNL     1      27.649  25.265  23.920  0.00  0.00    +0.000 C 
ATOM      5  N   UNL     1      26.949  24.267  23.011  0.00  0.00    +0.000 NA
ATOM      6  C   UNL     1      25.939  23.423  23.295  0.00  0.00    +0.000 C 
ATOM      7  O   UNL     1      25.430  22.683  22.382  0.00  0.00    +0.000 OA
ATOM      8  N   UNL     1      25.494  23.410  24.619  0.00  0.00    +0.000 NA
ENDROOT
BRANCH   4   9
ATOM      9  C   UNL     1      28.977  24.420  24.173  0.00  0.00    +0.000 A 
ATOM     10  C   UNL     1      28.879  23.078  24.301  0.00  0.00    +0.000 A 
ATOM     11  C   UNL     1      30.019  22.348  24.523  0.00  0.00    +0.000 A 
ATOM     12  C   UNL     1      31.255  22.953  24.618  0.00  0.00    +0.000 A 
ATOM     13  C   UNL     1      31.318  24.325  24.482  0.00  0.00    +0.000 A 
ATOM     14  C   UNL     1      30.165  25.053  24.259  0.00  0.00    +0.000 A 
ATOM     15 CL   UNL     1      30.327  26.792  24.108  0.00  0.00    +0.000 Cl
ENDBRANCH   4   9
BRANCH   1  16
ATOM     16  C   UNL     1      25.584  24.170  26.992  0.00  0.00    +0.000 C 
ATOM     17  O   UNL     1      24.583  24.841  27.322  0.00  0.00    +0.000 OA
BRANCH  16  18
ATOM     18  O   UNL     1      26.235  23.390  27.874  0.00  0.00    +0.000 OA
BRANCH  18  20
ATOM     19  C   UNL     1      26.453  22.332  29.992  0.00  0.00    +0.000 C 
ATOM     20  C   UNL     1      26.133  23.651  29.279  0.00  0.00    +0.000 C 
ENDBRANCH  18  20
ENDBRANCH  16  18
ENDBRANCH   1  16
TORSDOF 4
ENDMDL
MODEL 2
REMARK VINA RESULT:      -5.8     32.033     33.752
REMARK  Name = 
REMARK  4 active torsions:
REMARK  status: ('A' for Active; 'I' for Inactive)
REMARK    1  A    between atoms: C_2  and  O_3
REMARK    2  A    between atoms: O_3  and  C_4
REMARK    3  A    between atoms: C_4  and  C_6
REMARK    4  A    between atoms: C_9  and  C_10
REMARK                            x       y       z     vdW  Elec       q    Type
REMARK                         _______ _______ _______ _____ _____    ______ ____
ROOT
ATOM      1  C   UNL     1      20.061  -7.532  25.525  0.00  0.00    +0.000 C 
ATOM      2  C   UNL     1      19.186  -8.435  25.419  0.00  0.00    +0.000 C 
ATOM      3  C   UNL     1      19.500  -9.849  24.966  0.00  0.00    +0.000 C 
ATOM      4  C   UNL     1      17.656  -8.206  25.721  0.00  0.00    +0.000 C 
ATOM      5  N   UNL     1      17.556  -6.775  26.224  0.00  0.00    +0.000 NA
ATOM      6  C   UNL     1      18.519  -5.838  26.319  0.00  0.00    +0.000 C 
ATOM      7  O   UNL     1      18.242  -4.653  26.720  0.00  0.00    +0.000 OA
ATOM      8  N   UNL     1      19.809  -6.236  25.957  0.00  0.00    +0.000 NA
ENDROOT
BRANCH   4   9
ATOM      9  C   UNL     1      17.642  -8.928  27.142  0.00  0.00    +0.000 A 
ATOM     10  C   UNL     1      18.531  -8.534  28.080  0.00  0.00    +0.000 A 
ATOM     11  C   UNL     1      18.525  -9.157  29.303  0.00  0.00    +0.000 A 
ATOM     12  C   UNL     1      17.635 -10.169  29.592  0.00  0.00    +0.000 A 
ATOM     13  C   UNL     1      16.739 -10.545  28.611  0.00  0.00    +0.000 A 
ATOM     14  C   UNL     1      16.753  -9.914  27.381  0.00  0.00    +0.000 A 
ATOM     15 CL   UNL     1      15.592 -10.456  26.184  0.00  0.00    +0.000 Cl
ENDBRANCH   4   9
BRANCH   1  16
ATOM     16  C   UNL     1      21.466  -7.924  25.171  0.00  0.00    +0.000 C 
ATOM     17  O   UNL     1      22.144  -8.579  25.993  0.00  0.00    +0.000 OA
BRANCH  16  18
ATOM     18  O   UNL     1      21.965  -7.560  23.976  0.00  0.00    +0.000 OA
BRANCH  18  20
ATOM     19  C   UNL     1      24.120  -6.558  24.035  0.00  0.00    +0.000 C 
ATOM     20  C   UNL     1      22.624  -6.297  23.824  0.00  0.00    +0.000 C 
ENDBRANCH  18  20
ENDBRANCH  16  18
ENDBRANCH   1  16
TORSDOF 4
ENDMDL
MODEL 3
REMARK VINA RESULT:      -5.8      2.565      3.547
REMARK  Name = 
REMARK  4 active torsions:
REMARK  status: ('A' for Active; 'I' for Inactive)
REMARK    1  A    between atoms: C_2  and  O_3
REMARK    2  A    between atoms: O_3  and  C_4
REMARK    3  A    between atoms: C_4  and  C_6
REMARK    4  A    between atoms: C_9  and  C_10
REMARK                            x       y       z     vdW  Elec       q    Type
REMARK                         _______ _______ _______ _____ _____    ______ ____
ROOT
ATOM      1  C   UNL     1      27.814  25.728  23.172  0.00  0.00    +0.000 C 
ATOM      2  C   UNL     1      28.931  25.179  23.389  0.00  0.00    +0.000 C 
ATOM      3  C   UNL     1      30.114  25.914  23.990  0.00  0.00    +0.000 C 
ATOM      4  C   UNL     1      29.245  23.674  23.043  0.00  0.00    +0.000 C 
ATOM      5  N   UNL     1      27.934  23.098  22.529  0.00  0.00    +0.000 NA
ATOM      6  C   UNL     1      26.761  23.722  22.309  0.00  0.00    +0.000 C 
ATOM      7  O   UNL     1      25.765  23.084  21.817  0.00  0.00    +0.000 OA
ATOM      8  N   UNL     1      26.706  25.077  22.643  0.00  0.00    +0.000 NA
ENDROOT
BRANCH   4   9
ATOM      9  C   UNL     1      29.145  23.121  24.535  0.00  0.00    +0.000 A 
ATOM     10  C   UNL     1      27.925  23.012  25.107  0.00  0.00    +0.000 A 
ATOM     11  C   UNL     1      27.835  22.541  26.392  0.00  0.00    +0.000 A 
ATOM     12  C   UNL     1      28.957  22.178  27.106  0.00  0.00    +0.000 A 
ATOM     13  C   UNL     1      30.187  22.301  26.491  0.00  0.00    +0.000 A 
ATOM     14  C   UNL     1      30.269  22.778  25.197  0.00  0.00    +0.000 A 
ATOM     15 CL   UNL     1      31.866  22.916  24.488  0.00  0.00    +0.000 Cl
ENDBRANCH   4   9
BRANCH   1  16
ATOM     16  C   UNL     1      27.703  27.178  23.542  0.00  0.00    +0.000 C 
ATOM     17  O   UNL     1      27.745  28.043  22.640  0.00  0.00    +0.000 OA
BRANCH  16  18
ATOM     18  O   UNL     1      27.562  27.513  24.836  0.00  0.00    +0.000 OA
BRANCH  18  20
ATOM     19  C   UNL     1      27.321  26.241  26.831  0.00  0.00    +0.000 C 
ATOM     20  C   UNL     1      26.574  26.864  25.646  0.00  0.00    +0.000 C 
ENDBRANCH  18  20
ENDBRANCH  16  18
ENDBRANCH   1  16
TORSDOF 4
ENDMDL
MODEL 4
REMARK VINA RESULT:      -5.8      2.699      4.589
REMARK  Name = 
REMARK  4 active torsions:
REMARK  status: ('A' for Active; 'I' for Inactive)
REMARK    1  A    between atoms: C_2  and  O_3
REMARK    2  A    between atoms: O_3  and  C_4
REMARK    3  A    between atoms: C_4  and  C_6
REMARK    4  A    between atoms: C_9  and  C_10
REMARK                            x       y       z     vdW  Elec       q    Type
REMARK                         _______ _______ _______ _____ _____    ______ ____
ROOT
ATOM      1  C   UNL     1      27.826  25.708  23.156  0.00  0.00    +0.000 C 
ATOM      2  C   UNL     1      28.938  25.152  23.376  0.00  0.00    +0.000 C 
ATOM      3  C   UNL     1      30.131  25.884  23.962  0.00  0.00    +0.000 C 
ATOM      4  C   UNL     1      29.237  23.640  23.050  0.00  0.00    +0.000 C 
ATOM      5  N   UNL     1      27.919  23.069  22.548  0.00  0.00    +0.000 NA
ATOM      6  C   UNL     1      26.751  23.700  22.324  0.00  0.00    +0.000 C 
ATOM      7  O   UNL     1      25.747  23.065  21.844  0.00  0.00    +0.000 OA
ATOM      8  N   UNL     1      26.709  25.060  22.640  0.00  0.00    +0.000 NA
ENDROOT
BRANCH   4   9
ATOM      9  C   UNL     1      29.137  23.108  24.549  0.00  0.00    +0.000 A 
ATOM     10  C   UNL     1      27.918  23.015  25.126  0.00  0.00    +0.000 A 
ATOM     11  C   UNL     1      27.830  22.562  26.418  0.00  0.00    +0.000 A 
ATOM     12  C   UNL     1      28.951  22.202  27.134  0.00  0.00    +0.000 A 
ATOM     13  C   UNL     1      30.180  22.309  26.514  0.00  0.00    +0.000 A 
ATOM     14  C   UNL     1      30.261  22.767  25.213  0.00  0.00    +0.000 A 
ATOM     15 CL   UNL     1      31.857  22.885  24.498  0.00  0.00    +0.000 Cl
ENDBRANCH   4   9
BRANCH   1  16
ATOM     16  C   UNL     1      27.729  27.164  23.505  0.00  0.00    +0.000 C 
ATOM     17  O   UNL     1      27.170  27.500  24.572  0.00  0.00    +0.000 OA
BRANCH  16  18
ATOM     18  O   UNL     1      28.246  28.074  22.661  0.00  0.00    +0.000 OA
BRANCH  18  20
ATOM     19  C   UNL     1      29.307  27.798  20.551  0.00  0.00    +0.000 C 
ATOM     20  C   UNL     1      27.962  28.001  21.259  0.00  0.00    +0.000 C 
ENDBRANCH  18  20
ENDBRANCH  16  18
ENDBRANCH   1  16
TORSDOF 4
ENDMDL
MODEL 5
REMARK VINA RESULT:      -5.7      2.879      5.315
REMARK  Name = 
REMARK  4 active torsions:
REMARK  status: ('A' for Active; 'I' for Inactive)
REMARK    1  A    between atoms: C_2  and  O_3
REMARK    2  A    between atoms: O_3  and  C_4
REMARK    3  A    between atoms: C_4  and  C_6
REMARK    4  A    between atoms: C_9  and  C_10
REMARK                            x       y       z     vdW  Elec       q    Type
REMARK                         _______ _______ _______ _____ _____    ______ ____
ROOT
ATOM      1  C   UNL     1      28.054  23.902  23.895  0.00  0.00    +0.000 C 
ATOM      2  C   UNL     1      27.777  23.728  25.114  0.00  0.00    +0.000 C 
ATOM      3  C   UNL     1      28.717  24.111  26.242  0.00  0.00    +0.000 C 
ATOM      4  C   UNL     1      26.435  23.074  25.620  0.00  0.00    +0.000 C 
ATOM      5  N   UNL     1      25.609  22.833  24.366  0.00  0.00    +0.000 NA
ATOM      6  C   UNL     1      25.945  23.029  23.076  0.00  0.00    +0.000 C 
ATOM      7  O   UNL     1      25.134  22.717  22.135  0.00  0.00    +0.000 OA
ATOM      8  N   UNL     1      27.206  23.582  22.841  0.00  0.00    +0.000 NA
ENDROOT
BRANCH   4   9
ATOM      9  C   UNL     1      25.733  24.430  26.075  0.00  0.00    +0.000 A 
ATOM     10  C   UNL     1      25.362  25.320  25.127  0.00  0.00    +0.000 A 
ATOM     11  C   UNL     1      24.761  26.491  25.516  0.00  0.00    +0.000 A 
ATOM     12  C   UNL     1      24.529  26.775  26.844  0.00  0.00    +0.000 A 
ATOM     13  C   UNL     1      24.919  25.844  27.786  0.00  0.00    +0.000 A 
ATOM     14  C   UNL     1      25.525  24.668  27.386  0.00  0.00    +0.000 A 
ATOM     15 CL   UNL     1      26.002  23.540  28.641  0.00  0.00    +0.000 Cl
ENDBRANCH   4   9
BRANCH   1  16
ATOM     16  C   UNL     1      29.390  24.517  23.597  0.00  0.00    +0.000 C 
ATOM     17  O   UNL     1      30.344  23.777  23.273  0.00  0.00    +0.000 OA
BRANCH  16  18
ATOM     18  O   UNL     1      29.529  25.851  23.688  0.00  0.00    +0.000 OA
BRANCH  18  20
ATOM     19  C   UNL     1      27.888  27.421  22.984  0.00  0.00    +0.000 C 
ATOM     20  C   UNL     1      29.174  26.691  22.582  0.00  0.00    +0.000 C 
ENDBRANCH  18  20
ENDBRANCH  16  18
ENDBRANCH   1  16
TORSDOF 4
ENDMDL
MODEL 6
REMARK VINA RESULT:      -5.6      3.936      6.377
REMARK  Name = 
REMARK  4 active torsions:
REMARK  status: ('A' for Active; 'I' for Inactive)
REMARK    1  A    between atoms: C_2  and  O_3
REMARK    2  A    between atoms: O_3  and  C_4
REMARK    3  A    between atoms: C_4  and  C_6
REMARK    4  A    between atoms: C_9  and  C_10
REMARK                            x       y       z     vdW  Elec       q    Type
REMARK                         _______ _______ _______ _____ _____    ______ ____
ROOT
ATOM      1  C   UNL     1      28.077  23.062  29.129  0.00  0.00    +0.000 C 
ATOM      2  C   UNL     1      27.795  24.263  29.398  0.00  0.00    +0.000 C 
ATOM      3  C   UNL     1      28.544  25.444  28.810  0.00  0.00    +0.000 C 
ATOM      4  C   UNL     1      26.649  24.688  30.393  0.00  0.00    +0.000 C 
ATOM      5  N   UNL     1      25.979  23.389  30.812  0.00  0.00    +0.000 NA
ATOM      6  C   UNL     1      26.314  22.122  30.504  0.00  0.00    +0.000 C 
ATOM      7  O   UNL     1      25.662  21.135  30.995  0.00  0.00    +0.000 OA
ATOM      8  N   UNL     1      27.397  21.960  29.635  0.00  0.00    +0.000 NA
ENDROOT
BRANCH   4   9
ATOM      9  C   UNL     1      25.593  25.118  29.280  0.00  0.00    +0.000 A 
ATOM     10  C   UNL     1      25.646  24.521  28.068  0.00  0.00    +0.000 A 
ATOM     11  C   UNL     1      24.741  24.892  27.106  0.00  0.00    +0.000 A 
ATOM     12  C   UNL     1      23.785  25.855  27.349  0.00  0.00    +0.000 A 
ATOM     13  C   UNL     1      23.759  26.444  28.597  0.00  0.00    +0.000 A 
ATOM     14  C   UNL     1      24.675  26.065  29.560  0.00  0.00    +0.000 A 
ATOM     15 CL   UNL     1      24.584  26.867  31.117  0.00  0.00    +0.000 Cl
ENDBRANCH   4   9
BRANCH   1  16
ATOM     16  C   UNL     1      29.217  22.843  28.179  0.00  0.00    +0.000 C 
ATOM     17  O   UNL     1      30.332  22.501  28.630  0.00  0.00    +0.000 OA
BRANCH  16  18
ATOM     18  O   UNL     1      29.013  23.022  26.862  0.00  0.00    +0.000 OA
BRANCH  18  20
ATOM     19  C   UNL     1      27.543  23.257  25.007  0.00  0.00    +0.000 C 
ATOM     20  C   UNL     1      27.912  22.378  26.208  0.00  0.00    +0.000 C 
ENDBRANCH  18  20
ENDBRANCH  16  18
ENDBRANCH   1  16
TORSDOF 4
ENDMDL
MODEL 7
REMARK VINA RESULT:      -5.5     32.854     34.341
REMARK  Name = 
REMARK  4 active torsions:
REMARK  status: ('A' for Active; 'I' for Inactive)
REMARK    1  A    between atoms: C_2  and  O_3
REMARK    2  A    between atoms: O_3  and  C_4
REMARK    3  A    between atoms: C_4  and  C_6
REMARK    4  A    between atoms: C_9  and  C_10
REMARK                            x       y       z     vdW  Elec       q    Type
REMARK                         _______ _______ _______ _____ _____    ______ ____
ROOT
ATOM      1  C   UNL     1      16.852  -9.701  27.375  0.00  0.00    +0.000 C 
ATOM      2  C   UNL     1      17.562  -8.779  27.866  0.00  0.00    +0.000 C 
ATOM      3  C   UNL     1      18.520  -8.995  29.023  0.00  0.00    +0.000 C 
ATOM      4  C   UNL     1      17.526  -7.287  27.360  0.00  0.00    +0.000 C 
ATOM      5  N   UNL     1      16.579  -7.289  26.171  0.00  0.00    +0.000 NA
ATOM      6  C   UNL     1      15.835  -8.298  25.679  0.00  0.00    +0.000 C 
ATOM      7  O   UNL     1      15.043  -8.105  24.691  0.00  0.00    +0.000 OA
ATOM      8  N   UNL     1      15.982  -9.540  26.304  0.00  0.00    +0.000 NA
ENDROOT
BRANCH   4   9
ATOM      9  C   UNL     1      18.892  -7.342  26.539  0.00  0.00    +0.000 A 
ATOM     10  C   UNL     1      19.422  -8.549  26.241  0.00  0.00    +0.000 A 
ATOM     11  C   UNL     1      20.600  -8.600  25.539  0.00  0.00    +0.000 A 
ATOM     12  C   UNL     1      21.248  -7.453  25.134  0.00  0.00    +0.000 A 
ATOM     13  C   UNL     1      20.677  -6.237  25.455  0.00  0.00    +0.000 A 
ATOM     14  C   UNL     1      19.492  -6.194  26.163  0.00  0.00    +0.000 A 
ATOM     15 CL   UNL     1      18.836  -4.613  26.542  0.00  0.00    +0.000 Cl
ENDBRANCH   4   9
BRANCH   1  16
ATOM     16  C   UNL     1      16.998 -11.057  28.000  0.00  0.00    +0.000 C 
ATOM     17  O   UNL     1      16.393 -11.307  29.066  0.00  0.00    +0.000 OA
BRANCH  16  18
ATOM     18  O   UNL     1      17.777 -11.973  27.399  0.00  0.00    +0.000 OA
BRANCH  18  20
ATOM     19  C   UNL     1      20.147 -11.997  27.597  0.00  0.00    +0.000 C 
ATOM     20  C   UNL     1      18.841 -12.603  28.124  0.00  0.00    +0.000 C 
ENDBRANCH  18  20
ENDBRANCH  16  18
ENDBRANCH   1  16
TORSDOF 4
ENDMDL
MODEL 8
REMARK VINA RESULT:      -5.4     13.924     15.631
REMARK  Name = 
REMARK  4 active torsions:
REMARK  status: ('A' for Active; 'I' for Inactive)
REMARK    1  A    between atoms: C_2  and  O_3
REMARK    2  A    between atoms: O_3  and  C_4
REMARK    3  A    between atoms: C_4  and  C_6
REMARK    4  A    between atoms: C_9  and  C_10
REMARK                            x       y       z     vdW  Elec       q    Type
REMARK                         _______ _______ _______ _____ _____    ______ ____
ROOT
ATOM      1  C   UNL     1      30.782  21.945  12.067  0.00  0.00    +0.000 C 
ATOM      2  C   UNL     1      30.325  21.390  11.029  0.00  0.00    +0.000 C 
ATOM      3  C   UNL     1      28.987  21.752  10.413  0.00  0.00    +0.000 C 
ATOM      4  C   UNL     1      31.072  20.237  10.257  0.00  0.00    +0.000 C 
ATOM      5  N   UNL     1      32.404  20.072  10.972  0.00  0.00    +0.000 NA
ATOM      6  C   UNL     1      32.853  20.685  12.084  0.00  0.00    +0.000 C 
ATOM      7  O   UNL     1      33.993  20.381  12.583  0.00  0.00    +0.000 OA
ATOM      8  N   UNL     1      32.012  21.651  12.643  0.00  0.00    +0.000 NA
ENDROOT
BRANCH   4   9
ATOM      9  C   UNL     1      31.595  21.137   9.049  0.00  0.00    +0.000 A 
ATOM     10  C   UNL     1      32.486  22.119   9.309  0.00  0.00    +0.000 A 
ATOM     11  C   UNL     1      32.934  22.899   8.273  0.00  0.00    +0.000 A 
ATOM     12  C   UNL     1      32.496  22.701   6.981  0.00  0.00    +0.000 A 
ATOM     13  C   UNL     1      31.586  21.689   6.752  0.00  0.00    +0.000 A 
ATOM     14  C   UNL     1      31.139  20.909   7.801  0.00  0.00    +0.000 A 
ATOM     15 CL   UNL     1      29.975  19.651   7.431  0.00  0.00    +0.000 Cl
ENDBRANCH   4   9
BRANCH   1  16
ATOM     16  C   UNL     1      29.921  23.007  12.686  0.00  0.00    +0.000 C 
ATOM     17  O   UNL     1      29.940  24.163  12.210  0.00  0.00    +0.000 OA
BRANCH  16  18
ATOM     18  O   UNL     1      29.149  22.690  13.740  0.00  0.00    +0.000 OA
BRANCH  18  20
ATOM     19  C   UNL     1      26.828  23.058  13.380  0.00  0.00    +0.000 C 
ATOM     20  C   UNL     1      28.071  23.550  14.130  0.00  0.00    +0.000 C 
ENDBRANCH  18  20
ENDBRANCH  16  18
ENDBRANCH   1  16
TORSDOF 4
ENDMDL
MODEL 9
REMARK VINA RESULT:      -5.4     32.927     34.509
REMARK  Name = 
REMARK  4 active torsions:
REMARK  status: ('A' for Active; 'I' for Inactive)
REMARK    1  A    between atoms: C_2  and  O_3
REMARK    2  A    between atoms: O_3  and  C_4
REMARK    3  A    between atoms: C_4  and  C_6
REMARK    4  A    between atoms: C_9  and  C_10
REMARK                            x       y       z     vdW  Elec       q    Type
REMARK                         _______ _______ _______ _____ _____    ______ ____
ROOT
ATOM      1  C   UNL     1      17.060 -10.030  27.439  0.00  0.00    +0.000 C 
ATOM      2  C   UNL     1      17.966  -9.754  26.604  0.00  0.00    +0.000 C 
ATOM      3  C   UNL     1      17.750  -9.786  25.102  0.00  0.00    +0.000 C 
ATOM      4  C   UNL     1      19.438  -9.365  27.011  0.00  0.00    +0.000 C 
ATOM      5  N   UNL     1      19.434  -9.317  28.531  0.00  0.00    +0.000 NA
ATOM      6  C   UNL     1      18.442  -9.623  29.389  0.00  0.00    +0.000 C 
ATOM      7  O   UNL     1      18.634  -9.575  30.654  0.00  0.00    +0.000 OA
ATOM      8  N   UNL     1      17.220  -9.989  28.818  0.00  0.00    +0.000 NA
ENDROOT
BRANCH   4   9
ATOM      9  C   UNL     1      19.290  -7.800  26.752  0.00  0.00    +0.000 A 
ATOM     10  C   UNL     1      18.272  -7.136  27.344  0.00  0.00    +0.000 A 
ATOM     11  C   UNL     1      18.139  -5.789  27.119  0.00  0.00    +0.000 A 
ATOM     12  C   UNL     1      19.018  -5.104  26.308  0.00  0.00    +0.000 A 
ATOM     13  C   UNL     1      20.047  -5.813  25.720  0.00  0.00    +0.000 A 
ATOM     14  C   UNL     1      20.173  -7.169  25.951  0.00  0.00    +0.000 A 
ATOM     15 CL   UNL     1      21.499  -8.001  25.160  0.00  0.00    +0.000 Cl
ENDBRANCH   4   9
BRANCH   1  16
ATOM     16  C   UNL     1      15.723 -10.403  26.869  0.00  0.00    +0.000 C 
ATOM     17  O   UNL     1      15.463 -11.608  26.658  0.00  0.00    +0.000 OA
BRANCH  16  18
ATOM     18  O   UNL     1      14.834  -9.431  26.598  0.00  0.00    +0.000 OA
BRANCH  18  20
ATOM     19  C   UNL     1      12.862  -8.440  25.712  0.00  0.00    +0.000 C 
ATOM     20  C   UNL     1      13.806  -9.645  25.622  0.00  0.00    +0.000 C 
ENDBRANCH  18  20
ENDBRANCH  16  18
ENDBRANCH   1  16
TORSDOF 4
ENDMDL
MODEL 10
REMARK VINA RESULT:      -5.4     18.614     20.668
REMARK  Name = 
REMARK  4 active torsions:
REMARK  status: ('A' for Active; 'I' for Inactive)
REMARK    1  A    between atoms: C_2  and  O_3
REMARK    2  A    between atoms: O_3  and  C_4
REMARK    3  A    between atoms: C_4  and  C_6
REMARK    4  A    between atoms: C_9  and  C_10
REMARK                            x       y       z     vdW  Elec       q    Type
REMARK                         _______ _______ _______ _____ _____    ______ ____
ROOT
ATOM      1  C   UNL     1      20.205  10.541  38.652  0.00  0.00    +0.000 C 
ATOM      2  C   UNL     1      19.183  11.224  38.363  0.00  0.00    +0.000 C 
ATOM      3  C   UNL     1      19.253  12.655  37.864  0.00  0.00    +0.000 C 
ATOM      4  C   UNL     1      17.707  10.689  38.506  0.00  0.00    +0.000 C 
ATOM      5  N   UNL     1      17.847   9.238  38.941  0.00  0.00    +0.000 NA
ATOM      6  C   UNL     1      18.961   8.545  39.244  0.00  0.00    +0.000 C 
ATOM      7  O   UNL     1      18.887   7.332  39.648  0.00  0.00    +0.000 OA
ATOM      8  N   UNL     1      20.174   9.223  39.091  0.00  0.00    +0.000 NA
ENDROOT
BRANCH   4   9
ATOM      9  C   UNL     1      17.461  10.419  36.955  0.00  0.00    +0.000 A 
ATOM     10  C   UNL     1      18.100   9.383  36.366  0.00  0.00    +0.000 A 
ATOM     11  C   UNL     1      17.894   9.151  35.030  0.00  0.00    +0.000 A 
ATOM     12  C   UNL     1      17.055   9.947  34.281  0.00  0.00    +0.000 A 
ATOM     13  C   UNL     1      16.418  10.996  34.914  0.00  0.00    +0.000 A 
ATOM     14  C   UNL     1      16.631  11.224  36.260  0.00  0.00    +0.000 A 
ATOM     15 CL   UNL     1      15.796  12.581  36.990  0.00  0.00    +0.000 Cl
ENDBRANCH   4   9
BRANCH   1  16
ATOM     16  C   UNL     1      21.530  11.222  38.478  0.00  0.00    +0.000 C 
ATOM     17  O   UNL     1      22.175  11.044  37.422  0.00  0.00    +0.000 OA
BRANCH  16  18
ATOM     18  O   UNL     1      21.995  12.009  39.465  0.00  0.00    +0.000 OA
BRANCH  18  20
ATOM     19  C   UNL     1      22.411  14.311  39.038  0.00  0.00    +0.000 C 
ATOM     20  C   UNL     1      23.060  12.933  39.211  0.00  0.00    +0.000 C 
ENDBRANCH  18  20
ENDBRANCH  16  18
ENDBRANCH   1  16
TORSDOF 4
ENDMDL
