MODEL 1
REMARK VINA RESULT:      -6.1      0.000      0.000
REMARK  Name = 
REMARK  2 active torsions:
REMARK  status: ('A' for Active; 'I' for Inactive)
REMARK    1  A    between atoms: C_2  and  C_11
REMARK    2  A    between atoms: N_3  and  C_4
REMARK                            x       y       z     vdW  Elec       q    Type
REMARK                         _______ _______ _______ _____ _____    ______ ____
ROOT
ATOM      1  O   UNL     1      19.401  12.025  37.937  0.00  0.00    +0.000 OA
ATOM      2  C   UNL     1      19.515  10.779  37.879  0.00  0.00    +0.000 C 
ATOM      3  N   UNL     1      18.474  10.024  37.298  0.00  0.00    +0.000 NA
ENDROOT
BRANCH   2   4
ATOM      4  C   UNL     1      20.740  10.143  38.423  0.00  0.00    +0.000 A 
ATOM      5  S   UNL     1      21.082   9.725  40.041  0.00  0.00    +0.000 S 
ATOM      6  C   UNL     1      22.640   9.066  39.824  0.00  0.00    +0.000 A 
ATOM      7  C   UNL     1      22.848   9.193  38.481  0.00  0.00    +0.000 A 
ATOM      8  C   UNL     1      21.854   9.755  37.758  0.00  0.00    +0.000 A 
ATOM      9  C   UNL     1      22.133   9.873  36.275  0.00  0.00    +0.000 C 
ATOM     10  C   UNL     1      23.442  10.623  36.140  0.00  0.00    +0.000 C 
ATOM     11  C   UNL     1      24.560   9.968  36.917  0.00  0.00    +0.000 C 
ATOM     12  C   UNL     1      24.076   8.771  37.709  0.00  0.00    +0.000 C 
ENDBRANCH   2   4
BRANCH   3  13
ATOM     13  C   UNL     1      17.285  10.599  36.766  0.00  0.00    +0.000 A 
ATOM     14  C   UNL     1      16.279  11.093  37.571  0.00  0.00    +0.000 A 
ATOM     15  C   UNL     1      15.146  11.640  37.010  0.00  0.00    +0.000 A 
ATOM     16  C   UNL     1      14.975  11.715  35.633  0.00  0.00    +0.000 A 
ATOM     17  C   UNL     1      15.975  11.224  34.821  0.00  0.00    +0.000 A 
ATOM     18  C   UNL     1      17.124  10.670  35.399  0.00  0.00    +0.000 A 
ATOM     19  O   UNL     1      18.134  10.174  34.605  0.00  0.00    +0.000 OA
ENDBRANCH   3  13
TORSDOF 2
ENDMDL
MODEL 2
REMARK VINA RESULT:      -6.0     21.730     22.624
REMARK  Name = 
REMARK  2 active torsions:
REMARK  status: ('A' for Active; 'I' for Inactive)
REMARK    1  A    between atoms: C_2  and  C_11
REMARK    2  A    between atoms: N_3  and  C_4
REMARK                            x       y       z     vdW  Elec       q    Type
REMARK                         _______ _______ _______ _____ _____    ______ ____
ROOT
ATOM      1  O   UNL     1      20.099  -9.135  23.827  0.00  0.00    +0.000 OA
ATOM      2  C   UNL     1      21.167  -8.920  24.446  0.00  0.00    +0.000 C 
ATOM      3  N   UNL     1      21.121  -8.197  25.657  0.00  0.00    +0.000 NA
ENDROOT
BRANCH   2   4
ATOM      4  C   UNL     1      22.440  -9.434  23.883  0.00  0.00    +0.000 A 
ATOM      5  S   UNL     1      22.985 -11.048  23.806  0.00  0.00    +0.000 S 
ATOM      6  C   UNL     1      24.486 -10.788  23.040  0.00  0.00    +0.000 A 
ATOM      7  C   UNL     1      24.517  -9.435  22.865  0.00  0.00    +0.000 A 
ATOM      8  C   UNL     1      23.448  -8.736  23.307  0.00  0.00    +0.000 A 
ATOM      9  C   UNL     1      23.530  -7.240  23.090  0.00  0.00    +0.000 C 
ATOM     10  C   UNL     1      24.824  -6.781  23.729  0.00  0.00    +0.000 C 
ATOM     11  C   UNL     1      26.022  -7.537  23.202  0.00  0.00    +0.000 C 
ATOM     12  C   UNL     1      25.623  -8.627  22.228  0.00  0.00    +0.000 C 
ENDBRANCH   2   4
BRANCH   3  13
ATOM     13  C   UNL     1      19.919  -7.689  26.227  0.00  0.00    +0.000 A 
ATOM     14  C   UNL     1      19.102  -8.457  27.031  0.00  0.00    +0.000 A 
ATOM     15  C   UNL     1      17.948  -7.922  27.561  0.00  0.00    +0.000 A 
ATOM     16  C   UNL     1      17.569  -6.608  27.310  0.00  0.00    +0.000 A 
ATOM     17  C   UNL     1      18.380  -5.835  26.507  0.00  0.00    +0.000 A 
ATOM     18  C   UNL     1      19.551  -6.385  25.973  0.00  0.00    +0.000 A 
ATOM     19  O   UNL     1      20.374  -5.629  25.169  0.00  0.00    +0.000 OA
ENDBRANCH   3  13
TORSDOF 2
ENDMDL
MODEL 3
REMARK VINA RESULT:      -6.0      3.279      4.797
REMARK  Name = 
REMARK  2 active torsions:
REMARK  status: ('A' for Active; 'I' for Inactive)
REMARK    1  A    between atoms: C_2  and  C_11
REMARK    2  A    between atoms: N_3  and  C_4
REMARK                            x       y       z     vdW  Elec       q    Type
REMARK                         _______ _______ _______ _____ _____    ______ ____
ROOT
ATOM      1  O   UNL     1      18.746  11.435  38.189  0.00  0.00    +0.000 OA
ATOM      2  C   UNL     1      18.177  10.364  38.502  0.00  0.00    +0.000 C 
ATOM      3  N   UNL     1      17.241   9.803  37.609  0.00  0.00    +0.000 NA
ENDROOT
BRANCH   2   4
ATOM      4  C   UNL     1      18.508   9.727  39.801  0.00  0.00    +0.000 A 
ATOM      5  S   UNL     1      20.031   9.206  40.363  0.00  0.00    +0.000 S 
ATOM      6  C   UNL     1      19.563   8.609  41.890  0.00  0.00    +0.000 A 
ATOM      7  C   UNL     1      18.219   8.837  41.916  0.00  0.00    +0.000 A 
ATOM      8  C   UNL     1      17.676   9.420  40.824  0.00  0.00    +0.000 A 
ATOM      9  C   UNL     1      16.182   9.652  40.901  0.00  0.00    +0.000 C 
ATOM     10  C   UNL     1      15.551   8.310  41.214  0.00  0.00    +0.000 C 
ATOM     11  C   UNL     1      16.133   7.681  42.458  0.00  0.00    +0.000 C 
ATOM     12  C   UNL     1      17.263   8.507  43.039  0.00  0.00    +0.000 C 
ENDBRANCH   2   4
BRANCH   3  13
ATOM     13  C   UNL     1      16.898  10.385  36.355  0.00  0.00    +0.000 A 
ATOM     14  C   UNL     1      15.972  11.401  36.242  0.00  0.00    +0.000 A 
ATOM     15  C   UNL     1      15.673  11.934  35.007  0.00  0.00    +0.000 A 
ATOM     16  C   UNL     1      16.284  11.475  33.845  0.00  0.00    +0.000 A 
ATOM     17  C   UNL     1      17.210  10.459  33.951  0.00  0.00    +0.000 A 
ATOM     18  C   UNL     1      17.509   9.924  35.209  0.00  0.00    +0.000 A 
ATOM     19  O   UNL     1      18.432   8.909  35.334  0.00  0.00    +0.000 OA
ENDBRANCH   3  13
TORSDOF 2
ENDMDL
MODEL 4
REMARK VINA RESULT:      -5.9     17.247     18.654
REMARK  Name = 
REMARK  2 active torsions:
REMARK  status: ('A' for Active; 'I' for Inactive)
REMARK    1  A    between atoms: C_2  and  C_11
REMARK    2  A    between atoms: N_3  and  C_4
REMARK                            x       y       z     vdW  Elec       q    Type
REMARK                         _______ _______ _______ _____ _____    ______ ____
ROOT
ATOM      1  O   UNL     1      30.280  24.236  27.867  0.00  0.00    +0.000 OA
ATOM      2  C   UNL     1      30.016  23.063  28.218  0.00  0.00    +0.000 C 
ATOM      3  N   UNL     1      29.342  22.215  27.314  0.00  0.00    +0.000 NA
ENDROOT
BRANCH   2   4
ATOM      4  C   UNL     1      30.420  22.610  29.572  0.00  0.00    +0.000 A 
ATOM      5  S   UNL     1      29.558  22.759  31.036  0.00  0.00    +0.000 S 
ATOM      6  C   UNL     1      30.677  22.012  32.083  0.00  0.00    +0.000 A 
ATOM      7  C   UNL     1      31.700  21.665  31.250  0.00  0.00    +0.000 A 
ATOM      8  C   UNL     1      31.560  21.979  29.944  0.00  0.00    +0.000 A 
ATOM      9  C   UNL     1      32.721  21.573  29.061  0.00  0.00    +0.000 C 
ATOM     10  C   UNL     1      33.964  22.187  29.672  0.00  0.00    +0.000 C 
ATOM     11  C   UNL     1      34.139  21.799  31.122  0.00  0.00    +0.000 C 
ATOM     12  C   UNL     1      32.983  20.962  31.631  0.00  0.00    +0.000 C 
ENDBRANCH   2   4
BRANCH   3  13
ATOM     13  C   UNL     1      28.938  22.614  26.009  0.00  0.00    +0.000 A 
ATOM     14  C   UNL     1      29.805  22.616  24.936  0.00  0.00    +0.000 A 
ATOM     15  C   UNL     1      29.369  23.011  23.690  0.00  0.00    +0.000 A 
ATOM     16  C   UNL     1      28.058  23.418  23.470  0.00  0.00    +0.000 A 
ATOM     17  C   UNL     1      27.185  23.419  24.537  0.00  0.00    +0.000 A 
ATOM     18  C   UNL     1      27.636  23.016  25.799  0.00  0.00    +0.000 A 
ATOM     19  O   UNL     1      26.779  23.011  26.877  0.00  0.00    +0.000 OA
ENDBRANCH   3  13
TORSDOF 2
ENDMDL
MODEL 5
REMARK VINA RESULT:      -5.8     20.599     22.296
REMARK  Name = 
REMARK  2 active torsions:
REMARK  status: ('A' for Active; 'I' for Inactive)
REMARK    1  A    between atoms: C_2  and  C_11
REMARK    2  A    between atoms: N_3  and  C_4
REMARK                            x       y       z     vdW  Elec       q    Type
REMARK                         _______ _______ _______ _____ _____    ______ ____
ROOT
ATOM      1  O   UNL     1      26.857  25.975  23.193  0.00  0.00    +0.000 OA
ATOM      2  C   UNL     1      27.908  25.651  23.792  0.00  0.00    +0.000 C 
ATOM      3  N   UNL     1      29.152  25.977  23.213  0.00  0.00    +0.000 NA
ENDROOT
BRANCH   2   4
ATOM      4  C   UNL     1      27.805  24.934  25.088  0.00  0.00    +0.000 A 
ATOM      5  S   UNL     1      26.950  25.402  26.487  0.00  0.00    +0.000 S 
ATOM      6  C   UNL     1      27.331  24.077  27.490  0.00  0.00    +0.000 A 
ATOM      7  C   UNL     1      28.122  23.301  26.694  0.00  0.00    +0.000 A 
ATOM      8  C   UNL     1      28.364  23.754  25.444  0.00  0.00    +0.000 A 
ATOM      9  C   UNL     1      29.246  22.858  24.600  0.00  0.00    +0.000 C 
ATOM     10  C   UNL     1      30.519  22.636  25.392  0.00  0.00    +0.000 C 
ATOM     11  C   UNL     1      30.246  22.090  26.774  0.00  0.00    +0.000 C 
ATOM     12  C   UNL     1      28.762  21.981  27.059  0.00  0.00    +0.000 C 
ENDBRANCH   2   4
BRANCH   3  13
ATOM     13  C   UNL     1      29.290  26.663  21.973  0.00  0.00    +0.000 A 
ATOM     14  C   UNL     1      29.185  28.035  21.873  0.00  0.00    +0.000 A 
ATOM     15  C   UNL     1      29.326  28.655  20.650  0.00  0.00    +0.000 A 
ATOM     16  C   UNL     1      29.576  27.933  19.489  0.00  0.00    +0.000 A 
ATOM     17  C   UNL     1      29.682  26.561  19.581  0.00  0.00    +0.000 A 
ATOM     18  C   UNL     1      29.538  25.939  20.827  0.00  0.00    +0.000 A 
ATOM     19  O   UNL     1      29.641  24.571  20.939  0.00  0.00    +0.000 OA
ENDBRANCH   3  13
TORSDOF 2
ENDMDL
MODEL 6
REMARK VINA RESULT:      -5.8     18.963     21.965
REMARK  Name = 
REMARK  2 active torsions:
REMARK  status: ('A' for Active; 'I' for Inactive)
REMARK    1  A    between atoms: C_2  and  C_11
REMARK    2  A    between atoms: N_3  and  C_4
REMARK                            x       y       z     vdW  Elec       q    Type
REMARK                         _______ _______ _______ _____ _____    ______ ____
ROOT
ATOM      1  O   UNL     1      32.841  -5.895  32.836  0.00  0.00    +0.000 OA
ATOM      2  C   UNL     1      33.974  -5.378  32.966  0.00  0.00    +0.000 C 
ATOM      3  N   UNL     1      34.878  -5.436  31.885  0.00  0.00    +0.000 NA
ENDROOT
BRANCH   2   4
ATOM      4  C   UNL     1      34.324  -4.725  34.252  0.00  0.00    +0.000 A 
ATOM      5  S   UNL     1      35.039  -5.427  35.631  0.00  0.00    +0.000 S 
ATOM      6  C   UNL     1      35.100  -4.049  36.633  0.00  0.00    +0.000 A 
ATOM      7  C   UNL     1      34.555  -3.072  35.852  0.00  0.00    +0.000 A 
ATOM      8  C   UNL     1      34.152  -3.431  34.613  0.00  0.00    +0.000 A 
ATOM      9  C   UNL     1      33.555  -2.313  33.787  0.00  0.00    +0.000 C 
ATOM     10  C   UNL     1      32.430  -1.720  34.611  0.00  0.00    +0.000 C 
ATOM     11  C   UNL     1      32.893  -1.282  35.980  0.00  0.00    +0.000 C 
ATOM     12  C   UNL     1      34.350  -1.621  36.224  0.00  0.00    +0.000 C 
ENDBRANCH   2   4
BRANCH   3  13
ATOM     13  C   UNL     1      34.579  -6.053  30.637  0.00  0.00    +0.000 A 
ATOM     14  C   UNL     1      33.825  -5.427  29.666  0.00  0.00    +0.000 A 
ATOM     15  C   UNL     1      33.560  -6.065  28.474  0.00  0.00    +0.000 A 
ATOM     16  C   UNL     1      34.036  -7.344  28.208  0.00  0.00    +0.000 A 
ATOM     17  C   UNL     1      34.790  -7.976  29.173  0.00  0.00    +0.000 A 
ATOM     18  C   UNL     1      35.054  -7.322  30.382  0.00  0.00    +0.000 A 
ATOM     19  O   UNL     1      35.805  -7.937  31.358  0.00  0.00    +0.000 OA
ENDBRANCH   3  13
TORSDOF 2
ENDMDL
MODEL 7
REMARK VINA RESULT:      -5.6      2.874      6.600
REMARK  Name = 
REMARK  2 active torsions:
REMARK  status: ('A' for Active; 'I' for Inactive)
REMARK    1  A    between atoms: C_2  and  C_11
REMARK    2  A    between atoms: N_3  and  C_4
REMARK                            x       y       z     vdW  Elec       q    Type
REMARK                         _______ _______ _______ _____ _____    ______ ____
ROOT
ATOM      1  O   UNL     1      20.802   9.079  39.257  0.00  0.00    +0.000 OA
ATOM      2  C   UNL     1      20.073   9.816  38.554  0.00  0.00    +0.000 C 
ATOM      3  N   UNL     1      20.656  10.543  37.495  0.00  0.00    +0.000 NA
ENDROOT
BRANCH   2   4
ATOM      4  C   UNL     1      18.623   9.898  38.862  0.00  0.00    +0.000 A 
ATOM      5  S   UNL     1      17.379  10.569  37.909  0.00  0.00    +0.000 S 
ATOM      6  C   UNL     1      16.058  10.272  38.945  0.00  0.00    +0.000 A 
ATOM      7  C   UNL     1      16.634   9.651  40.014  0.00  0.00    +0.000 A 
ATOM      8  C   UNL     1      17.970   9.460  39.964  0.00  0.00    +0.000 A 
ATOM      9  C   UNL     1      18.562   8.768  41.174  0.00  0.00    +0.000 C 
ATOM     10  C   UNL     1      18.138   9.575  42.384  0.00  0.00    +0.000 C 
ATOM     11  C   UNL     1      16.640   9.751  42.458  0.00  0.00    +0.000 C 
ATOM     12  C   UNL     1      15.936   9.150  41.258  0.00  0.00    +0.000 C 
ENDBRANCH   2   4
BRANCH   3  13
ATOM     13  C   UNL     1      22.041  10.490  37.170  0.00  0.00    +0.000 A 
ATOM     14  C   UNL     1      22.577   9.492  36.384  0.00  0.00    +0.000 A 
ATOM     15  C   UNL     1      23.925   9.481  36.096  0.00  0.00    +0.000 A 
ATOM     16  C   UNL     1      24.783  10.462  36.580  0.00  0.00    +0.000 A 
ATOM     17  C   UNL     1      24.255  11.464  37.367  0.00  0.00    +0.000 A 
ATOM     18  C   UNL     1      22.885  11.467  37.654  0.00  0.00    +0.000 A 
ATOM     19  O   UNL     1      22.339  12.459  38.438  0.00  0.00    +0.000 OA
ENDBRANCH   3  13
TORSDOF 2
ENDMDL
MODEL 8
REMARK VINA RESULT:      -5.5     19.023     20.316
REMARK  Name = 
REMARK  2 active torsions:
REMARK  status: ('A' for Active; 'I' for Inactive)
REMARK    1  A    between atoms: C_2  and  C_11
REMARK    2  A    between atoms: N_3  and  C_4
REMARK                            x       y       z     vdW  Elec       q    Type
REMARK                         _______ _______ _______ _____ _____    ______ ____
ROOT
ATOM      1  O   UNL     1      29.951  25.312  26.229  0.00  0.00    +0.000 OA
ATOM      2  C   UNL     1      30.606  24.247  26.159  0.00  0.00    +0.000 C 
ATOM      3  N   UNL     1      30.022  23.126  25.533  0.00  0.00    +0.000 NA
ENDROOT
BRANCH   2   4
ATOM      4  C   UNL     1      31.971  24.203  26.739  0.00  0.00    +0.000 A 
ATOM      5  S   UNL     1      33.414  24.839  26.090  0.00  0.00    +0.000 S 
ATOM      6  C   UNL     1      34.491  24.381  27.331  0.00  0.00    +0.000 A 
ATOM      7  C   UNL     1      33.683  23.738  28.223  0.00  0.00    +0.000 A 
ATOM      8  C   UNL     1      32.372  23.649  27.908  0.00  0.00    +0.000 A 
ATOM      9  C   UNL     1      31.518  22.929  28.930  0.00  0.00    +0.000 C 
ATOM     10  C   UNL     1      32.155  21.570  29.143  0.00  0.00    +0.000 C 
ATOM     11  C   UNL     1      33.610  21.676  29.535  0.00  0.00    +0.000 C 
ATOM     12  C   UNL     1      34.097  23.111  29.534  0.00  0.00    +0.000 C 
ENDBRANCH   2   4
BRANCH   3  13
ATOM     13  C   UNL     1      28.716  23.131  24.965  0.00  0.00    +0.000 A 
ATOM     14  C   UNL     1      27.587  22.856  25.709  0.00  0.00    +0.000 A 
ATOM     15  C   UNL     1      26.343  22.872  25.116  0.00  0.00    +0.000 A 
ATOM     16  C   UNL     1      26.181  23.162  23.766  0.00  0.00    +0.000 A 
ATOM     17  C   UNL     1      27.304  23.437  23.016  0.00  0.00    +0.000 A 
ATOM     18  C   UNL     1      28.564  23.419  23.626  0.00  0.00    +0.000 A 
ATOM     19  O   UNL     1      29.697  23.691  22.893  0.00  0.00    +0.000 OA
ENDBRANCH   3  13
TORSDOF 2
ENDMDL
MODEL 9
REMARK VINA RESULT:      -5.5     17.579     18.834
REMARK  Name = 
REMARK  2 active torsions:
REMARK  status: ('A' for Active; 'I' for Inactive)
REMARK    1  A    between atoms: C_2  and  C_11
REMARK    2  A    between atoms: N_3  and  C_4
REMARK                            x       y       z     vdW  Elec       q    Type
REMARK                         _______ _______ _______ _____ _____    ______ ____
ROOT
ATOM      1  O   UNL     1      28.726  24.645  27.396  0.00  0.00    +0.000 OA
ATOM      2  C   UNL     1      28.841  23.424  27.648  0.00  0.00    +0.000 C 
ATOM      3  N   UNL     1      28.352  22.485  26.716  0.00  0.00    +0.000 NA
ENDROOT
BRANCH   2   4
ATOM      4  C   UNL     1      29.486  23.009  28.919  0.00  0.00    +0.000 A 
ATOM      5  S   UNL     1      28.798  22.943  30.478  0.00  0.00    +0.000 S 
ATOM      6  C   UNL     1      30.155  22.386  31.347  0.00  0.00    +0.000 A 
ATOM      7  C   UNL     1      31.114  22.267  30.384  0.00  0.00    +0.000 A 
ATOM      8  C   UNL     1      30.758  22.594  29.122  0.00  0.00    +0.000 A 
ATOM      9  C   UNL     1      31.856  22.445  28.090  0.00  0.00    +0.000 C 
ATOM     10  C   UNL     1      33.031  23.261  28.589  0.00  0.00    +0.000 C 
ATOM     11  C   UNL     1      33.452  22.864  29.984  0.00  0.00    +0.000 C 
ATOM     12  C   UNL     1      32.541  21.807  30.575  0.00  0.00    +0.000 C 
ENDBRANCH   2   4
BRANCH   3  13
ATOM     13  C   UNL     1      27.728  22.845  25.487  0.00  0.00    +0.000 A 
ATOM     14  C   UNL     1      26.360  22.967  25.362  0.00  0.00    +0.000 A 
ATOM     15  C   UNL     1      25.801  23.318  24.152  0.00  0.00    +0.000 A 
ATOM     16  C   UNL     1      26.583  23.558  23.028  0.00  0.00    +0.000 A 
ATOM     17  C   UNL     1      27.952  23.438  23.145  0.00  0.00    +0.000 A 
ATOM     18  C   UNL     1      28.511  23.082  24.378  0.00  0.00    +0.000 A 
ATOM     19  O   UNL     1      29.876  22.957  24.514  0.00  0.00    +0.000 OA
ENDBRANCH   3  13
TORSDOF 2
ENDMDL
MODEL 10
REMARK VINA RESULT:      -5.5     30.278     31.760
REMARK  Name = 
REMARK  2 active torsions:
REMARK  status: ('A' for Active; 'I' for Inactive)
REMARK    1  A    between atoms: C_2  and  C_11
REMARK    2  A    between atoms: N_3  and  C_4
REMARK                            x       y       z     vdW  Elec       q    Type
REMARK                         _______ _______ _______ _____ _____    ______ ____
ROOT
ATOM      1  O   UNL     1      35.015  21.779  10.996  0.00  0.00    +0.000 OA
ATOM      2  C   UNL     1      34.250  20.787  11.004  0.00  0.00    +0.000 C 
ATOM      3  N   UNL     1      34.673  19.603  11.643  0.00  0.00    +0.000 NA
ENDROOT
BRANCH   2   4
ATOM      4  C   UNL     1      32.927  20.895  10.339  0.00  0.00    +0.000 A 
ATOM      5  S   UNL     1      32.574  20.806   8.673  0.00  0.00    +0.000 S 
ATOM      6  C   UNL     1      30.883  21.016   8.746  0.00  0.00    +0.000 A 
ATOM      7  C   UNL     1      30.644  21.150  10.083  0.00  0.00    +0.000 A 
ATOM      8  C   UNL     1      31.713  21.086  10.906  0.00  0.00    +0.000 A 
ATOM      9  C   UNL     1      31.395  21.240  12.378  0.00  0.00    +0.000 C 
ATOM     10  C   UNL     1      30.632  22.541  12.522  0.00  0.00    +0.000 C 
ATOM     11  C   UNL     1      29.414  22.591  11.629  0.00  0.00    +0.000 C 
ATOM     12  C   UNL     1      29.303  21.364  10.748  0.00  0.00    +0.000 C 
ENDBRANCH   2   4
BRANCH   3  13
ATOM     13  C   UNL     1      35.934  19.463  12.291  0.00  0.00    +0.000 A 
ATOM     14  C   UNL     1      36.144  19.868  13.592  0.00  0.00    +0.000 A 
ATOM     15  C   UNL     1      37.382  19.713  14.177  0.00  0.00    +0.000 A 
ATOM     16  C   UNL     1      38.450  19.150  13.488  0.00  0.00    +0.000 A 
ATOM     17  C   UNL     1      38.248  18.742  12.186  0.00  0.00    +0.000 A 
ATOM     18  C   UNL     1      36.987  18.903  11.600  0.00  0.00    +0.000 A 
ATOM     19  O   UNL     1      36.766  18.503  10.301  0.00  0.00    +0.000 OA
ENDBRANCH   3  13
TORSDOF 2
ENDMDL
