MODEL 1
REMARK VINA RESULT:      -6.2      0.000      0.000
REMARK  Name = 
REMARK  4 active torsions:
REMARK  status: ('A' for Active; 'I' for Inactive)
REMARK    1  A    between atoms: C_2  and  C_3
REMARK    2  A    between atoms: C_3  and  N_4
REMARK    3  A    between atoms: N_4  and  C_5
REMARK    4  A    between atoms: N_12  and  N_13
REMARK                            x       y       z     vdW  Elec       q    Type
REMARK                         _______ _______ _______ _____ _____    ______ ____
ROOT
ATOM      1  O   UNL     1      30.760  20.431  10.992  0.00  0.00    +0.000 OA
ATOM      2  C   UNL     1      31.252  21.594  10.919  0.00  0.00    +0.000 C 
ATOM      3  N   UNL     1      32.140  21.830   9.833  0.00  0.00    +0.000 NA
ENDROOT
BRANCH   3   4
ATOM      4  N   UNL     1      32.435  20.831   8.922  0.00  0.00    +0.000 NA
ATOM      5  C   UNL     1      32.168  20.860   7.680  0.00  0.00    +0.000 C 
ATOM      6  C   UNL     1      31.485  21.987   6.985  0.00  0.00    +0.000 C 
ATOM      7  C   UNL     1      30.661  21.358   5.865  0.00  0.00    +0.000 C 
ATOM      8  C   UNL     1      30.146  20.013   6.284  0.00  0.00    +0.000 C 
ATOM      9  C   UNL     1      31.239  19.001   6.462  0.00  0.00    +0.000 C 
ATOM     10  C   UNL     1      32.554  19.696   6.836  0.00  0.00    +0.000 C 
ENDBRANCH   3   4
BRANCH   2  11
ATOM     11  C   UNL     1      30.920  22.662  11.915  0.00  0.00    +0.000 C 
BRANCH  11  12
ATOM     12  N   UNL     1      29.773  22.239  12.690  0.00  0.00    +0.000 NA
BRANCH  12  13
ATOM     13  C   UNL     1      28.463  22.688  12.411  0.00  0.00    +0.000 A 
ATOM     14  C   UNL     1      27.695  22.138  11.417  0.00  0.00    +0.000 A 
ATOM     15  C   UNL     1      26.430  22.559  11.134  0.00  0.00    +0.000 A 
ATOM     16  C   UNL     1      25.885  23.590  11.876  0.00  0.00    +0.000 A 
ATOM     17  C   UNL     1      26.640  24.164  12.887  0.00  0.00    +0.000 A 
ATOM     18  C   UNL     1      27.917  23.714  13.147  0.00  0.00    +0.000 A 
ATOM     19 CL   UNL     1      28.816  24.479  14.435  0.00  0.00    +0.000 Cl
ENDBRANCH  12  13
ENDBRANCH  11  12
ENDBRANCH   2  11
TORSDOF 4
ENDMDL
MODEL 2
REMARK VINA RESULT:      -5.8      9.976     12.378
REMARK  Name = 
REMARK  4 active torsions:
REMARK  status: ('A' for Active; 'I' for Inactive)
REMARK    1  A    between atoms: C_2  and  C_3
REMARK    2  A    between atoms: C_3  and  N_4
REMARK    3  A    between atoms: N_4  and  C_5
REMARK    4  A    between atoms: N_12  and  N_13
REMARK                            x       y       z     vdW  Elec       q    Type
REMARK                         _______ _______ _______ _____ _____    ______ ____
ROOT
ATOM      1  O   UNL     1      29.686  26.713  21.697  0.00  0.00    +0.000 OA
ATOM      2  C   UNL     1      29.359  25.753  20.942  0.00  0.00    +0.000 C 
ATOM      3  N   UNL     1      29.813  25.832  19.596  0.00  0.00    +0.000 NA
ENDROOT
BRANCH   3   4
ATOM      4  N   UNL     1      30.568  26.907  19.161  0.00  0.00    +0.000 NA
ATOM      5  C   UNL     1      30.151  27.856  18.428  0.00  0.00    +0.000 C 
ATOM      6  C   UNL     1      28.760  27.977  17.907  0.00  0.00    +0.000 C 
ATOM      7  C   UNL     1      28.874  28.652  16.544  0.00  0.00    +0.000 C 
ATOM      8  C   UNL     1      30.140  28.236  15.857  0.00  0.00    +0.000 C 
ATOM      9  C   UNL     1      31.371  28.743  16.550  0.00  0.00    +0.000 C 
ATOM     10  C   UNL     1      31.098  28.940  18.047  0.00  0.00    +0.000 C 
ENDBRANCH   3   4
BRANCH   2  11
ATOM     11  C   UNL     1      28.540  24.598  21.433  0.00  0.00    +0.000 C 
BRANCH  11  12
ATOM     12  N   UNL     1      29.308  23.866  22.418  0.00  0.00    +0.000 NA
BRANCH  12  13
ATOM     13  C   UNL     1      28.751  23.433  23.642  0.00  0.00    +0.000 A 
ATOM     14  C   UNL     1      27.402  23.455  23.883  0.00  0.00    +0.000 A 
ATOM     15  C   UNL     1      26.849  23.041  25.058  0.00  0.00    +0.000 A 
ATOM     16  C   UNL     1      27.676  22.576  26.062  0.00  0.00    +0.000 A 
ATOM     17  C   UNL     1      29.045  22.543  25.845  0.00  0.00    +0.000 A 
ATOM     18  C   UNL     1      29.572  22.970  24.644  0.00  0.00    +0.000 A 
ATOM     19 CL   UNL     1      31.305  22.903  24.433  0.00  0.00    +0.000 Cl
ENDBRANCH  12  13
ENDBRANCH  11  12
ENDBRANCH   2  11
TORSDOF 4
ENDMDL
MODEL 3
REMARK VINA RESULT:      -5.7     13.066     16.847
REMARK  Name = 
REMARK  4 active torsions:
REMARK  status: ('A' for Active; 'I' for Inactive)
REMARK    1  A    between atoms: C_2  and  C_3
REMARK    2  A    between atoms: C_3  and  N_4
REMARK    3  A    between atoms: N_4  and  C_5
REMARK    4  A    between atoms: N_12  and  N_13
REMARK                            x       y       z     vdW  Elec       q    Type
REMARK                         _______ _______ _______ _____ _____    ______ ____
ROOT
ATOM      1  O   UNL     1      25.360  25.193  24.607  0.00  0.00    +0.000 OA
ATOM      2  C   UNL     1      25.584  23.950  24.538  0.00  0.00    +0.000 C 
ATOM      3  N   UNL     1      25.877  23.298  25.768  0.00  0.00    +0.000 NA
ENDROOT
BRANCH   3   4
ATOM      4  N   UNL     1      25.912  24.003  26.958  0.00  0.00    +0.000 NA
ATOM      5  C   UNL     1      26.710  23.787  27.923  0.00  0.00    +0.000 C 
ATOM      6  C   UNL     1      27.758  22.728  27.936  0.00  0.00    +0.000 C 
ATOM      7  C   UNL     1      27.877  22.267  29.386  0.00  0.00    +0.000 C 
ATOM      8  C   UNL     1      26.543  22.330  30.068  0.00  0.00    +0.000 C 
ATOM      9  C   UNL     1      26.040  23.734  30.236  0.00  0.00    +0.000 C 
ATOM     10  C   UNL     1      26.613  24.641  29.139  0.00  0.00    +0.000 C 
ENDBRANCH   3   4
BRANCH   2  11
ATOM     11  C   UNL     1      25.542  23.205  23.239  0.00  0.00    +0.000 C 
BRANCH  11  12
ATOM     12  N   UNL     1      26.895  23.038  22.752  0.00  0.00    +0.000 NA
BRANCH  12  13
ATOM     13  C   UNL     1      27.747  24.134  22.491  0.00  0.00    +0.000 A 
ATOM     14  C   UNL     1      27.415  25.126  21.605  0.00  0.00    +0.000 A 
ATOM     15  C   UNL     1      28.225  26.190  21.342  0.00  0.00    +0.000 A 
ATOM     16  C   UNL     1      29.442  26.284  21.991  0.00  0.00    +0.000 A 
ATOM     17  C   UNL     1      29.801  25.295  22.893  0.00  0.00    +0.000 A 
ATOM     18  C   UNL     1      28.958  24.231  23.136  0.00  0.00    +0.000 A 
ATOM     19 CL   UNL     1      29.470  23.016  24.283  0.00  0.00    +0.000 Cl
ENDBRANCH  12  13
ENDBRANCH  11  12
ENDBRANCH   2  11
TORSDOF 4
ENDMDL
MODEL 4
REMARK VINA RESULT:      -5.6     14.924     16.763
REMARK  Name = 
REMARK  4 active torsions:
REMARK  status: ('A' for Active; 'I' for Inactive)
REMARK    1  A    between atoms: C_2  and  C_3
REMARK    2  A    between atoms: C_3  and  N_4
REMARK    3  A    between atoms: N_4  and  C_5
REMARK    4  A    between atoms: N_12  and  N_13
REMARK                            x       y       z     vdW  Elec       q    Type
REMARK                         _______ _______ _______ _____ _____    ______ ____
ROOT
ATOM      1  O   UNL     1      27.995  25.436  24.805  0.00  0.00    +0.000 OA
ATOM      2  C   UNL     1      27.376  24.387  24.461  0.00  0.00    +0.000 C 
ATOM      3  N   UNL     1      28.179  23.316  23.981  0.00  0.00    +0.000 NA
ENDROOT
BRANCH   3   4
ATOM      4  N   UNL     1      29.555  23.436  23.901  0.00  0.00    +0.000 NA
ATOM      5  C   UNL     1      30.389  22.973  24.740  0.00  0.00    +0.000 C 
ATOM      6  C   UNL     1      30.022  22.212  25.967  0.00  0.00    +0.000 C 
ATOM      7  C   UNL     1      31.074  22.565  27.015  0.00  0.00    +0.000 C 
ATOM      8  C   UNL     1      31.528  23.983  26.846  0.00  0.00    +0.000 C 
ATOM      9  C   UNL     1      32.287  24.203  25.570  0.00  0.00    +0.000 C 
ATOM     10  C   UNL     1      31.842  23.192  24.505  0.00  0.00    +0.000 C 
ENDBRANCH   3   4
BRANCH   2  11
ATOM     11  C   UNL     1      25.885  24.277  24.555  0.00  0.00    +0.000 C 
BRANCH  11  12
ATOM     12  N   UNL     1      25.541  23.644  25.811  0.00  0.00    +0.000 NA
BRANCH  12  13
ATOM     13  C   UNL     1      25.301  24.383  26.991  0.00  0.00    +0.000 A 
ATOM     14  C   UNL     1      24.375  25.393  27.049  0.00  0.00    +0.000 A 
ATOM     15  C   UNL     1      24.132  26.115  28.178  0.00  0.00    +0.000 A 
ATOM     16  C   UNL     1      24.847  25.829  29.326  0.00  0.00    +0.000 A 
ATOM     17  C   UNL     1      25.789  24.813  29.295  0.00  0.00    +0.000 A 
ATOM     18  C   UNL     1      26.011  24.100  28.135  0.00  0.00    +0.000 A 
ATOM     19 CL   UNL     1      27.213  22.832  28.161  0.00  0.00    +0.000 Cl
ENDBRANCH  12  13
ENDBRANCH  11  12
ENDBRANCH   2  11
TORSDOF 4
ENDMDL
MODEL 5
REMARK VINA RESULT:      -5.6     15.345     18.167
REMARK  Name = 
REMARK  4 active torsions:
REMARK  status: ('A' for Active; 'I' for Inactive)
REMARK    1  A    between atoms: C_2  and  C_3
REMARK    2  A    between atoms: C_3  and  N_4
REMARK    3  A    between atoms: N_4  and  C_5
REMARK    4  A    between atoms: N_12  and  N_13
REMARK                            x       y       z     vdW  Elec       q    Type
REMARK                         _______ _______ _______ _____ _____    ______ ____
ROOT
ATOM      1  O   UNL     1      28.275  24.407  27.797  0.00  0.00    +0.000 OA
ATOM      2  C   UNL     1      28.299  23.182  28.109  0.00  0.00    +0.000 C 
ATOM      3  N   UNL     1      28.308  22.261  27.025  0.00  0.00    +0.000 NA
ENDROOT
BRANCH   3   4
ATOM      4  N   UNL     1      28.291  22.701  25.714  0.00  0.00    +0.000 NA
ATOM      5  C   UNL     1      29.294  22.750  24.936  0.00  0.00    +0.000 C 
ATOM      6  C   UNL     1      30.676  22.334  25.307  0.00  0.00    +0.000 C 
ATOM      7  C   UNL     1      31.618  23.249  24.531  0.00  0.00    +0.000 C 
ATOM      8  C   UNL     1      31.017  24.615  24.381  0.00  0.00    +0.000 C 
ATOM      9  C   UNL     1      29.798  24.621  23.505  0.00  0.00    +0.000 C 
ATOM     10  C   UNL     1      29.103  23.254  23.548  0.00  0.00    +0.000 C 
ENDBRANCH   3   4
BRANCH   2  11
ATOM     11  C   UNL     1      28.317  22.724  29.535  0.00  0.00    +0.000 C 
BRANCH  11  12
ATOM     12  N   UNL     1      29.488  23.271  30.187  0.00  0.00    +0.000 NA
BRANCH  12  13
ATOM     13  C   UNL     1      30.751  22.641  30.126  0.00  0.00    +0.000 A 
ATOM     14  C   UNL     1      31.594  22.790  29.054  0.00  0.00    +0.000 A 
ATOM     15  C   UNL     1      32.815  22.190  28.979  0.00  0.00    +0.000 A 
ATOM     16  C   UNL     1      33.236  21.391  30.025  0.00  0.00    +0.000 A 
ATOM     17  C   UNL     1      32.404  21.224  31.121  0.00  0.00    +0.000 A 
ATOM     18  C   UNL     1      31.174  21.845  31.165  0.00  0.00    +0.000 A 
ATOM     19 CL   UNL     1      30.172  21.594  32.574  0.00  0.00    +0.000 Cl
ENDBRANCH  12  13
ENDBRANCH  11  12
ENDBRANCH   2  11
TORSDOF 4
ENDMDL
MODEL 6
REMARK VINA RESULT:      -5.6     10.075     12.976
REMARK  Name = 
REMARK  4 active torsions:
REMARK  status: ('A' for Active; 'I' for Inactive)
REMARK    1  A    between atoms: C_2  and  C_3
REMARK    2  A    between atoms: C_3  and  N_4
REMARK    3  A    between atoms: N_4  and  C_5
REMARK    4  A    between atoms: N_12  and  N_13
REMARK                            x       y       z     vdW  Elec       q    Type
REMARK                         _______ _______ _______ _____ _____    ______ ____
ROOT
ATOM      1  O   UNL     1      29.509  26.751  22.155  0.00  0.00    +0.000 OA
ATOM      2  C   UNL     1      29.443  26.225  21.007  0.00  0.00    +0.000 C 
ATOM      3  N   UNL     1      29.558  24.808  20.960  0.00  0.00    +0.000 NA
ENDROOT
BRANCH   3   4
ATOM      4  N   UNL     1      29.735  24.068  22.116  0.00  0.00    +0.000 NA
ATOM      5  C   UNL     1      28.807  23.545  22.809  0.00  0.00    +0.000 C 
ATOM      6  C   UNL     1      27.355  23.640  22.491  0.00  0.00    +0.000 C 
ATOM      7  C   UNL     1      26.627  23.662  23.832  0.00  0.00    +0.000 C 
ATOM      8  C   UNL     1      27.449  24.375  24.863  0.00  0.00    +0.000 C 
ATOM      9  C   UNL     1      28.709  23.639  25.214  0.00  0.00    +0.000 C 
ATOM     10  C   UNL     1      29.170  22.777  24.032  0.00  0.00    +0.000 C 
ENDBRANCH   3   4
BRANCH   2  11
ATOM     11  C   UNL     1      29.252  27.043  19.767  0.00  0.00    +0.000 C 
BRANCH  11  12
ATOM     12  N   UNL     1      30.431  26.917  18.936  0.00  0.00    +0.000 NA
BRANCH  12  13
ATOM     13  C   UNL     1      30.897  27.969  18.117  0.00  0.00    +0.000 A 
ATOM     14  C   UNL     1      31.673  28.989  18.604  0.00  0.00    +0.000 A 
ATOM     15  C   UNL     1      32.131  30.012  17.828  0.00  0.00    +0.000 A 
ATOM     16  C   UNL     1      31.803  30.034  16.485  0.00  0.00    +0.000 A 
ATOM     17  C   UNL     1      31.019  29.015  15.968  0.00  0.00    +0.000 A 
ATOM     18  C   UNL     1      30.572  27.994  16.781  0.00  0.00    +0.000 A 
ATOM     19 CL   UNL     1      29.589  26.739  16.067  0.00  0.00    +0.000 Cl
ENDBRANCH  12  13
ENDBRANCH  11  12
ENDBRANCH   2  11
TORSDOF 4
ENDMDL
MODEL 7
REMARK VINA RESULT:      -5.5     15.319     18.156
REMARK  Name = 
REMARK  4 active torsions:
REMARK  status: ('A' for Active; 'I' for Inactive)
REMARK    1  A    between atoms: C_2  and  C_3
REMARK    2  A    between atoms: C_3  and  N_4
REMARK    3  A    between atoms: N_4  and  C_5
REMARK    4  A    between atoms: N_12  and  N_13
REMARK                            x       y       z     vdW  Elec       q    Type
REMARK                         _______ _______ _______ _____ _____    ______ ____
ROOT
ATOM      1  O   UNL     1      28.322  24.474  27.490  0.00  0.00    +0.000 OA
ATOM      2  C   UNL     1      28.143  23.258  27.791  0.00  0.00    +0.000 C 
ATOM      3  N   UNL     1      27.993  22.359  26.700  0.00  0.00    +0.000 NA
ENDROOT
BRANCH   3   4
ATOM      4  N   UNL     1      28.042  22.809  25.392  0.00  0.00    +0.000 NA
ATOM      5  C   UNL     1      29.079  22.842  24.659  0.00  0.00    +0.000 C 
ATOM      6  C   UNL     1      30.435  22.395  25.087  0.00  0.00    +0.000 C 
ATOM      7  C   UNL     1      31.428  23.297  24.360  0.00  0.00    +0.000 C 
ATOM      8  C   UNL     1      30.861  24.675  24.194  0.00  0.00    +0.000 C 
ATOM      9  C   UNL     1      29.682  24.712  23.266  0.00  0.00    +0.000 C 
ATOM     10  C   UNL     1      28.959  23.359  23.268  0.00  0.00    +0.000 C 
ENDBRANCH   3   4
BRANCH   2  11
ATOM     11  C   UNL     1      28.092  22.790  29.213  0.00  0.00    +0.000 C 
BRANCH  11  12
ATOM     12  N   UNL     1      29.189  23.391  29.943  0.00  0.00    +0.000 NA
BRANCH  12  13
ATOM     13  C   UNL     1      30.174  22.621  30.599  0.00  0.00    +0.000 A 
ATOM     14  C   UNL     1      29.998  22.130  31.867  0.00  0.00    +0.000 A 
ATOM     15  C   UNL     1      30.938  21.384  32.514  0.00  0.00    +0.000 A 
ATOM     16  C   UNL     1      32.130  21.105  31.873  0.00  0.00    +0.000 A 
ATOM     17  C   UNL     1      32.334  21.589  30.591  0.00  0.00    +0.000 A 
ATOM     18  C   UNL     1      31.362  22.340  29.964  0.00  0.00    +0.000 A 
ATOM     19 CL   UNL     1      31.681  22.921  28.347  0.00  0.00    +0.000 Cl
ENDBRANCH  12  13
ENDBRANCH  11  12
ENDBRANCH   2  11
TORSDOF 4
ENDMDL
MODEL 8
REMARK VINA RESULT:      -5.4     14.095     17.404
REMARK  Name = 
REMARK  4 active torsions:
REMARK  status: ('A' for Active; 'I' for Inactive)
REMARK    1  A    between atoms: C_2  and  C_3
REMARK    2  A    between atoms: C_3  and  N_4
REMARK    3  A    between atoms: N_4  and  C_5
REMARK    4  A    between atoms: N_12  and  N_13
REMARK                            x       y       z     vdW  Elec       q    Type
REMARK                         _______ _______ _______ _____ _____    ______ ____
ROOT
ATOM      1  O   UNL     1      26.248  25.676  25.426  0.00  0.00    +0.000 OA
ATOM      2  C   UNL     1      26.360  24.501  24.969  0.00  0.00    +0.000 C 
ATOM      3  N   UNL     1      26.104  23.445  25.886  0.00  0.00    +0.000 NA
ENDROOT
BRANCH   3   4
ATOM      4  N   UNL     1      25.756  23.710  27.199  0.00  0.00    +0.000 NA
ATOM      5  C   UNL     1      26.563  23.798  28.176  0.00  0.00    +0.000 C 
ATOM      6  C   UNL     1      28.040  23.630  28.073  0.00  0.00    +0.000 C 
ATOM      7  C   UNL     1      28.489  23.002  29.389  0.00  0.00    +0.000 C 
ATOM      8  C   UNL     1      27.435  22.073  29.913  0.00  0.00    +0.000 C 
ATOM      9  C   UNL     1      26.183  22.788  30.330  0.00  0.00    +0.000 C 
ATOM     10  C   UNL     1      26.021  24.088  29.532  0.00  0.00    +0.000 C 
ENDBRANCH   3   4
BRANCH   2  11
ATOM     11  C   UNL     1      26.738  24.236  23.544  0.00  0.00    +0.000 C 
BRANCH  11  12
ATOM     12  N   UNL     1      27.675  23.132  23.506  0.00  0.00    +0.000 NA
BRANCH  12  13
ATOM     13  C   UNL     1      28.984  23.233  24.027  0.00  0.00    +0.000 A 
ATOM     14  C   UNL     1      29.405  22.494  25.102  0.00  0.00    +0.000 A 
ATOM     15  C   UNL     1      30.664  22.579  25.616  0.00  0.00    +0.000 A 
ATOM     16  C   UNL     1      31.569  23.449  25.037  0.00  0.00    +0.000 A 
ATOM     17  C   UNL     1      31.169  24.208  23.948  0.00  0.00    +0.000 A 
ATOM     18  C   UNL     1      29.887  24.098  23.452  0.00  0.00    +0.000 A 
ATOM     19 CL   UNL     1      29.446  25.082  22.078  0.00  0.00    +0.000 Cl
ENDBRANCH  12  13
ENDBRANCH  11  12
ENDBRANCH   2  11
TORSDOF 4
ENDMDL
MODEL 9
REMARK VINA RESULT:      -5.4     31.498     34.092
REMARK  Name = 
REMARK  4 active torsions:
REMARK  status: ('A' for Active; 'I' for Inactive)
REMARK    1  A    between atoms: C_2  and  C_3
REMARK    2  A    between atoms: C_3  and  N_4
REMARK    3  A    between atoms: N_4  and  C_5
REMARK    4  A    between atoms: N_12  and  N_13
REMARK                            x       y       z     vdW  Elec       q    Type
REMARK                         _______ _______ _______ _____ _____    ______ ____
ROOT
ATOM      1  O   UNL     1      20.222   9.143  40.304  0.00  0.00    +0.000 OA
ATOM      2  C   UNL     1      19.453   9.186  39.301  0.00  0.00    +0.000 C 
ATOM      3  N   UNL     1      18.526   8.114  39.178  0.00  0.00    +0.000 NA
ENDROOT
BRANCH   3   4
ATOM      4  N   UNL     1      18.486   7.094  40.112  0.00  0.00    +0.000 NA
ATOM      5  C   UNL     1      17.565   6.908  40.966  0.00  0.00    +0.000 C 
ATOM      6  C   UNL     1      16.356   7.767  41.110  0.00  0.00    +0.000 C 
ATOM      7  C   UNL     1      16.007   7.762  42.596  0.00  0.00    +0.000 C 
ATOM      8  C   UNL     1      17.252   7.682  43.428  0.00  0.00    +0.000 C 
ATOM      9  C   UNL     1      17.967   6.370  43.280  0.00  0.00    +0.000 C 
ATOM     10  C   UNL     1      17.677   5.757  41.904  0.00  0.00    +0.000 C 
ENDBRANCH   3   4
BRANCH   2  11
ATOM     11  C   UNL     1      19.511  10.299  38.301  0.00  0.00    +0.000 C 
BRANCH  11  12
ATOM     12  N   UNL     1      18.163  10.626  37.884  0.00  0.00    +0.000 NA
BRANCH  12  13
ATOM     13  C   UNL     1      17.762  10.599  36.530  0.00  0.00    +0.000 A 
ATOM     14  C   UNL     1      18.123   9.588  35.677  0.00  0.00    +0.000 A 
ATOM     15  C   UNL     1      17.745   9.547  34.369  0.00  0.00    +0.000 A 
ATOM     16  C   UNL     1      16.961  10.568  33.865  0.00  0.00    +0.000 A 
ATOM     17  C   UNL     1      16.581  11.602  34.706  0.00  0.00    +0.000 A 
ATOM     18  C   UNL     1      16.982  11.613  36.025  0.00  0.00    +0.000 A 
ATOM     19 CL   UNL     1      16.469  12.946  37.033  0.00  0.00    +0.000 Cl
ENDBRANCH  12  13
ENDBRANCH  11  12
ENDBRANCH   2  11
TORSDOF 4
ENDMDL
MODEL 10
REMARK VINA RESULT:      -5.4     30.829     33.562
REMARK  Name = 
REMARK  4 active torsions:
REMARK  status: ('A' for Active; 'I' for Inactive)
REMARK    1  A    between atoms: C_2  and  C_3
REMARK    2  A    between atoms: C_3  and  N_4
REMARK    3  A    between atoms: N_4  and  C_5
REMARK    4  A    between atoms: N_12  and  N_13
REMARK                            x       y       z     vdW  Elec       q    Type
REMARK                         _______ _______ _______ _____ _____    ______ ____
ROOT
ATOM      1  O   UNL     1      20.450   9.250  39.727  0.00  0.00    +0.000 OA
ATOM      2  C   UNL     1      19.684   9.339  38.725  0.00  0.00    +0.000 C 
ATOM      3  N   UNL     1      18.483   8.580  38.786  0.00  0.00    +0.000 NA
ENDROOT
BRANCH   3   4
ATOM      4  N   UNL     1      18.190   7.795  39.887  0.00  0.00    +0.000 NA
ATOM      5  C   UNL     1      17.313   8.055  40.769  0.00  0.00    +0.000 C 
ATOM      6  C   UNL     1      16.440   9.262  40.767  0.00  0.00    +0.000 C 
ATOM      7  C   UNL     1      16.202   9.616  42.232  0.00  0.00    +0.000 C 
ATOM      8  C   UNL     1      17.412   9.287  43.055  0.00  0.00    +0.000 C 
ATOM      9  C   UNL     1      17.675   7.812  43.138  0.00  0.00    +0.000 C 
ATOM     10  C   UNL     1      17.123   7.101  41.896  0.00  0.00    +0.000 C 
ENDBRANCH   3   4
BRANCH   2  11
ATOM     11  C   UNL     1      20.019  10.194  37.541  0.00  0.00    +0.000 C 
BRANCH  11  12
ATOM     12  N   UNL     1      21.177  11.002  37.861  0.00  0.00    +0.000 NA
BRANCH  12  13
ATOM     13  C   UNL     1      22.441  10.780  37.272  0.00  0.00    +0.000 A 
ATOM     14  C   UNL     1      22.691   9.710  36.451  0.00  0.00    +0.000 A 
ATOM     15  C   UNL     1      23.904   9.481  35.875  0.00  0.00    +0.000 A 
ATOM     16  C   UNL     1      24.942  10.360  36.124  0.00  0.00    +0.000 A 
ATOM     17  C   UNL     1      24.717  11.450  36.950  0.00  0.00    +0.000 A 
ATOM     18  C   UNL     1      23.476  11.652  37.518  0.00  0.00    +0.000 A 
ATOM     19 CL   UNL     1      23.258  13.045  38.550  0.00  0.00    +0.000 Cl
ENDBRANCH  12  13
ENDBRANCH  11  12
ENDBRANCH   2  11
TORSDOF 4
ENDMDL
