MODEL 1
REMARK VINA RESULT:      -5.6      0.000      0.000
REMARK  Name = 
REMARK  5 active torsions:
REMARK  status: ('A' for Active; 'I' for Inactive)
REMARK    1  A    between atoms: C_2  and  N_5
REMARK    2  A    between atoms: N_5  and  C_6
REMARK    3  A    between atoms: C_6  and  N_8
REMARK    4  A    between atoms: C_9  and  C_11
REMARK    5  A    between atoms: C_16  and  N_17
REMARK                            x       y       z     vdW  Elec       q    Type
REMARK                         _______ _______ _______ _____ _____    ______ ____
ROOT
ATOM      1  N   UNL     1      22.223  -8.575  25.773  0.00  0.00    +0.000 NA
ATOM      2  C   UNL     1      20.987  -8.139  25.236  0.00  0.00    +0.000 C 
ATOM      3  O   UNL     1      20.840  -8.475  23.994  0.00  0.00    +0.000 OA
ENDROOT
BRANCH   2   4
ATOM      4  C   UNL     1      19.947  -7.398  25.900  0.00  0.00    +0.000 A 
ATOM      5  C   UNL     1      20.003  -6.005  25.746  0.00  0.00    +0.000 A 
ATOM      6  C   UNL     1      19.144  -5.138  26.359  0.00  0.00    +0.000 A 
ATOM      7  C   UNL     1      18.175  -5.707  27.169  0.00  0.00    +0.000 A 
ATOM      8  C   UNL     1      18.087  -7.068  27.345  0.00  0.00    +0.000 A 
ATOM      9  C   UNL     1      19.000  -7.917  26.687  0.00  0.00    +0.000 A 
BRANCH   9  10
ATOM     10  N   UNL     1      18.815  -9.277  26.910  0.00  0.00    +0.000 N 
ATOM     11  O   UNL     1      19.342  -9.820  27.900  0.00  0.00    +0.000 OA
ATOM     12  O   UNL     1      18.081 -10.059  26.088  0.00  0.00    +0.000 OA
ENDBRANCH   9  10
ENDBRANCH   2   4
BRANCH   1  13
ATOM     13  C   UNL     1      23.184  -9.295  25.022  0.00  0.00    +0.000 C 
ATOM     14  S   UNL     1      22.921 -10.906  24.753  0.00  0.00    +0.000 S 
BRANCH  13  15
ATOM     15  N   UNL     1      24.351  -8.771  24.463  0.00  0.00    +0.000 NA
BRANCH  15  17
ATOM     16  C   UNL     1      25.929  -7.661  23.060  0.00  0.00    +0.000 C 
ATOM     17  C   UNL     1      24.485  -7.726  23.494  0.00  0.00    +0.000 C 
ATOM     18  C   UNL     1      23.666  -8.010  22.242  0.00  0.00    +0.000 C 
ATOM     19  C   UNL     1      24.050  -6.395  24.122  0.00  0.00    +0.000 C 
ENDBRANCH  15  17
ENDBRANCH  13  15
ENDBRANCH   1  13
TORSDOF 5
ENDMDL
MODEL 2
REMARK VINA RESULT:      -5.4     33.926     34.488
REMARK  Name = 
REMARK  5 active torsions:
REMARK  status: ('A' for Active; 'I' for Inactive)
REMARK    1  A    between atoms: C_2  and  N_5
REMARK    2  A    between atoms: N_5  and  C_6
REMARK    3  A    between atoms: C_6  and  N_8
REMARK    4  A    between atoms: C_9  and  C_11
REMARK    5  A    between atoms: C_16  and  N_17
REMARK                            x       y       z     vdW  Elec       q    Type
REMARK                         _______ _______ _______ _____ _____    ______ ____
ROOT
ATOM      1  N   UNL     1      30.486  22.302   9.885  0.00  0.00    +0.000 NA
ATOM      2  C   UNL     1      29.434  21.585  10.506  0.00  0.00    +0.000 C 
ATOM      3  O   UNL     1      29.455  20.322  10.216  0.00  0.00    +0.000 OA
ENDROOT
BRANCH   2   4
ATOM      4  C   UNL     1      28.402  22.100  11.368  0.00  0.00    +0.000 A 
ATOM      5  C   UNL     1      27.094  22.001  10.874  0.00  0.00    +0.000 A 
ATOM      6  C   UNL     1      25.998  22.498  11.521  0.00  0.00    +0.000 A 
ATOM      7  C   UNL     1      26.236  23.126  12.732  0.00  0.00    +0.000 A 
ATOM      8  C   UNL     1      27.505  23.241  13.251  0.00  0.00    +0.000 A 
ATOM      9  C   UNL     1      28.600  22.709  12.541  0.00  0.00    +0.000 A 
BRANCH   9  10
ATOM     10  N   UNL     1      29.837  22.857  13.157  0.00  0.00    +0.000 N 
ATOM     11  O   UNL     1      30.446  23.940  13.073  0.00  0.00    +0.000 OA
ATOM     12  O   UNL     1      30.429  21.861  13.855  0.00  0.00    +0.000 OA
ENDBRANCH   9  10
ENDBRANCH   2   4
BRANCH   1  13
ATOM     13  C   UNL     1      31.447  21.692   9.042  0.00  0.00    +0.000 C 
ATOM     14  S   UNL     1      31.412  22.047   7.428  0.00  0.00    +0.000 S 
BRANCH  13  15
ATOM     15  N   UNL     1      32.452  20.810   9.446  0.00  0.00    +0.000 NA
BRANCH  15  17
ATOM     16  C   UNL     1      34.643  20.129  10.100  0.00  0.00    +0.000 C 
ATOM     17  C   UNL     1      33.461  21.002  10.444  0.00  0.00    +0.000 C 
ATOM     18  C   UNL     1      33.970  22.437  10.461  0.00  0.00    +0.000 C 
ATOM     19  C   UNL     1      32.892  20.624  11.818  0.00  0.00    +0.000 C 
ENDBRANCH  15  17
ENDBRANCH  13  15
ENDBRANCH   1  13
TORSDOF 5
ENDMDL
MODEL 3
REMARK VINA RESULT:      -5.3     33.927     34.637
REMARK  Name = 
REMARK  5 active torsions:
REMARK  status: ('A' for Active; 'I' for Inactive)
REMARK    1  A    between atoms: C_2  and  N_5
REMARK    2  A    between atoms: N_5  and  C_6
REMARK    3  A    between atoms: C_6  and  N_8
REMARK    4  A    between atoms: C_9  and  C_11
REMARK    5  A    between atoms: C_16  and  N_17
REMARK                            x       y       z     vdW  Elec       q    Type
REMARK                         _______ _______ _______ _____ _____    ______ ____
ROOT
ATOM      1  N   UNL     1      30.494  21.563   9.161  0.00  0.00    +0.000 NA
ATOM      2  C   UNL     1      29.694  21.088  10.230  0.00  0.00    +0.000 C 
ATOM      3  O   UNL     1      29.621  19.795  10.259  0.00  0.00    +0.000 OA
ENDROOT
BRANCH   2   4
ATOM      4  C   UNL     1      28.993  21.862  11.221  0.00  0.00    +0.000 A 
ATOM      5  C   UNL     1      27.644  22.122  10.943  0.00  0.00    +0.000 A 
ATOM      6  C   UNL     1      26.841  22.897  11.733  0.00  0.00    +0.000 A 
ATOM      7  C   UNL     1      27.433  23.436  12.863  0.00  0.00    +0.000 A 
ATOM      8  C   UNL     1      28.753  23.203  13.171  0.00  0.00    +0.000 A 
ATOM      9  C   UNL     1      29.535  22.395  12.320  0.00  0.00    +0.000 A 
BRANCH   9  10
ATOM     10  N   UNL     1      30.850  22.201  12.728  0.00  0.00    +0.000 N 
ATOM     11  O   UNL     1      31.092  21.492  13.723  0.00  0.00    +0.000 OA
ATOM     12  O   UNL     1      31.903  22.757  12.088  0.00  0.00    +0.000 OA
ENDBRANCH   9  10
ENDBRANCH   2   4
BRANCH   1  13
ATOM     13  C   UNL     1      31.135  20.706   8.233  0.00  0.00    +0.000 C 
ATOM     14  S   UNL     1      32.753  20.420   8.419  0.00  0.00    +0.000 S 
BRANCH  13  15
ATOM     15  N   UNL     1      30.524  20.055   7.159  0.00  0.00    +0.000 NA
BRANCH  15  17
ATOM     16  C   UNL     1      30.730  21.887   5.644  0.00  0.00    +0.000 C 
ATOM     17  C   UNL     1      30.573  20.390   5.768  0.00  0.00    +0.000 C 
ATOM     18  C   UNL     1      31.780  19.767   5.080  0.00  0.00    +0.000 C 
ATOM     19  C   UNL     1      29.277  19.925   5.090  0.00  0.00    +0.000 C 
ENDBRANCH  15  17
ENDBRANCH  13  15
ENDBRANCH   1  13
TORSDOF 5
ENDMDL
MODEL 4
REMARK VINA RESULT:      -5.0     32.526     33.580
REMARK  Name = 
REMARK  5 active torsions:
REMARK  status: ('A' for Active; 'I' for Inactive)
REMARK    1  A    between atoms: C_2  and  N_5
REMARK    2  A    between atoms: N_5  and  C_6
REMARK    3  A    between atoms: C_6  and  N_8
REMARK    4  A    between atoms: C_9  and  C_11
REMARK    5  A    between atoms: C_16  and  N_17
REMARK                            x       y       z     vdW  Elec       q    Type
REMARK                         _______ _______ _______ _____ _____    ______ ____
ROOT
ATOM      1  N   UNL     1      30.530  24.834  25.464  0.00  0.00    +0.000 NA
ATOM      2  C   UNL     1      30.044  23.989  24.436  0.00  0.00    +0.000 C 
ATOM      3  O   UNL     1      30.972  23.243  23.926  0.00  0.00    +0.000 OA
ENDROOT
BRANCH   2   4
ATOM      4  C   UNL     1      28.699  23.894  23.932  0.00  0.00    +0.000 A 
ATOM      5  C   UNL     1      27.778  23.260  24.778  0.00  0.00    +0.000 A 
ATOM      6  C   UNL     1      26.476  23.018  24.439  0.00  0.00    +0.000 A 
ATOM      7  C   UNL     1      26.084  23.441  23.181  0.00  0.00    +0.000 A 
ATOM      8  C   UNL     1      26.957  24.068  22.322  0.00  0.00    +0.000 A 
ATOM      9  C   UNL     1      28.289  24.293  22.724  0.00  0.00    +0.000 A 
BRANCH   9  10
ATOM     10  N   UNL     1      29.087  24.952  21.796  0.00  0.00    +0.000 N 
ATOM     11  O   UNL     1      29.215  26.190  21.858  0.00  0.00    +0.000 OA
ATOM     12  O   UNL     1      29.743  24.306  20.807  0.00  0.00    +0.000 OA
ENDBRANCH   9  10
ENDBRANCH   2   4
BRANCH   1  13
ATOM     13  C   UNL     1      31.884  24.852  25.877  0.00  0.00    +0.000 C 
ATOM     14  S   UNL     1      32.869  26.039  25.283  0.00  0.00    +0.000 S 
BRANCH  13  15
ATOM     15  N   UNL     1      32.485  23.954  26.763  0.00  0.00    +0.000 NA
BRANCH  15  17
ATOM     16  C   UNL     1      33.152  23.029  28.858  0.00  0.00    +0.000 C 
ATOM     17  C   UNL     1      31.981  23.457  28.007  0.00  0.00    +0.000 C 
ATOM     18  C   UNL     1      31.244  24.535  28.789  0.00  0.00    +0.000 C 
ATOM     19  C   UNL     1      31.049  22.268  27.735  0.00  0.00    +0.000 C 
ENDBRANCH  15  17
ENDBRANCH  13  15
ENDBRANCH   1  13
TORSDOF 5
ENDMDL
MODEL 5
REMARK VINA RESULT:      -4.9     31.632     32.422
REMARK  Name = 
REMARK  5 active torsions:
REMARK  status: ('A' for Active; 'I' for Inactive)
REMARK    1  A    between atoms: C_2  and  N_5
REMARK    2  A    between atoms: N_5  and  C_6
REMARK    3  A    between atoms: C_6  and  N_8
REMARK    4  A    between atoms: C_9  and  C_11
REMARK    5  A    between atoms: C_16  and  N_17
REMARK                            x       y       z     vdW  Elec       q    Type
REMARK                         _______ _______ _______ _____ _____    ______ ____
ROOT
ATOM      1  N   UNL     1      28.687  23.463  28.721  0.00  0.00    +0.000 NA
ATOM      2  C   UNL     1      28.496  22.617  27.600  0.00  0.00    +0.000 C 
ATOM      3  O   UNL     1      27.858  21.530  27.902  0.00  0.00    +0.000 OA
ENDROOT
BRANCH   2   4
ATOM      4  C   UNL     1      28.926  22.837  26.244  0.00  0.00    +0.000 A 
ATOM      5  C   UNL     1      30.271  22.541  25.979  0.00  0.00    +0.000 A 
ATOM      6  C   UNL     1      30.871  22.752  24.770  0.00  0.00    +0.000 A 
ATOM      7  C   UNL     1      30.071  23.289  23.776  0.00  0.00    +0.000 A 
ATOM      8  C   UNL     1      28.747  23.591  23.996  0.00  0.00    +0.000 A 
ATOM      9  C   UNL     1      28.178  23.352  25.264  0.00  0.00    +0.000 A 
BRANCH   9  10
ATOM     10  N   UNL     1      26.830  23.669  25.381  0.00  0.00    +0.000 N 
ATOM     11  O   UNL     1      26.491  24.829  25.682  0.00  0.00    +0.000 OA
ATOM     12  O   UNL     1      25.846  22.763  25.183  0.00  0.00    +0.000 OA
ENDBRANCH   9  10
ENDBRANCH   2   4
BRANCH   1  13
ATOM     13  C   UNL     1      28.227  23.142  30.021  0.00  0.00    +0.000 C 
ATOM     14  S   UNL     1      26.770  23.752  30.510  0.00  0.00    +0.000 S 
BRANCH  13  15
ATOM     15  N   UNL     1      28.888  22.335  30.950  0.00  0.00    +0.000 NA
BRANCH  15  17
ATOM     16  C   UNL     1      30.330  21.569  32.690  0.00  0.00    +0.000 C 
ATOM     17  C   UNL     1      30.188  22.516  31.523  0.00  0.00    +0.000 C 
ATOM     18  C   UNL     1      31.293  22.161  30.538  0.00  0.00    +0.000 C 
ATOM     19  C   UNL     1      30.338  23.971  31.987  0.00  0.00    +0.000 C 
ENDBRANCH  15  17
ENDBRANCH  13  15
ENDBRANCH   1  13
TORSDOF 5
ENDMDL
MODEL 6
REMARK VINA RESULT:      -4.9      3.676      6.990
REMARK  Name = 
REMARK  5 active torsions:
REMARK  status: ('A' for Active; 'I' for Inactive)
REMARK    1  A    between atoms: C_2  and  N_5
REMARK    2  A    between atoms: N_5  and  C_6
REMARK    3  A    between atoms: C_6  and  N_8
REMARK    4  A    between atoms: C_9  and  C_11
REMARK    5  A    between atoms: C_16  and  N_17
REMARK                            x       y       z     vdW  Elec       q    Type
REMARK                         _______ _______ _______ _____ _____    ______ ____
ROOT
ATOM      1  N   UNL     1      16.649  -9.360  25.988  0.00  0.00    +0.000 NA
ATOM      2  C   UNL     1      17.451  -8.620  26.891  0.00  0.00    +0.000 C 
ATOM      3  O   UNL     1      17.336  -9.037  28.113  0.00  0.00    +0.000 OA
ENDROOT
BRANCH   2   4
ATOM      4  C   UNL     1      18.323  -7.513  26.597  0.00  0.00    +0.000 A 
ATOM      5  C   UNL     1      17.911  -6.268  27.095  0.00  0.00    +0.000 A 
ATOM      6  C   UNL     1      18.574  -5.097  26.855  0.00  0.00    +0.000 A 
ATOM      7  C   UNL     1      19.713  -5.189  26.074  0.00  0.00    +0.000 A 
ATOM      8  C   UNL     1      20.150  -6.391  25.568  0.00  0.00    +0.000 A 
ATOM      9  C   UNL     1      19.428  -7.569  25.847  0.00  0.00    +0.000 A 
BRANCH   9  10
ATOM     10  N   UNL     1      19.961  -8.735  25.310  0.00  0.00    +0.000 N 
ATOM     11  O   UNL     1      19.667  -9.073  24.147  0.00  0.00    +0.000 OA
ATOM     12  O   UNL     1      20.797  -9.542  26.001  0.00  0.00    +0.000 OA
ENDBRANCH   9  10
ENDBRANCH   2   4
BRANCH   1  13
ATOM     13  C   UNL     1      15.816 -10.432  26.390  0.00  0.00    +0.000 C 
ATOM     14  S   UNL     1      16.419 -11.969  26.301  0.00  0.00    +0.000 S 
BRANCH  13  15
ATOM     15  N   UNL     1      14.511 -10.320  26.875  0.00  0.00    +0.000 NA
BRANCH  15  17
ATOM     16  C   UNL     1      13.200  -8.453  26.178  0.00  0.00    +0.000 C 
ATOM     17  C   UNL     1      13.322  -9.958  26.164  0.00  0.00    +0.000 C 
ATOM     18  C   UNL     1      13.391 -10.375  24.701  0.00  0.00    +0.000 C 
ATOM     19  C   UNL     1      12.109 -10.604  26.845  0.00  0.00    +0.000 C 
ENDBRANCH  15  17
ENDBRANCH  13  15
ENDBRANCH   1  13
TORSDOF 5
ENDMDL
MODEL 7
REMARK VINA RESULT:      -4.9     31.541     32.948
REMARK  Name = 
REMARK  5 active torsions:
REMARK  status: ('A' for Active; 'I' for Inactive)
REMARK    1  A    between atoms: C_2  and  N_5
REMARK    2  A    between atoms: N_5  and  C_6
REMARK    3  A    between atoms: C_6  and  N_8
REMARK    4  A    between atoms: C_9  and  C_11
REMARK    5  A    between atoms: C_16  and  N_17
REMARK                            x       y       z     vdW  Elec       q    Type
REMARK                         _______ _______ _______ _____ _____    ______ ____
ROOT
ATOM      1  N   UNL     1      28.761  22.723  25.628  0.00  0.00    +0.000 NA
ATOM      2  C   UNL     1      28.697  24.048  25.130  0.00  0.00    +0.000 C 
ATOM      3  O   UNL     1      28.809  24.936  26.066  0.00  0.00    +0.000 OA
ENDROOT
BRANCH   2   4
ATOM      4  C   UNL     1      28.524  24.471  23.765  0.00  0.00    +0.000 A 
ATOM      5  C   UNL     1      29.659  25.022  23.152  0.00  0.00    +0.000 A 
ATOM      6  C   UNL     1      29.664  25.540  21.888  0.00  0.00    +0.000 A 
ATOM      7  C   UNL     1      28.460  25.498  21.205  0.00  0.00    +0.000 A 
ATOM      8  C   UNL     1      27.325  24.965  21.771  0.00  0.00    +0.000 A 
ATOM      9  C   UNL     1      27.377  24.443  23.080  0.00  0.00    +0.000 A 
BRANCH   9  10
ATOM     10  N   UNL     1      26.185  23.908  23.555  0.00  0.00    +0.000 N 
ATOM     11  O   UNL     1      25.772  22.821  23.107  0.00  0.00    +0.000 OA
ATOM     12  O   UNL     1      25.433  24.520  24.496  0.00  0.00    +0.000 OA
ENDBRANCH   9  10
ENDBRANCH   2   4
BRANCH   1  13
ATOM     13  C   UNL     1      28.926  22.419  27.001  0.00  0.00    +0.000 C 
ATOM     14  S   UNL     1      30.461  22.363  27.613  0.00  0.00    +0.000 S 
BRANCH  13  15
ATOM     15  N   UNL     1      27.900  22.166  27.915  0.00  0.00    +0.000 NA
BRANCH  15  17
ATOM     16  C   UNL     1      26.100  23.731  27.913  0.00  0.00    +0.000 C 
ATOM     17  C   UNL     1      27.192  23.096  28.741  0.00  0.00    +0.000 C 
ATOM     18  C   UNL     1      26.505  22.404  29.910  0.00  0.00    +0.000 C 
ATOM     19  C   UNL     1      28.168  24.162  29.255  0.00  0.00    +0.000 C 
ENDBRANCH  15  17
ENDBRANCH  13  15
ENDBRANCH   1  13
TORSDOF 5
ENDMDL
MODEL 8
REMARK VINA RESULT:      -4.8      3.213      6.246
REMARK  Name = 
REMARK  5 active torsions:
REMARK  status: ('A' for Active; 'I' for Inactive)
REMARK    1  A    between atoms: C_2  and  N_5
REMARK    2  A    between atoms: N_5  and  C_6
REMARK    3  A    between atoms: C_6  and  N_8
REMARK    4  A    between atoms: C_9  and  C_11
REMARK    5  A    between atoms: C_16  and  N_17
REMARK                            x       y       z     vdW  Elec       q    Type
REMARK                         _______ _______ _______ _____ _____    ______ ____
ROOT
ATOM      1  N   UNL     1      19.201  -9.902  28.151  0.00  0.00    +0.000 NA
ATOM      2  C   UNL     1      18.577  -9.055  27.202  0.00  0.00    +0.000 C 
ATOM      3  O   UNL     1      17.556  -9.616  26.633  0.00  0.00    +0.000 OA
ENDROOT
BRANCH   2   4
ATOM      4  C   UNL     1      18.953  -7.717  26.829  0.00  0.00    +0.000 A 
ATOM      5  C   UNL     1      18.150  -6.694  27.353  0.00  0.00    +0.000 A 
ATOM      6  C   UNL     1      18.313  -5.371  27.052  0.00  0.00    +0.000 A 
ATOM      7  C   UNL     1      19.343  -5.065  26.178  0.00  0.00    +0.000 A 
ATOM      8  C   UNL     1      20.153  -6.040  25.644  0.00  0.00    +0.000 A 
ATOM      9  C   UNL     1      19.940  -7.390  25.990  0.00  0.00    +0.000 A 
BRANCH   9  10
ATOM     10  N   UNL     1      20.824  -8.298  25.416  0.00  0.00    +0.000 N 
ATOM     11  O   UNL     1      21.929  -8.508  25.951  0.00  0.00    +0.000 OA
ATOM     12  O   UNL     1      20.541  -8.975  24.281  0.00  0.00    +0.000 OA
ENDBRANCH   9  10
ENDBRANCH   2   4
BRANCH   1  13
ATOM     13  C   UNL     1      18.750 -11.214  28.435  0.00  0.00    +0.000 C 
ATOM     14  S   UNL     1      19.457 -12.476  27.635  0.00  0.00    +0.000 S 
BRANCH  13  15
ATOM     15  N   UNL     1      17.753 -11.559  29.350  0.00  0.00    +0.000 NA
BRANCH  15  17
ATOM     16  C   UNL     1      17.361  -9.952  31.069  0.00  0.00    +0.000 C 
ATOM     17  C   UNL     1      17.746 -11.381  30.770  0.00  0.00    +0.000 C 
ATOM     18  C   UNL     1      16.703 -12.263  31.444  0.00  0.00    +0.000 C 
ATOM     19  C   UNL     1      19.142 -11.692  31.326  0.00  0.00    +0.000 C 
ENDBRANCH  15  17
ENDBRANCH  13  15
ENDBRANCH   1  13
TORSDOF 5
ENDMDL
MODEL 9
REMARK VINA RESULT:      -4.8     31.478     32.987
REMARK  Name = 
REMARK  5 active torsions:
REMARK  status: ('A' for Active; 'I' for Inactive)
REMARK    1  A    between atoms: C_2  and  N_5
REMARK    2  A    between atoms: N_5  and  C_6
REMARK    3  A    between atoms: C_6  and  N_8
REMARK    4  A    between atoms: C_9  and  C_11
REMARK    5  A    between atoms: C_16  and  N_17
REMARK                            x       y       z     vdW  Elec       q    Type
REMARK                         _______ _______ _______ _____ _____    ______ ____
ROOT
ATOM      1  N   UNL     1      28.909  23.977  27.290  0.00  0.00    +0.000 NA
ATOM      2  C   UNL     1      29.101  23.181  26.133  0.00  0.00    +0.000 C 
ATOM      3  O   UNL     1      29.517  21.987  26.416  0.00  0.00    +0.000 OA
ENDROOT
BRANCH   2   4
ATOM      4  C   UNL     1      28.895  23.557  24.759  0.00  0.00    +0.000 A 
ATOM      5  C   UNL     1      27.586  23.411  24.280  0.00  0.00    +0.000 A 
ATOM      6  C   UNL     1      27.219  23.652  22.986  0.00  0.00    +0.000 A 
ATOM      7  C   UNL     1      28.228  24.062  22.131  0.00  0.00    +0.000 A 
ATOM      8  C   UNL     1      29.525  24.218  22.563  0.00  0.00    +0.000 A 
ATOM      9  C   UNL     1      29.847  23.956  23.910  0.00  0.00    +0.000 A 
BRANCH   9  10
ATOM     10  N   UNL     1      31.178  24.163  24.254  0.00  0.00    +0.000 N 
ATOM     11  O   UNL     1      31.558  25.296  24.608  0.00  0.00    +0.000 OA
ATOM     12  O   UNL     1      32.103  23.178  24.220  0.00  0.00    +0.000 OA
ENDBRANCH   9  10
ENDBRANCH   2   4
BRANCH   1  13
ATOM     13  C   UNL     1      29.152  23.506  28.603  0.00  0.00    +0.000 C 
ATOM     14  S   UNL     1      30.551  23.965  29.354  0.00  0.00    +0.000 S 
BRANCH  13  15
ATOM     15  N   UNL     1      28.305  22.684  29.351  0.00  0.00    +0.000 NA
BRANCH  15  17
ATOM     16  C   UNL     1      27.073  24.075  30.846  0.00  0.00    +0.000 C 
ATOM     17  C   UNL     1      26.985  22.962  29.830  0.00  0.00    +0.000 C 
ATOM     18  C   UNL     1      26.074  23.461  28.716  0.00  0.00    +0.000 C 
ATOM     19  C   UNL     1      26.400  21.695  30.466  0.00  0.00    +0.000 C 
ENDBRANCH  15  17
ENDBRANCH  13  15
ENDBRANCH   1  13
TORSDOF 5
ENDMDL
MODEL 10
REMARK VINA RESULT:      -4.8     21.796     23.578
REMARK  Name = 
REMARK  5 active torsions:
REMARK  status: ('A' for Active; 'I' for Inactive)
REMARK    1  A    between atoms: C_2  and  N_5
REMARK    2  A    between atoms: N_5  and  C_6
REMARK    3  A    between atoms: C_6  and  N_8
REMARK    4  A    between atoms: C_9  and  C_11
REMARK    5  A    between atoms: C_16  and  N_17
REMARK                            x       y       z     vdW  Elec       q    Type
REMARK                         _______ _______ _______ _____ _____    ______ ____
ROOT
ATOM      1  N   UNL     1      18.696  11.051  36.603  0.00  0.00    +0.000 NA
ATOM      2  C   UNL     1      19.339  11.108  37.864  0.00  0.00    +0.000 C 
ATOM      3  O   UNL     1      18.768  10.351  38.747  0.00  0.00    +0.000 OA
ENDROOT
BRANCH   2   4
ATOM      4  C   UNL     1      20.492  11.887  38.233  0.00  0.00    +0.000 A 
ATOM      5  C   UNL     1      20.221  13.142  38.796  0.00  0.00    +0.000 A 
ATOM      6  C   UNL     1      21.187  14.044  39.142  0.00  0.00    +0.000 A 
ATOM      7  C   UNL     1      22.496  13.658  38.908  0.00  0.00    +0.000 A 
ATOM      8  C   UNL     1      22.803  12.435  38.359  0.00  0.00    +0.000 A 
ATOM      9  C   UNL     1      21.766  11.542  38.021  0.00  0.00    +0.000 A 
BRANCH   9  10
ATOM     10  N   UNL     1      22.178  10.323  37.493  0.00  0.00    +0.000 N 
ATOM     11  O   UNL     1      22.294  10.191  36.259  0.00  0.00    +0.000 OA
ATOM     12  O   UNL     1      22.462   9.251  38.265  0.00  0.00    +0.000 OA
ENDBRANCH   9  10
ENDBRANCH   2   4
BRANCH   1  13
ATOM     13  C   UNL     1      17.554  10.251  36.351  0.00  0.00    +0.000 C 
ATOM     14  S   UNL     1      17.745   8.868  35.465  0.00  0.00    +0.000 S 
BRANCH  13  15
ATOM     15  N   UNL     1      16.255  10.512  36.794  0.00  0.00    +0.000 NA
BRANCH  15  17
ATOM     16  C   UNL     1      14.237  11.601  37.453  0.00  0.00    +0.000 C 
ATOM     17  C   UNL     1      15.443  11.664  36.546  0.00  0.00    +0.000 C 
ATOM     18  C   UNL     1      16.175  12.955  36.886  0.00  0.00    +0.000 C 
ATOM     19  C   UNL     1      15.010  11.670  35.074  0.00  0.00    +0.000 C 
ENDBRANCH  15  17
ENDBRANCH  13  15
ENDBRANCH   1  13
TORSDOF 5
ENDMDL
