MODEL 1
REMARK VINA RESULT:      -7.5      0.000      0.000
REMARK  Name = 
REMARK  5 active torsions:
REMARK  status: ('A' for Active; 'I' for Inactive)
REMARK    1  A    between atoms: O_2  and  C_3
REMARK    2  A    between atoms: C_8  and  N_9
REMARK    3  A    between atoms: C_11  and  C_12
REMARK    4  A    between atoms: C_18  and  C_19
REMARK    5  A    between atoms: C_21  and  C_22
REMARK                            x       y       z     vdW  Elec       q    Type
REMARK                         _______ _______ _______ _____ _____    ______ ____
ROOT
ATOM      1  C   UNL     1      20.244   9.721  37.243  0.00  0.00    +0.000 C 
ATOM      2  O   UNL     1      19.895   9.822  36.095  0.00  0.00    +0.000 OA
ATOM      3  N   UNL     1      21.542  10.013  37.629  0.00  0.00    +0.000 N 
ATOM      4  C   UNL     1      22.606  10.451  36.838  0.00  0.00    +0.000 C 
ATOM      5  C   UNL     1      23.819   9.823  37.460  0.00  0.00    +0.000 C 
ATOM      6  C   UNL     1      23.393   9.001  38.633  0.00  0.00    +0.000 C 
ATOM      7  C   UNL     1      22.030   9.877  39.107  0.00  0.00    +0.000 C 
ENDROOT
BRANCH   1  10
ATOM      8  N   UNL     1      17.770  10.647  37.168  0.00  0.00    +0.000 N 
ATOM      9  C   UNL     1      17.829   9.307  37.604  0.00  0.00    +0.000 C 
ATOM     10  C   UNL     1      19.256   9.245  38.416  0.00  0.00    +0.000 C 
ATOM     11  C   UNL     1      19.086  10.774  39.050  0.00  0.00    +0.000 C 
ATOM     12  C   UNL     1      18.680  11.501  37.832  0.00  0.00    +0.000 C 
ATOM     13  O   UNL     1      19.081  12.630  37.499  0.00  0.00    +0.000 OA
BRANCH   8  19
ATOM     14  C   UNL     1      15.619  11.533  36.525  0.00  0.00    +0.000 A 
ATOM     15  C   UNL     1      14.702  11.950  35.553  0.00  0.00    +0.000 A 
ATOM     16  C   UNL     1      15.035  11.898  34.209  0.00  0.00    +0.000 A 
ATOM     17  C   UNL     1      16.265  11.436  33.830  0.00  0.00    +0.000 A 
ATOM     18  C   UNL     1      17.137  11.037  34.805  0.00  0.00    +0.000 A 
ATOM     19  C   UNL     1      16.866  11.064  36.154  0.00  0.00    +0.000 A 
BRANCH  14  21
ATOM     20  C   UNL     1      13.993  11.151  38.245  0.00  0.00    +0.000 C 
ATOM     21  O   UNL     1      15.276  11.589  37.856  0.00  0.00    +0.000 OA
ENDBRANCH  14  21
ENDBRANCH   8  19
ENDBRANCH   1  10
BRANCH   7  22
ATOM     22  C   UNL     1      22.725  11.298  39.230  0.00  0.00    +0.000 A 
ATOM     23  N   UNL     1      21.961  12.343  38.907  0.00  0.00    +0.000 NA
ATOM     24  C   UNL     1      22.738  13.452  39.079  0.00  0.00    +0.000 A 
ATOM     25  N   UNL     1      23.904  12.984  39.491  0.00  0.00    +0.000 NA
ATOM     26  O   UNL     1      23.850  11.697  39.567  0.00  0.00    +0.000 OA
BRANCH  24  27
ATOM     27  C   UNL     1      22.386  14.842  38.871  0.00  0.00    +0.000 A 
ATOM     28  C   UNL     1      23.360  15.758  38.651  0.00  0.00    +0.000 A 
ATOM     29  C   UNL     1      23.038  17.095  38.458  0.00  0.00    +0.000 A 
ATOM     30  C   UNL     1      21.728  17.489  38.491  0.00  0.00    +0.000 A 
ATOM     31  C   UNL     1      20.746  16.577  38.712  0.00  0.00    +0.000 A 
ATOM     32  C   UNL     1      21.072  15.252  38.902  0.00  0.00    +0.000 A 
ENDBRANCH  24  27
ENDBRANCH   7  22
TORSDOF 5
ENDMDL
MODEL 2
REMARK VINA RESULT:      -7.3      2.124      2.819
REMARK  Name = 
REMARK  5 active torsions:
REMARK  status: ('A' for Active; 'I' for Inactive)
REMARK    1  A    between atoms: O_2  and  C_3
REMARK    2  A    between atoms: C_8  and  N_9
REMARK    3  A    between atoms: C_11  and  C_12
REMARK    4  A    between atoms: C_18  and  C_19
REMARK    5  A    between atoms: C_21  and  C_22
REMARK                            x       y       z     vdW  Elec       q    Type
REMARK                         _______ _______ _______ _____ _____    ______ ____
ROOT
ATOM      1  C   UNL     1      20.169   9.683  37.217  0.00  0.00    +0.000 C 
ATOM      2  O   UNL     1      19.639   9.679  36.137  0.00  0.00    +0.000 OA
ATOM      3  N   UNL     1      21.523   9.945  37.355  0.00  0.00    +0.000 N 
ATOM      4  C   UNL     1      22.457  10.237  36.358  0.00  0.00    +0.000 C 
ATOM      5  C   UNL     1      23.732   9.616  36.845  0.00  0.00    +0.000 C 
ATOM      6  C   UNL     1      23.477   8.948  38.158  0.00  0.00    +0.000 C 
ATOM      7  C   UNL     1      22.243   9.942  38.741  0.00  0.00    +0.000 C 
ENDROOT
BRANCH   1  10
ATOM      8  N   UNL     1      17.801  10.824  37.484  0.00  0.00    +0.000 N 
ATOM      9  C   UNL     1      17.833   9.521  38.022  0.00  0.00    +0.000 C 
ATOM     10  C   UNL     1      19.373   9.389  38.580  0.00  0.00    +0.000 C 
ATOM     11  C   UNL     1      19.436  10.971  39.094  0.00  0.00    +0.000 C 
ATOM     12  C   UNL     1      18.878  11.638  37.903  0.00  0.00    +0.000 C 
ATOM     13  O   UNL     1      19.298  12.697  37.406  0.00  0.00    +0.000 OA
BRANCH   8  19
ATOM     14  C   UNL     1      15.505  11.476  37.126  0.00  0.00    +0.000 A 
ATOM     15  C   UNL     1      14.460  11.889  36.290  0.00  0.00    +0.000 A 
ATOM     16  C   UNL     1      14.679  12.071  34.935  0.00  0.00    +0.000 A 
ATOM     17  C   UNL     1      15.921  11.844  34.410  0.00  0.00    +0.000 A 
ATOM     18  C   UNL     1      16.919  11.442  35.253  0.00  0.00    +0.000 A 
ATOM     19  C   UNL     1      16.766  11.244  36.606  0.00  0.00    +0.000 A 
BRANCH  14  21
ATOM     20  C   UNL     1      14.022  10.799  38.884  0.00  0.00    +0.000 C 
ATOM     21  O   UNL     1      15.274  11.300  38.470  0.00  0.00    +0.000 OA
ENDBRANCH  14  21
ENDBRANCH   8  19
ENDBRANCH   1  10
BRANCH   7  22
ATOM     22  C   UNL     1      23.000  11.328  38.588  0.00  0.00    +0.000 A 
ATOM     23  N   UNL     1      24.302  11.309  38.879  0.00  0.00    +0.000 NA
ATOM     24  C   UNL     1      24.755  12.581  38.685  0.00  0.00    +0.000 A 
ATOM     25  N   UNL     1      23.690  13.261  38.293  0.00  0.00    +0.000 NA
ATOM     26  O   UNL     1      22.668  12.474  38.250  0.00  0.00    +0.000 OA
BRANCH  24  27
ATOM     27  C   UNL     1      26.098  13.097  38.854  0.00  0.00    +0.000 A 
ATOM     28  C   UNL     1      27.119  12.246  39.118  0.00  0.00    +0.000 A 
ATOM     29  C   UNL     1      28.410  12.726  39.290  0.00  0.00    +0.000 A 
ATOM     30  C   UNL     1      28.653  14.070  39.193  0.00  0.00    +0.000 A 
ATOM     31  C   UNL     1      27.635  14.930  38.929  0.00  0.00    +0.000 A 
ATOM     32  C   UNL     1      26.355  14.446  38.759  0.00  0.00    +0.000 A 
ENDBRANCH  24  27
ENDBRANCH   7  22
TORSDOF 5
ENDMDL
MODEL 3
REMARK VINA RESULT:      -7.0     16.678     20.257
REMARK  Name = 
REMARK  5 active torsions:
REMARK  status: ('A' for Active; 'I' for Inactive)
REMARK    1  A    between atoms: O_2  and  C_3
REMARK    2  A    between atoms: C_8  and  N_9
REMARK    3  A    between atoms: C_11  and  C_12
REMARK    4  A    between atoms: C_18  and  C_19
REMARK    5  A    between atoms: C_21  and  C_22
REMARK                            x       y       z     vdW  Elec       q    Type
REMARK                         _______ _______ _______ _____ _____    ______ ____
ROOT
ATOM      1  C   UNL     1      34.545  -3.641  35.854  0.00  0.00    +0.000 C 
ATOM      2  O   UNL     1      35.412  -4.301  35.344  0.00  0.00    +0.000 OA
ATOM      3  N   UNL     1      34.753  -2.313  36.190  0.00  0.00    +0.000 N 
ATOM      4  C   UNL     1      35.905  -1.542  36.012  0.00  0.00    +0.000 C 
ATOM      5  C   UNL     1      35.921  -0.614  37.191  0.00  0.00    +0.000 C 
ATOM      6  C   UNL     1      34.734  -0.901  38.051  0.00  0.00    +0.000 C 
ATOM      7  C   UNL     1      33.654  -1.434  36.868  0.00  0.00    +0.000 C 
ENDROOT
BRANCH   1  10
ATOM      8  N   UNL     1      33.306  -4.945  33.919  0.00  0.00    +0.000 N 
ATOM      9  C   UNL     1      33.083  -5.524  35.185  0.00  0.00    +0.000 C 
ATOM     10  C   UNL     1      33.088  -4.226  36.192  0.00  0.00    +0.000 C 
ATOM     11  C   UNL     1      32.312  -3.240  35.099  0.00  0.00    +0.000 C 
ATOM     12  C   UNL     1      33.098  -3.547  33.890  0.00  0.00    +0.000 C 
ATOM     13  O   UNL     1      33.478  -2.716  33.047  0.00  0.00    +0.000 OA
BRANCH   8  19
ATOM     14  C   UNL     1      32.724  -6.368  32.058  0.00  0.00    +0.000 A 
ATOM     15  C   UNL     1      33.076  -7.147  30.950  0.00  0.00    +0.000 A 
ATOM     16  C   UNL     1      34.405  -7.281  30.582  0.00  0.00    +0.000 A 
ATOM     17  C   UNL     1      35.378  -6.650  31.307  0.00  0.00    +0.000 A 
ATOM     18  C   UNL     1      35.000  -5.897  32.383  0.00  0.00    +0.000 A 
ATOM     19  C   UNL     1      33.700  -5.725  32.799  0.00  0.00    +0.000 A 
BRANCH  14  21
ATOM     20  C   UNL     1      30.698  -7.392  32.829  0.00  0.00    +0.000 C 
ATOM     21  O   UNL     1      31.401  -6.243  32.413  0.00  0.00    +0.000 OA
ENDBRANCH  14  21
ENDBRANCH   8  19
ENDBRANCH   1  10
BRANCH   7  22
ATOM     22  C   UNL     1      33.763  -0.180  35.903  0.00  0.00    +0.000 A 
ATOM     23  N   UNL     1      33.733   1.012  36.503  0.00  0.00    +0.000 NA
ATOM     24  C   UNL     1      33.839   1.942  35.509  0.00  0.00    +0.000 A 
ATOM     25  N   UNL     1      33.924   1.235  34.395  0.00  0.00    +0.000 NA
ATOM     26  O   UNL     1      33.874  -0.024  34.678  0.00  0.00    +0.000 OA
BRANCH  24  27
ATOM     27  C   UNL     1      33.863   3.386  35.623  0.00  0.00    +0.000 A 
ATOM     28  C   UNL     1      34.073   3.964  36.831  0.00  0.00    +0.000 A 
ATOM     29  C   UNL     1      34.092   5.346  36.957  0.00  0.00    +0.000 A 
ATOM     30  C   UNL     1      33.897   6.131  35.852  0.00  0.00    +0.000 A 
ATOM     31  C   UNL     1      33.686   5.559  34.637  0.00  0.00    +0.000 A 
ATOM     32  C   UNL     1      33.669   4.186  34.520  0.00  0.00    +0.000 A 
ENDBRANCH  24  27
ENDBRANCH   7  22
TORSDOF 5
ENDMDL
MODEL 4
REMARK VINA RESULT:      -6.9     23.335     26.293
REMARK  Name = 
REMARK  5 active torsions:
REMARK  status: ('A' for Active; 'I' for Inactive)
REMARK    1  A    between atoms: O_2  and  C_3
REMARK    2  A    between atoms: C_8  and  N_9
REMARK    3  A    between atoms: C_11  and  C_12
REMARK    4  A    between atoms: C_18  and  C_19
REMARK    5  A    between atoms: C_21  and  C_22
REMARK                            x       y       z     vdW  Elec       q    Type
REMARK                         _______ _______ _______ _____ _____    ______ ____
ROOT
ATOM      1  C   UNL     1      25.606 -10.621  23.337  0.00  0.00    +0.000 C 
ATOM      2  O   UNL     1      26.651 -10.842  23.892  0.00  0.00    +0.000 OA
ATOM      3  N   UNL     1      24.450 -10.359  24.055  0.00  0.00    +0.000 N 
ATOM      4  C   UNL     1      24.282 -10.299  25.440  0.00  0.00    +0.000 C 
ATOM      5  C   UNL     1      22.897 -10.827  25.673  0.00  0.00    +0.000 C 
ATOM      6  C   UNL     1      22.291 -11.199  24.359  0.00  0.00    +0.000 C 
ATOM      7  C   UNL     1      23.076 -10.084  23.364  0.00  0.00    +0.000 C 
ENDROOT
BRANCH   1  10
ATOM      8  N   UNL     1      27.450  -9.307  21.975  0.00  0.00    +0.000 N 
ATOM      9  C   UNL     1      27.038 -10.487  21.321  0.00  0.00    +0.000 C 
ATOM     10  C   UNL     1      25.454 -10.607  21.739  0.00  0.00    +0.000 C 
ATOM     11  C   UNL     1      25.198  -8.965  21.661  0.00  0.00    +0.000 C 
ATOM     12  C   UNL     1      26.377  -8.497  22.412  0.00  0.00    +0.000 C 
ATOM     13  O   UNL     1      26.382  -7.576  23.247  0.00  0.00    +0.000 OA
BRANCH   8  19
ATOM     14  C   UNL     1      29.385  -7.989  21.389  0.00  0.00    +0.000 A 
ATOM     15  C   UNL     1      30.736  -7.655  21.539  0.00  0.00    +0.000 A 
ATOM     16  C   UNL     1      31.525  -8.327  22.459  0.00  0.00    +0.000 A 
ATOM     17  C   UNL     1      30.981  -9.322  23.223  0.00  0.00    +0.000 A 
ATOM     18  C   UNL     1      29.659  -9.623  23.051  0.00  0.00    +0.000 A 
ATOM     19  C   UNL     1      28.824  -8.994  22.156  0.00  0.00    +0.000 A 
BRANCH  14  21
ATOM     20  C   UNL     1      28.978  -7.361  19.111  0.00  0.00    +0.000 C 
ATOM     21  O   UNL     1      28.613  -7.314  20.472  0.00  0.00    +0.000 OA
ENDBRANCH  14  21
ENDBRANCH   8  19
ENDBRANCH   1  10
BRANCH   7  22
ATOM     22  C   UNL     1      22.693  -8.774  24.174  0.00  0.00    +0.000 A 
ATOM     23  N   UNL     1      21.419  -8.688  24.560  0.00  0.00    +0.000 NA
ATOM     24  C   UNL     1      21.302  -7.505  25.230  0.00  0.00    +0.000 A 
ATOM     25  N   UNL     1      22.514  -6.977  25.193  0.00  0.00    +0.000 NA
ATOM     26  O   UNL     1      23.309  -7.768  24.554  0.00  0.00    +0.000 OA
BRANCH  24  27
ATOM     27  C   UNL     1      20.128  -6.936  25.859  0.00  0.00    +0.000 A 
ATOM     28  C   UNL     1      19.195  -7.750  26.409  0.00  0.00    +0.000 A 
ATOM     29  C   UNL     1      18.061  -7.219  27.008  0.00  0.00    +0.000 A 
ATOM     30  C   UNL     1      17.885  -5.862  27.044  0.00  0.00    +0.000 A 
ATOM     31  C   UNL     1      18.816  -5.038  26.496  0.00  0.00    +0.000 A 
ATOM     32  C   UNL     1      19.939  -5.573  25.903  0.00  0.00    +0.000 A 
ENDBRANCH  24  27
ENDBRANCH   7  22
TORSDOF 5
ENDMDL
MODEL 5
REMARK VINA RESULT:      -6.9     17.643     20.080
REMARK  Name = 
REMARK  5 active torsions:
REMARK  status: ('A' for Active; 'I' for Inactive)
REMARK    1  A    between atoms: O_2  and  C_3
REMARK    2  A    between atoms: C_8  and  N_9
REMARK    3  A    between atoms: C_11  and  C_12
REMARK    4  A    between atoms: C_18  and  C_19
REMARK    5  A    between atoms: C_21  and  C_22
REMARK                            x       y       z     vdW  Elec       q    Type
REMARK                         _______ _______ _______ _____ _____    ______ ____
ROOT
ATOM      1  C   UNL     1      29.189  23.356  25.294  0.00  0.00    +0.000 C 
ATOM      2  O   UNL     1      29.590  22.310  25.735  0.00  0.00    +0.000 OA
ATOM      3  N   UNL     1      27.835  23.593  25.122  0.00  0.00    +0.000 N 
ATOM      4  C   UNL     1      26.761  22.746  25.406  0.00  0.00    +0.000 C 
ATOM      5  C   UNL     1      25.746  23.058  24.346  0.00  0.00    +0.000 C 
ATOM      6  C   UNL     1      26.298  24.112  23.441  0.00  0.00    +0.000 C 
ATOM      7  C   UNL     1      27.284  24.933  24.537  0.00  0.00    +0.000 C 
ENDROOT
BRANCH   1  10
ATOM      8  N   UNL     1      31.167  23.924  26.951  0.00  0.00    +0.000 N 
ATOM      9  C   UNL     1      31.548  24.043  25.599  0.00  0.00    +0.000 C 
ATOM     10  C   UNL     1      30.168  24.556  24.870  0.00  0.00    +0.000 C 
ATOM     11  C   UNL     1      29.724  25.524  26.148  0.00  0.00    +0.000 C 
ATOM     12  C   UNL     1      29.955  24.584  27.260  0.00  0.00    +0.000 C 
ATOM     13  O   UNL     1      29.212  24.436  28.246  0.00  0.00    +0.000 OA
BRANCH   8  19
ATOM     14  C   UNL     1      33.084  23.800  28.413  0.00  0.00    +0.000 A 
ATOM     15  C   UNL     1      33.884  23.117  29.336  0.00  0.00    +0.000 A 
ATOM     16  C   UNL     1      33.550  21.834  29.736  0.00  0.00    +0.000 A 
ATOM     17  C   UNL     1      32.434  21.231  29.225  0.00  0.00    +0.000 A 
ATOM     18  C   UNL     1      31.675  21.926  28.325  0.00  0.00    +0.000 A 
ATOM     19  C   UNL     1      31.953  23.201  27.888  0.00  0.00    +0.000 A 
BRANCH  14  21
ATOM     20  C   UNL     1      34.657  25.276  27.365  0.00  0.00    +0.000 C 
ATOM     21  O   UNL     1      33.427  25.075  28.024  0.00  0.00    +0.000 OA
ENDBRANCH  14  21
ENDBRANCH   8  19
ENDBRANCH   1  10
BRANCH   7  22
ATOM     22  C   UNL     1      26.183  25.209  25.646  0.00  0.00    +0.000 A 
ATOM     23  N   UNL     1      25.014  25.668  25.195  0.00  0.00    +0.000 NA
ATOM     24  C   UNL     1      24.220  25.835  26.292  0.00  0.00    +0.000 A 
ATOM     25  N   UNL     1      24.975  25.463  27.312  0.00  0.00    +0.000 NA
ATOM     26  O   UNL     1      26.135  25.098  26.880  0.00  0.00    +0.000 OA
BRANCH  24  27
ATOM     27  C   UNL     1      22.851  26.305  26.353  0.00  0.00    +0.000 A 
ATOM     28  C   UNL     1      22.169  26.246  27.522  0.00  0.00    +0.000 A 
ATOM     29  C   UNL     1      20.854  26.686  27.594  0.00  0.00    +0.000 A 
ATOM     30  C   UNL     1      20.243  27.183  26.475  0.00  0.00    +0.000 A 
ATOM     31  C   UNL     1      20.920  27.246  25.298  0.00  0.00    +0.000 A 
ATOM     32  C   UNL     1      22.225  26.808  25.235  0.00  0.00    +0.000 A 
ENDBRANCH  24  27
ENDBRANCH   7  22
TORSDOF 5
ENDMDL
MODEL 6
REMARK VINA RESULT:      -6.8     16.043     18.691
REMARK  Name = 
REMARK  5 active torsions:
REMARK  status: ('A' for Active; 'I' for Inactive)
REMARK    1  A    between atoms: O_2  and  C_3
REMARK    2  A    between atoms: C_8  and  N_9
REMARK    3  A    between atoms: C_11  and  C_12
REMARK    4  A    between atoms: C_18  and  C_19
REMARK    5  A    between atoms: C_21  and  C_22
REMARK                            x       y       z     vdW  Elec       q    Type
REMARK                         _______ _______ _______ _____ _____    ______ ____
ROOT
ATOM      1  C   UNL     1      29.242  23.727  27.606  0.00  0.00    +0.000 C 
ATOM      2  O   UNL     1      29.857  24.561  26.993  0.00  0.00    +0.000 OA
ATOM      3  N   UNL     1      28.875  23.928  28.927  0.00  0.00    +0.000 N 
ATOM      4  C   UNL     1      29.117  25.040  29.736  0.00  0.00    +0.000 C 
ATOM      5  C   UNL     1      29.308  24.471  31.110  0.00  0.00    +0.000 C 
ATOM      6  C   UNL     1      29.175  22.984  31.042  0.00  0.00    +0.000 C 
ATOM      7  C   UNL     1      28.092  22.859  29.754  0.00  0.00    +0.000 C 
ENDROOT
BRANCH   1  10
ATOM      8  N   UNL     1      28.404  23.775  25.101  0.00  0.00    +0.000 N 
ATOM      9  C   UNL     1      29.164  22.624  25.390  0.00  0.00    +0.000 C 
ATOM     10  C   UNL     1      28.797  22.324  26.963  0.00  0.00    +0.000 C 
ATOM     11  C   UNL     1      27.205  22.777  26.790  0.00  0.00    +0.000 C 
ATOM     12  C   UNL     1      27.388  24.038  26.048  0.00  0.00    +0.000 C 
ATOM     13  O   UNL     1      26.757  25.090  26.248  0.00  0.00    +0.000 OA
BRANCH   8  19
ATOM     14  C   UNL     1      28.085  24.213  22.748  0.00  0.00    +0.000 A 
ATOM     15  C   UNL     1      28.319  24.973  21.597  0.00  0.00    +0.000 A 
ATOM     16  C   UNL     1      29.131  26.094  21.652  0.00  0.00    +0.000 A 
ATOM     17  C   UNL     1      29.708  26.459  22.837  0.00  0.00    +0.000 A 
ATOM     18  C   UNL     1      29.458  25.695  23.942  0.00  0.00    +0.000 A 
ATOM     19  C   UNL     1      28.662  24.572  23.953  0.00  0.00    +0.000 A 
BRANCH  14  21
ATOM     20  C   UNL     1      25.881  23.270  22.786  0.00  0.00    +0.000 C 
ATOM     21  O   UNL     1      27.277  23.102  22.680  0.00  0.00    +0.000 OA
ENDBRANCH  14  21
ENDBRANCH   8  19
ENDBRANCH   1  10
BRANCH   7  22
ATOM     22  C   UNL     1      26.969  23.820  30.329  0.00  0.00    +0.000 A 
ATOM     23  N   UNL     1      26.216  24.437  29.417  0.00  0.00    +0.000 NA
ATOM     24  C   UNL     1      25.326  25.204  30.111  0.00  0.00    +0.000 A 
ATOM     25  N   UNL     1      25.615  24.986  31.383  0.00  0.00    +0.000 NA
ATOM     26  O   UNL     1      26.600  24.155  31.465  0.00  0.00    +0.000 OA
BRANCH  24  27
ATOM     27  C   UNL     1      24.282  26.066  29.595  0.00  0.00    +0.000 A 
ATOM     28  C   UNL     1      24.178  26.276  28.261  0.00  0.00    +0.000 A 
ATOM     29  C   UNL     1      23.188  27.105  27.752  0.00  0.00    +0.000 A 
ATOM     30  C   UNL     1      22.310  27.716  28.607  0.00  0.00    +0.000 A 
ATOM     31  C   UNL     1      22.407  27.512  29.947  0.00  0.00    +0.000 A 
ATOM     32  C   UNL     1      23.393  26.686  30.444  0.00  0.00    +0.000 A 
ENDBRANCH  24  27
ENDBRANCH   7  22
TORSDOF 5
ENDMDL
MODEL 7
REMARK VINA RESULT:      -6.8     16.502     19.015
REMARK  Name = 
REMARK  5 active torsions:
REMARK  status: ('A' for Active; 'I' for Inactive)
REMARK    1  A    between atoms: O_2  and  C_3
REMARK    2  A    between atoms: C_8  and  N_9
REMARK    3  A    between atoms: C_11  and  C_12
REMARK    4  A    between atoms: C_18  and  C_19
REMARK    5  A    between atoms: C_21  and  C_22
REMARK                            x       y       z     vdW  Elec       q    Type
REMARK                         _______ _______ _______ _____ _____    ______ ____
ROOT
ATOM      1  C   UNL     1      30.905  23.592  26.297  0.00  0.00    +0.000 C 
ATOM      2  O   UNL     1      31.078  24.589  25.647  0.00  0.00    +0.000 OA
ATOM      3  N   UNL     1      31.115  23.578  27.667  0.00  0.00    +0.000 N 
ATOM      4  C   UNL     1      31.526  24.627  28.493  0.00  0.00    +0.000 C 
ATOM      5  C   UNL     1      32.363  23.968  29.549  0.00  0.00    +0.000 C 
ATOM      6  C   UNL     1      32.417  22.500  29.278  0.00  0.00    +0.000 C 
ATOM      7  C   UNL     1      30.915  22.296  28.536  0.00  0.00    +0.000 C 
ENDROOT
BRANCH   1  10
ATOM      8  N   UNL     1      29.132  23.736  24.344  0.00  0.00    +0.000 N 
ATOM      9  C   UNL     1      30.085  22.720  24.129  0.00  0.00    +0.000 C 
ATOM     10  C   UNL     1      30.423  22.202  25.652  0.00  0.00    +0.000 C 
ATOM     11  C   UNL     1      28.852  22.371  26.174  0.00  0.00    +0.000 C 
ATOM     12  C   UNL     1      28.558  23.712  25.636  0.00  0.00    +0.000 C 
ATOM     13  O   UNL     1      27.931  24.606  26.231  0.00  0.00    +0.000 OA
BRANCH   8  19
ATOM     14  C   UNL     1      27.724  24.416  22.505  0.00  0.00    +0.000 A 
ATOM     15  C   UNL     1      27.372  25.320  21.496  0.00  0.00    +0.000 A 
ATOM     16  C   UNL     1      28.098  26.486  21.316  0.00  0.00    +0.000 A 
ATOM     17  C   UNL     1      29.166  26.754  22.127  0.00  0.00    +0.000 A 
ATOM     18  C   UNL     1      29.482  25.851  23.103  0.00  0.00    +0.000 A 
ATOM     19  C   UNL     1      28.802  24.677  23.332  0.00  0.00    +0.000 A 
BRANCH  14  21
ATOM     20  C   UNL     1      25.729  23.343  23.289  0.00  0.00    +0.000 C 
ATOM     21  O   UNL     1      26.994  23.262  22.673  0.00  0.00    +0.000 OA
ENDBRANCH  14  21
ENDBRANCH   8  19
ENDBRANCH   1  10
BRANCH   7  22
ATOM     22  C   UNL     1      30.027  22.951  29.676  0.00  0.00    +0.000 A 
ATOM     23  N   UNL     1      28.888  23.515  29.267  0.00  0.00    +0.000 NA
ATOM     24  C   UNL     1      28.284  24.011  30.385  0.00  0.00    +0.000 A 
ATOM     25  N   UNL     1      29.107  23.706  31.375  0.00  0.00    +0.000 NA
ATOM     26  O   UNL     1      30.131  23.076  30.905  0.00  0.00    +0.000 OA
BRANCH  24  27
ATOM     27  C   UNL     1      27.021  24.711  30.494  0.00  0.00    +0.000 A 
ATOM     28  C   UNL     1      26.628  25.213  31.690  0.00  0.00    +0.000 A 
ATOM     29  C   UNL     1      25.416  25.880  31.811  0.00  0.00    +0.000 A 
ATOM     30  C   UNL     1      24.613  26.031  30.713  0.00  0.00    +0.000 A 
ATOM     31  C   UNL     1      25.000  25.532  29.510  0.00  0.00    +0.000 A 
ATOM     32  C   UNL     1      26.204  24.871  29.397  0.00  0.00    +0.000 A 
ENDBRANCH  24  27
ENDBRANCH   7  22
TORSDOF 5
ENDMDL
MODEL 8
REMARK VINA RESULT:      -6.7     16.614     19.653
REMARK  Name = 
REMARK  5 active torsions:
REMARK  status: ('A' for Active; 'I' for Inactive)
REMARK    1  A    between atoms: O_2  and  C_3
REMARK    2  A    between atoms: C_8  and  N_9
REMARK    3  A    between atoms: C_11  and  C_12
REMARK    4  A    between atoms: C_18  and  C_19
REMARK    5  A    between atoms: C_21  and  C_22
REMARK                            x       y       z     vdW  Elec       q    Type
REMARK                         _______ _______ _______ _____ _____    ______ ____
ROOT
ATOM      1  C   UNL     1      27.693  23.356  26.698  0.00  0.00    +0.000 C 
ATOM      2  O   UNL     1      26.629  23.855  26.435  0.00  0.00    +0.000 OA
ATOM      3  N   UNL     1      28.793  23.529  25.873  0.00  0.00    +0.000 N 
ATOM      4  C   UNL     1      28.882  24.257  24.685  0.00  0.00    +0.000 C 
ATOM      5  C   UNL     1      29.856  23.486  23.844  0.00  0.00    +0.000 C 
ATOM      6  C   UNL     1      30.307  22.282  24.606  0.00  0.00    +0.000 C 
ATOM      7  C   UNL     1      30.182  22.883  26.178  0.00  0.00    +0.000 C 
ENDROOT
BRANCH   1  10
ATOM      8  N   UNL     1      26.749  24.293  28.981  0.00  0.00    +0.000 N 
ATOM      9  C   UNL     1      26.613  22.893  28.877  0.00  0.00    +0.000 C 
ATOM     10  C   UNL     1      27.935  22.456  28.005  0.00  0.00    +0.000 C 
ATOM     11  C   UNL     1      28.922  23.579  28.737  0.00  0.00    +0.000 C 
ATOM     12  C   UNL     1      28.044  24.762  28.662  0.00  0.00    +0.000 C 
ATOM     13  O   UNL     1      28.411  25.915  28.375  0.00  0.00    +0.000 OA
BRANCH   8  19
ATOM     14  C   UNL     1      25.436  25.326  30.722  0.00  0.00    +0.000 A 
ATOM     15  C   UNL     1      24.375  26.136  31.146  0.00  0.00    +0.000 A 
ATOM     16  C   UNL     1      23.544  26.742  30.218  0.00  0.00    +0.000 A 
ATOM     17  C   UNL     1      23.760  26.548  28.882  0.00  0.00    +0.000 A 
ATOM     18  C   UNL     1      24.805  25.752  28.502  0.00  0.00    +0.000 A 
ATOM     19  C   UNL     1      25.665  25.123  29.373  0.00  0.00    +0.000 A 
BRANCH  14  21
ATOM     20  C   UNL     1      27.173  25.531  32.362  0.00  0.00    +0.000 C 
ATOM     21  O   UNL     1      26.253  24.730  31.654  0.00  0.00    +0.000 OA
ENDBRANCH  14  21
ENDBRANCH   8  19
ENDBRANCH   1  10
BRANCH   7  22
ATOM     22  C   UNL     1      31.068  24.183  25.977  0.00  0.00    +0.000 A 
ATOM     23  N   UNL     1      32.313  23.972  25.547  0.00  0.00    +0.000 NA
ATOM     24  C   UNL     1      32.895  25.201  25.443  0.00  0.00    +0.000 A 
ATOM     25  N   UNL     1      31.954  26.051  25.816  0.00  0.00    +0.000 NA
ATOM     26  O   UNL     1      30.883  25.401  26.126  0.00  0.00    +0.000 OA
BRANCH  24  27
ATOM     27  C   UNL     1      34.239  25.530  25.012  0.00  0.00    +0.000 A 
ATOM     28  C   UNL     1      34.715  26.787  25.189  0.00  0.00    +0.000 A 
ATOM     29  C   UNL     1      35.998  27.119  24.775  0.00  0.00    +0.000 A 
ATOM     30  C   UNL     1      36.787  26.170  24.183  0.00  0.00    +0.000 A 
ATOM     31  C   UNL     1      36.317  24.907  24.001  0.00  0.00    +0.000 A 
ATOM     32  C   UNL     1      35.043  24.585  24.416  0.00  0.00    +0.000 A 
ENDBRANCH  24  27
ENDBRANCH   7  22
TORSDOF 5
ENDMDL
MODEL 9
REMARK VINA RESULT:      -6.7     17.225     20.946
REMARK  Name = 
REMARK  5 active torsions:
REMARK  status: ('A' for Active; 'I' for Inactive)
REMARK    1  A    between atoms: O_2  and  C_3
REMARK    2  A    between atoms: C_8  and  N_9
REMARK    3  A    between atoms: C_11  and  C_12
REMARK    4  A    between atoms: C_18  and  C_19
REMARK    5  A    between atoms: C_21  and  C_22
REMARK                            x       y       z     vdW  Elec       q    Type
REMARK                         _______ _______ _______ _____ _____    ______ ____
ROOT
ATOM      1  C   UNL     1      33.513  -4.172  36.366  0.00  0.00    +0.000 C 
ATOM      2  O   UNL     1      32.534  -4.822  36.623  0.00  0.00    +0.000 OA
ATOM      3  N   UNL     1      33.411  -2.896  35.833  0.00  0.00    +0.000 N 
ATOM      4  C   UNL     1      32.257  -2.174  35.523  0.00  0.00    +0.000 C 
ATOM      5  C   UNL     1      32.630  -1.371  34.312  0.00  0.00    +0.000 C 
ATOM      6  C   UNL     1      34.045  -1.679  33.942  0.00  0.00    +0.000 C 
ATOM      7  C   UNL     1      34.663  -2.033  35.473  0.00  0.00    +0.000 C 
ENDROOT
BRANCH   1  10
ATOM      8  N   UNL     1      34.605  -5.581  34.417  0.00  0.00    +0.000 N 
ATOM      9  C   UNL     1      35.536  -4.736  35.054  0.00  0.00    +0.000 C 
ATOM     10  C   UNL     1      35.007  -4.709  36.609  0.00  0.00    +0.000 C 
ATOM     11  C   UNL     1      34.556  -6.311  36.597  0.00  0.00    +0.000 C 
ATOM     12  C   UNL     1      33.830  -6.352  35.314  0.00  0.00    +0.000 C 
ATOM     13  O   UNL     1      32.761  -6.952  35.108  0.00  0.00    +0.000 OA
BRANCH   8  19
ATOM     14  C   UNL     1      35.315  -6.481  32.292  0.00  0.00    +0.000 A 
ATOM     15  C   UNL     1      35.228  -6.553  30.897  0.00  0.00    +0.000 A 
ATOM     16  C   UNL     1      34.310  -5.774  30.212  0.00  0.00    +0.000 A 
ATOM     17  C   UNL     1      33.486  -4.929  30.903  0.00  0.00    +0.000 A 
ATOM     18  C   UNL     1      33.597  -4.883  32.264  0.00  0.00    +0.000 A 
ATOM     19  C   UNL     1      34.487  -5.630  33.001  0.00  0.00    +0.000 A 
BRANCH  14  21
ATOM     20  C   UNL     1      35.981  -8.642  33.089  0.00  0.00    +0.000 C 
ATOM     21  O   UNL     1      36.231  -7.260  32.959  0.00  0.00    +0.000 OA
ENDBRANCH  14  21
ENDBRANCH   8  19
ENDBRANCH   1  10
BRANCH   7  22
ATOM     22  C   UNL     1      34.210  -0.696  36.197  0.00  0.00    +0.000 A 
ATOM     23  N   UNL     1      34.409   0.429  35.507  0.00  0.00    +0.000 NA
ATOM     24  C   UNL     1      33.958   1.446  36.296  0.00  0.00    +0.000 A 
ATOM     25  N   UNL     1      33.524   0.852  37.395  0.00  0.00    +0.000 NA
ATOM     26  O   UNL     1      33.694  -0.423  37.291  0.00  0.00    +0.000 OA
BRANCH  24  27
ATOM     27  C   UNL     1      33.939   2.867  36.015  0.00  0.00    +0.000 A 
ATOM     28  C   UNL     1      33.945   3.301  34.731  0.00  0.00    +0.000 A 
ATOM     29  C   UNL     1      33.935   4.659  34.446  0.00  0.00    +0.000 A 
ATOM     30  C   UNL     1      33.918   5.567  35.469  0.00  0.00    +0.000 A 
ATOM     31  C   UNL     1      33.912   5.141  36.760  0.00  0.00    +0.000 A 
ATOM     32  C   UNL     1      33.922   3.791  37.035  0.00  0.00    +0.000 A 
ENDBRANCH  24  27
ENDBRANCH   7  22
TORSDOF 5
ENDMDL
MODEL 10
REMARK VINA RESULT:      -6.7      1.595      2.371
REMARK  Name = 
REMARK  5 active torsions:
REMARK  status: ('A' for Active; 'I' for Inactive)
REMARK    1  A    between atoms: O_2  and  C_3
REMARK    2  A    between atoms: C_8  and  N_9
REMARK    3  A    between atoms: C_11  and  C_12
REMARK    4  A    between atoms: C_18  and  C_19
REMARK    5  A    between atoms: C_21  and  C_22
REMARK                            x       y       z     vdW  Elec       q    Type
REMARK                         _______ _______ _______ _____ _____    ______ ____
ROOT
ATOM      1  C   UNL     1      18.371  10.192  37.074  0.00  0.00    +0.000 C 
ATOM      2  O   UNL     1      18.458  10.046  35.882  0.00  0.00    +0.000 OA
ATOM      3  N   UNL     1      19.495  10.180  37.886  0.00  0.00    +0.000 N 
ATOM      4  C   UNL     1      20.832  10.019  37.516  0.00  0.00    +0.000 C 
ATOM      5  C   UNL     1      21.450   9.271  38.660  0.00  0.00    +0.000 C 
ATOM      6  C   UNL     1      20.400   9.005  39.690  0.00  0.00    +0.000 C 
ATOM      7  C   UNL     1      19.413  10.350  39.436  0.00  0.00    +0.000 C 
ENDROOT
BRANCH   1  10
ATOM      8  N   UNL     1      16.461  11.403  35.709  0.00  0.00    +0.000 N 
ATOM      9  C   UNL     1      15.962  10.369  36.528  0.00  0.00    +0.000 C 
ATOM     10  C   UNL     1      16.969  10.408  37.826  0.00  0.00    +0.000 C 
ATOM     11  C   UNL     1      17.090  12.068  37.818  0.00  0.00    +0.000 C 
ATOM     12  C   UNL     1      17.333  12.290  36.381  0.00  0.00    +0.000 C 
ATOM     13  O   UNL     1      18.147  13.100  35.904  0.00  0.00    +0.000 OA
BRANCH   8  19
ATOM     14  C   UNL     1      15.065  12.365  33.991  0.00  0.00    +0.000 A 
ATOM     15  C   UNL     1      14.678  12.496  32.652  0.00  0.00    +0.000 A 
ATOM     16  C   UNL     1      15.326  11.776  31.662  0.00  0.00    +0.000 A 
ATOM     17  C   UNL     1      16.349  10.931  31.995  0.00  0.00    +0.000 A 
ATOM     18  C   UNL     1      16.702  10.826  33.311  0.00  0.00    +0.000 A 
ATOM     19  C   UNL     1      16.098  11.513  34.340  0.00  0.00    +0.000 A 
BRANCH  14  21
ATOM     20  C   UNL     1      13.527  14.111  34.570  0.00  0.00    +0.000 C 
ATOM     21  O   UNL     1      14.412  13.086  34.964  0.00  0.00    +0.000 OA
ENDBRANCH  14  21
ENDBRANCH   8  19
ENDBRANCH   1  10
BRANCH   7  22
ATOM     22  C   UNL     1      20.533  11.464  39.584  0.00  0.00    +0.000 A 
ATOM     23  N   UNL     1      20.210  12.672  39.119  0.00  0.00    +0.000 NA
ATOM     24  C   UNL     1      21.295  13.470  39.340  0.00  0.00    +0.000 A 
ATOM     25  N   UNL     1      22.181  12.678  39.920  0.00  0.00    +0.000 NA
ATOM     26  O   UNL     1      21.684  11.493  40.045  0.00  0.00    +0.000 OA
BRANCH  24  27
ATOM     27  C   UNL     1      21.461  14.874  39.027  0.00  0.00    +0.000 A 
ATOM     28  C   UNL     1      20.375  15.681  38.946  0.00  0.00    +0.000 A 
ATOM     29  C   UNL     1      20.518  17.027  38.640  0.00  0.00    +0.000 A 
ATOM     30  C   UNL     1      21.766  17.544  38.419  0.00  0.00    +0.000 A 
ATOM     31  C   UNL     1      22.861  16.742  38.498  0.00  0.00    +0.000 A 
ATOM     32  C   UNL     1      22.711  15.406  38.803  0.00  0.00    +0.000 A 
ENDBRANCH  24  27
ENDBRANCH   7  22
TORSDOF 5
ENDMDL
