MODEL 1
REMARK VINA RESULT:      -7.0      0.000      0.000
REMARK  Name = 
REMARK  4 active torsions:
REMARK  status: ('A' for Active; 'I' for Inactive)
REMARK    1  A    between atoms: C_7  and  O_8
REMARK    2  A    between atoms: O_8  and  C_9
REMARK    3  A    between atoms: N_11  and  C_12
REMARK    4  A    between atoms: C_16  and  N_17
REMARK                            x       y       z     vdW  Elec       q    Type
REMARK                         _______ _______ _______ _____ _____    ______ ____
ROOT
ATOM      1  C   UNL     1      16.701  10.679  34.765  0.00  0.00    +0.000 C 
ATOM      2  O   UNL     1      17.028  11.849  35.098  0.00  0.00    +0.000 OA
ATOM      3  N   UNL     1      17.195   9.556  35.476  0.00  0.00    +0.000 NA
ENDROOT
BRANCH   3   4
ATOM      4  C   UNL     1      18.069   9.793  36.574  0.00  0.00    +0.000 A 
ATOM      5  C   UNL     1      17.583   9.945  37.856  0.00  0.00    +0.000 A 
ATOM      6  C   UNL     1      18.439  10.176  38.932  0.00  0.00    +0.000 A 
ATOM      7  C   UNL     1      19.791  10.260  38.734  0.00  0.00    +0.000 A 
ATOM      8  C   UNL     1      20.292  10.113  37.479  0.00  0.00    +0.000 A 
ATOM      9  C   UNL     1      19.437   9.882  36.415  0.00  0.00    +0.000 A 
BRANCH   8  10
ATOM     10  N   UNL     1      21.683  10.193  37.245  0.00  0.00    +0.000 N 
ATOM     11  O   UNL     1      22.192   9.414  36.420  0.00  0.00    +0.000 OA
ATOM     12  O   UNL     1      22.470  11.102  37.904  0.00  0.00    +0.000 OA
ENDBRANCH   8  10
ENDBRANCH   3   4
BRANCH   1  13
ATOM     13  O   UNL     1      15.857  10.626  33.692  0.00  0.00    +0.000 OA
BRANCH  13  20
ATOM     14  C   UNL     1      14.255   9.952  31.937  0.00  0.00    +0.000 C 
ATOM     15  C   UNL     1      15.566  10.688  31.357  0.00  0.00    +0.000 C 
ATOM     16  C   UNL     1      14.750  11.730  30.448  0.00  0.00    +0.000 C 
ATOM     17  C   UNL     1      15.125  13.114  30.732  0.00  0.00    +0.000 C 
ATOM     18  C   UNL     1      14.413  13.529  32.006  0.00  0.00    +0.000 C 
ATOM     19  C   UNL     1      14.395  12.276  32.881  0.00  0.00    +0.000 C 
ATOM     20  C   UNL     1      15.904  11.723  32.657  0.00  0.00    +0.000 C 
ENDBRANCH  13  20
ENDBRANCH   1  13
TORSDOF 4
ENDMDL
MODEL 2
REMARK VINA RESULT:      -6.7      1.913      2.343
REMARK  Name = 
REMARK  4 active torsions:
REMARK  status: ('A' for Active; 'I' for Inactive)
REMARK    1  A    between atoms: C_7  and  O_8
REMARK    2  A    between atoms: O_8  and  C_9
REMARK    3  A    between atoms: N_11  and  C_12
REMARK    4  A    between atoms: C_16  and  N_17
REMARK                            x       y       z     vdW  Elec       q    Type
REMARK                         _______ _______ _______ _____ _____    ______ ____
ROOT
ATOM      1  C   UNL     1      16.731  10.654  34.634  0.00  0.00    +0.000 C 
ATOM      2  O   UNL     1      17.094  11.788  35.045  0.00  0.00    +0.000 OA
ATOM      3  N   UNL     1      17.262   9.471  35.205  0.00  0.00    +0.000 NA
ENDROOT
BRANCH   3   4
ATOM      4  C   UNL     1      18.215   9.605  36.253  0.00  0.00    +0.000 A 
ATOM      5  C   UNL     1      19.566   9.694  35.986  0.00  0.00    +0.000 A 
ATOM      6  C   UNL     1      20.500   9.826  37.013  0.00  0.00    +0.000 A 
ATOM      7  C   UNL     1      20.091   9.868  38.318  0.00  0.00    +0.000 A 
ATOM      8  C   UNL     1      18.765   9.782  38.605  0.00  0.00    +0.000 A 
ATOM      9  C   UNL     1      17.842   9.652  37.581  0.00  0.00    +0.000 A 
BRANCH   8  10
ATOM     10  N   UNL     1      18.313   9.824  39.943  0.00  0.00    +0.000 N 
ATOM     11  O   UNL     1      19.146  10.035  40.844  0.00  0.00    +0.000 OA
ATOM     12  O   UNL     1      16.993   9.638  40.261  0.00  0.00    +0.000 OA
ENDBRANCH   8  10
ENDBRANCH   3   4
BRANCH   1  13
ATOM     13  O   UNL     1      15.811  10.701  33.625  0.00  0.00    +0.000 OA
BRANCH  13  20
ATOM     14  C   UNL     1      14.292  10.043  31.791  0.00  0.00    +0.000 C 
ATOM     15  C   UNL     1      15.595  10.846  31.285  0.00  0.00    +0.000 C 
ATOM     16  C   UNL     1      14.773  11.895  30.390  0.00  0.00    +0.000 C 
ATOM     17  C   UNL     1      15.089  13.279  30.739  0.00  0.00    +0.000 C 
ATOM     18  C   UNL     1      14.321  13.618  32.004  0.00  0.00    +0.000 C 
ATOM     19  C   UNL     1      14.319  12.331  32.829  0.00  0.00    +0.000 C 
ATOM     20  C   UNL     1      15.853  11.839  32.636  0.00  0.00    +0.000 C 
ENDBRANCH  13  20
ENDBRANCH   1  13
TORSDOF 4
ENDMDL
MODEL 3
REMARK VINA RESULT:      -6.7      2.421      7.322
REMARK  Name = 
REMARK  4 active torsions:
REMARK  status: ('A' for Active; 'I' for Inactive)
REMARK    1  A    between atoms: C_7  and  O_8
REMARK    2  A    between atoms: O_8  and  C_9
REMARK    3  A    between atoms: N_11  and  C_12
REMARK    4  A    between atoms: C_16  and  N_17
REMARK                            x       y       z     vdW  Elec       q    Type
REMARK                         _______ _______ _______ _____ _____    ______ ____
ROOT
ATOM      1  C   UNL     1      16.447  10.736  35.532  0.00  0.00    +0.000 C 
ATOM      2  O   UNL     1      15.425  11.461  35.670  0.00  0.00    +0.000 OA
ATOM      3  N   UNL     1      16.859  10.299  34.249  0.00  0.00    +0.000 NA
ENDROOT
BRANCH   3   4
ATOM      4  C   UNL     1      16.085  10.703  33.125  0.00  0.00    +0.000 A 
ATOM      5  C   UNL     1      15.024   9.944  32.675  0.00  0.00    +0.000 A 
ATOM      6  C   UNL     1      14.265  10.341  31.575  0.00  0.00    +0.000 A 
ATOM      7  C   UNL     1      14.562  11.501  30.912  0.00  0.00    +0.000 A 
ATOM      8  C   UNL     1      15.603  12.265  31.338  0.00  0.00    +0.000 A 
ATOM      9  C   UNL     1      16.352  11.866  32.432  0.00  0.00    +0.000 A 
BRANCH   8  10
ATOM     10  N   UNL     1      15.932  13.468  30.674  0.00  0.00    +0.000 N 
ATOM     11  O   UNL     1      15.130  14.418  30.735  0.00  0.00    +0.000 OA
ATOM     12  O   UNL     1      17.102  13.604  29.975  0.00  0.00    +0.000 OA
ENDBRANCH   8  10
ENDBRANCH   3   4
BRANCH   1  13
ATOM     13  O   UNL     1      17.075  10.438  36.708  0.00  0.00    +0.000 OA
BRANCH  13  20
ATOM     14  C   UNL     1      17.768   9.461  38.869  0.00  0.00    +0.000 C 
ATOM     15  C   UNL     1      18.339  10.948  38.628  0.00  0.00    +0.000 C 
ATOM     16  C   UNL     1      19.858  10.574  38.990  0.00  0.00    +0.000 C 
ATOM     17  C   UNL     1      20.784  10.951  37.923  0.00  0.00    +0.000 C 
ATOM     18  C   UNL     1      20.687   9.893  36.839  0.00  0.00    +0.000 C 
ATOM     19  C   UNL     1      19.216   9.477  36.815  0.00  0.00    +0.000 C 
ATOM     20  C   UNL     1      18.485  10.921  36.938  0.00  0.00    +0.000 C 
ENDBRANCH  13  20
ENDBRANCH   1  13
TORSDOF 4
ENDMDL
MODEL 4
REMARK VINA RESULT:      -6.6     22.224     24.020
REMARK  Name = 
REMARK  4 active torsions:
REMARK  status: ('A' for Active; 'I' for Inactive)
REMARK    1  A    between atoms: C_7  and  O_8
REMARK    2  A    between atoms: O_8  and  C_9
REMARK    3  A    between atoms: N_11  and  C_12
REMARK    4  A    between atoms: C_16  and  N_17
REMARK                            x       y       z     vdW  Elec       q    Type
REMARK                         _______ _______ _______ _____ _____    ______ ____
ROOT
ATOM      1  C   UNL     1      29.725  26.127  20.412  0.00  0.00    +0.000 C 
ATOM      2  O   UNL     1      29.308  26.980  21.241  0.00  0.00    +0.000 OA
ATOM      3  N   UNL     1      29.662  24.742  20.702  0.00  0.00    +0.000 NA
ENDROOT
BRANCH   3   4
ATOM      4  C   UNL     1      29.115  24.346  21.954  0.00  0.00    +0.000 A 
ATOM      5  C   UNL     1      29.875  24.363  23.106  0.00  0.00    +0.000 A 
ATOM      6  C   UNL     1      29.339  23.976  24.333  0.00  0.00    +0.000 A 
ATOM      7  C   UNL     1      28.036  23.565  24.420  0.00  0.00    +0.000 A 
ATOM      8  C   UNL     1      27.269  23.540  23.298  0.00  0.00    +0.000 A 
ATOM      9  C   UNL     1      27.806  23.927  22.082  0.00  0.00    +0.000 A 
BRANCH   8  10
ATOM     10  N   UNL     1      25.921  23.121  23.357  0.00  0.00    +0.000 N 
ATOM     11  O   UNL     1      25.352  23.105  24.464  0.00  0.00    +0.000 OA
ATOM     12  O   UNL     1      25.238  22.738  22.232  0.00  0.00    +0.000 OA
ENDBRANCH   8  10
ENDBRANCH   3   4
BRANCH   1  13
ATOM     13  O   UNL     1      30.219  26.673  19.261  0.00  0.00    +0.000 OA
BRANCH  13  20
ATOM     14  C   UNL     1      31.911  27.841  17.891  0.00  0.00    +0.000 C 
ATOM     15  C   UNL     1      30.852  28.838  18.586  0.00  0.00    +0.000 C 
ATOM     16  C   UNL     1      30.508  29.638  17.237  0.00  0.00    +0.000 C 
ATOM     17  C   UNL     1      29.072  29.655  16.963  0.00  0.00    +0.000 C 
ATOM     18  C   UNL     1      28.704  28.309  16.365  0.00  0.00    +0.000 C 
ATOM     19  C   UNL     1      29.595  27.295  17.083  0.00  0.00    +0.000 C 
ATOM     20  C   UNL     1      29.492  27.825  18.614  0.00  0.00    +0.000 C 
ENDBRANCH  13  20
ENDBRANCH   1  13
TORSDOF 4
ENDMDL
MODEL 5
REMARK VINA RESULT:      -6.5      2.421      7.532
REMARK  Name = 
REMARK  4 active torsions:
REMARK  status: ('A' for Active; 'I' for Inactive)
REMARK    1  A    between atoms: C_7  and  O_8
REMARK    2  A    between atoms: O_8  and  C_9
REMARK    3  A    between atoms: N_11  and  C_12
REMARK    4  A    between atoms: C_16  and  N_17
REMARK                            x       y       z     vdW  Elec       q    Type
REMARK                         _______ _______ _______ _____ _____    ______ ____
ROOT
ATOM      1  C   UNL     1      17.039  11.285  35.508  0.00  0.00    +0.000 C 
ATOM      2  O   UNL     1      15.918  11.799  35.767  0.00  0.00    +0.000 OA
ATOM      3  N   UNL     1      17.354  10.856  34.194  0.00  0.00    +0.000 NA
ENDROOT
BRANCH   3   4
ATOM      4  C   UNL     1      16.368  11.024  33.182  0.00  0.00    +0.000 A 
ATOM      5  C   UNL     1      15.491  10.008  32.861  0.00  0.00    +0.000 A 
ATOM      6  C   UNL     1      14.525  10.173  31.869  0.00  0.00    +0.000 A 
ATOM      7  C   UNL     1      14.428  11.357  31.188  0.00  0.00    +0.000 A 
ATOM      8  C   UNL     1      15.282  12.371  31.488  0.00  0.00    +0.000 A 
ATOM      9  C   UNL     1      16.238  12.202  32.475  0.00  0.00    +0.000 A 
BRANCH   8  10
ATOM     10  N   UNL     1      15.205  13.604  30.802  0.00  0.00    +0.000 N 
ATOM     11  O   UNL     1      16.054  13.850  29.927  0.00  0.00    +0.000 OA
ATOM     12  O   UNL     1      14.223  14.519  31.081  0.00  0.00    +0.000 OA
ENDBRANCH   8  10
ENDBRANCH   3   4
BRANCH   1  13
ATOM     13  O   UNL     1      17.868  11.196  36.589  0.00  0.00    +0.000 OA
BRANCH  13  20
ATOM     14  C   UNL     1      19.773  11.468  38.139  0.00  0.00    +0.000 C 
ATOM     15  C   UNL     1      19.651   9.980  37.531  0.00  0.00    +0.000 C 
ATOM     16  C   UNL     1      19.756   9.241  38.953  0.00  0.00    +0.000 C 
ATOM     17  C   UNL     1      18.632   8.335  39.182  0.00  0.00    +0.000 C 
ATOM     18  C   UNL     1      17.443   9.178  39.607  0.00  0.00    +0.000 C 
ATOM     19  C   UNL     1      17.564  10.473  38.804  0.00  0.00    +0.000 C 
ATOM     20  C   UNL     1      17.968   9.893  37.343  0.00  0.00    +0.000 C 
ENDBRANCH  13  20
ENDBRANCH   1  13
TORSDOF 4
ENDMDL
MODEL 6
REMARK VINA RESULT:      -6.1      2.989      7.601
REMARK  Name = 
REMARK  4 active torsions:
REMARK  status: ('A' for Active; 'I' for Inactive)
REMARK    1  A    between atoms: C_7  and  O_8
REMARK    2  A    between atoms: O_8  and  C_9
REMARK    3  A    between atoms: N_11  and  C_12
REMARK    4  A    between atoms: C_16  and  N_17
REMARK                            x       y       z     vdW  Elec       q    Type
REMARK                         _______ _______ _______ _____ _____    ______ ____
ROOT
ATOM      1  C   UNL     1      20.084  10.921  37.963  0.00  0.00    +0.000 C 
ATOM      2  O   UNL     1      19.771  12.120  38.189  0.00  0.00    +0.000 OA
ATOM      3  N   UNL     1      19.131  10.006  37.450  0.00  0.00    +0.000 NA
ENDROOT
BRANCH   3   4
ATOM      4  C   UNL     1      17.814  10.484  37.200  0.00  0.00    +0.000 A 
ATOM      5  C   UNL     1      16.871  10.545  38.205  0.00  0.00    +0.000 A 
ATOM      6  C   UNL     1      15.581  11.013  37.961  0.00  0.00    +0.000 A 
ATOM      7  C   UNL     1      15.221  11.424  36.705  0.00  0.00    +0.000 A 
ATOM      8  C   UNL     1      16.134  11.372  35.699  0.00  0.00    +0.000 A 
ATOM      9  C   UNL     1      17.414  10.907  35.949  0.00  0.00    +0.000 A 
BRANCH   8  10
ATOM     10  N   UNL     1      15.791  11.790  34.394  0.00  0.00    +0.000 N 
ATOM     11  O   UNL     1      14.768  12.482  34.242  0.00  0.00    +0.000 OA
ATOM     12  O   UNL     1      16.556  11.452  33.309  0.00  0.00    +0.000 OA
ENDBRANCH   8  10
ENDBRANCH   3   4
BRANCH   1  13
ATOM     13  O   UNL     1      21.385  10.626  38.257  0.00  0.00    +0.000 OA
BRANCH  13  20
ATOM     14  C   UNL     1      23.518  10.034  39.354  0.00  0.00    +0.000 C 
ATOM     15  C   UNL     1      23.631  11.320  38.389  0.00  0.00    +0.000 C 
ATOM     16  C   UNL     1      24.922  10.787  37.597  0.00  0.00    +0.000 C 
ATOM     17  C   UNL     1      24.707  10.767  36.151  0.00  0.00    +0.000 C 
ATOM     18  C   UNL     1      23.886   9.533  35.827  0.00  0.00    +0.000 C 
ATOM     19  C   UNL     1      22.925   9.370  37.004  0.00  0.00    +0.000 C 
ATOM     20  C   UNL     1      22.458  10.907  37.235  0.00  0.00    +0.000 C 
ENDBRANCH  13  20
ENDBRANCH   1  13
TORSDOF 4
ENDMDL
MODEL 7
REMARK VINA RESULT:      -5.9     22.162     23.939
REMARK  Name = 
REMARK  4 active torsions:
REMARK  status: ('A' for Active; 'I' for Inactive)
REMARK    1  A    between atoms: C_7  and  O_8
REMARK    2  A    between atoms: O_8  and  C_9
REMARK    3  A    between atoms: N_11  and  C_12
REMARK    4  A    between atoms: C_16  and  N_17
REMARK                            x       y       z     vdW  Elec       q    Type
REMARK                         _______ _______ _______ _____ _____    ______ ____
ROOT
ATOM      1  C   UNL     1      29.627  26.148  20.432  0.00  0.00    +0.000 C 
ATOM      2  O   UNL     1      29.049  26.947  21.217  0.00  0.00    +0.000 OA
ATOM      3  N   UNL     1      29.568  24.748  20.648  0.00  0.00    +0.000 NA
ENDROOT
BRANCH   3   4
ATOM      4  C   UNL     1      28.839  24.276  21.774  0.00  0.00    +0.000 A 
ATOM      5  C   UNL     1      27.459  24.291  21.792  0.00  0.00    +0.000 A 
ATOM      6  C   UNL     1      26.744  23.828  22.896  0.00  0.00    +0.000 A 
ATOM      7  C   UNL     1      27.404  23.347  23.995  0.00  0.00    +0.000 A 
ATOM      8  C   UNL     1      28.763  23.324  23.999  0.00  0.00    +0.000 A 
ATOM      9  C   UNL     1      29.467  23.783  22.900  0.00  0.00    +0.000 A 
BRANCH   8  10
ATOM     10  N   UNL     1      29.471  22.832  25.119  0.00  0.00    +0.000 N 
ATOM     11  O   UNL     1      30.714  22.827  25.080  0.00  0.00    +0.000 OA
ATOM     12  O   UNL     1      28.819  22.366  26.231  0.00  0.00    +0.000 OA
ENDBRANCH   8  10
ENDBRANCH   3   4
BRANCH   1  13
ATOM     13  O   UNL     1      30.282  26.763  19.403  0.00  0.00    +0.000 OA
BRANCH  13  20
ATOM     14  C   UNL     1      32.030  27.820  18.014  0.00  0.00    +0.000 C 
ATOM     15  C   UNL     1      30.925  28.862  18.554  0.00  0.00    +0.000 C 
ATOM     16  C   UNL     1      30.645  29.522  17.118  0.00  0.00    +0.000 C 
ATOM     17  C   UNL     1      29.225  29.490  16.769  0.00  0.00    +0.000 C 
ATOM     18  C   UNL     1      28.904  28.087  16.287  0.00  0.00    +0.000 C 
ATOM     19  C   UNL     1      29.767  27.161  17.146  0.00  0.00    +0.000 C 
ATOM     20  C   UNL     1      29.577  27.835  18.610  0.00  0.00    +0.000 C 
ENDBRANCH  13  20
ENDBRANCH   1  13
TORSDOF 4
ENDMDL
MODEL 8
REMARK VINA RESULT:      -5.9      2.438      7.531
REMARK  Name = 
REMARK  4 active torsions:
REMARK  status: ('A' for Active; 'I' for Inactive)
REMARK    1  A    between atoms: C_7  and  O_8
REMARK    2  A    between atoms: O_8  and  C_9
REMARK    3  A    between atoms: N_11  and  C_12
REMARK    4  A    between atoms: C_16  and  N_17
REMARK                            x       y       z     vdW  Elec       q    Type
REMARK                         _______ _______ _______ _____ _____    ______ ____
ROOT
ATOM      1  C   UNL     1      17.896  10.412  37.004  0.00  0.00    +0.000 C 
ATOM      2  O   UNL     1      17.256   9.457  36.489  0.00  0.00    +0.000 OA
ATOM      3  N   UNL     1      17.653  11.749  36.601  0.00  0.00    +0.000 NA
ENDROOT
BRANCH   3   4
ATOM      4  C   UNL     1      16.668  11.977  35.600  0.00  0.00    +0.000 A 
ATOM      5  C   UNL     1      15.451  12.549  35.910  0.00  0.00    +0.000 A 
ATOM      6  C   UNL     1      14.486  12.773  34.930  0.00  0.00    +0.000 A 
ATOM      7  C   UNL     1      14.728  12.424  33.628  0.00  0.00    +0.000 A 
ATOM      8  C   UNL     1      15.920  11.859  33.300  0.00  0.00    +0.000 A 
ATOM      9  C   UNL     1      16.875  11.641  34.278  0.00  0.00    +0.000 A 
BRANCH   8  10
ATOM     10  N   UNL     1      16.198  11.490  31.965  0.00  0.00    +0.000 N 
ATOM     11  O   UNL     1      16.396  10.288  31.710  0.00  0.00    +0.000 OA
ATOM     12  O   UNL     1      16.254  12.421  30.961  0.00  0.00    +0.000 OA
ENDBRANCH   8  10
ENDBRANCH   3   4
BRANCH   1  13
ATOM     13  O   UNL     1      18.803  10.023  37.948  0.00  0.00    +0.000 OA
BRANCH  13  20
ATOM     14  C   UNL     1      19.900  10.476  40.114  0.00  0.00    +0.000 C 
ATOM     15  C   UNL     1      19.959   8.925  39.680  0.00  0.00    +0.000 C 
ATOM     16  C   UNL     1      19.420   8.368  41.086  0.00  0.00    +0.000 C 
ATOM     17  C   UNL     1      18.254   7.502  40.920  0.00  0.00    +0.000 C 
ATOM     18  C   UNL     1      17.046   8.396  40.709  0.00  0.00    +0.000 C 
ATOM     19  C   UNL     1      17.563   9.582  39.893  0.00  0.00    +0.000 C 
ATOM     20  C   UNL     1      18.506   8.823  38.812  0.00  0.00    +0.000 C 
ENDBRANCH  13  20
ENDBRANCH   1  13
TORSDOF 4
ENDMDL
MODEL 9
REMARK VINA RESULT:      -5.8     21.214     22.595
REMARK  Name = 
REMARK  4 active torsions:
REMARK  status: ('A' for Active; 'I' for Inactive)
REMARK    1  A    between atoms: C_7  and  O_8
REMARK    2  A    between atoms: O_8  and  C_9
REMARK    3  A    between atoms: N_11  and  C_12
REMARK    4  A    between atoms: C_16  and  N_17
REMARK                            x       y       z     vdW  Elec       q    Type
REMARK                         _______ _______ _______ _____ _____    ______ ____
ROOT
ATOM      1  C   UNL     1      21.719  -9.254  24.292  0.00  0.00    +0.000 C 
ATOM      2  O   UNL     1      20.619  -9.738  23.912  0.00  0.00    +0.000 OA
ATOM      3  N   UNL     1      21.833  -8.614  25.552  0.00  0.00    +0.000 NA
ENDROOT
BRANCH   3   4
ATOM      4  C   UNL     1      20.671  -8.536  26.369  0.00  0.00    +0.000 A 
ATOM      5  C   UNL     1      20.376  -9.521  27.290  0.00  0.00    +0.000 A 
ATOM      6  C   UNL     1      19.238  -9.445  28.092  0.00  0.00    +0.000 A 
ATOM      7  C   UNL     1      18.382  -8.382  27.978  0.00  0.00    +0.000 A 
ATOM      8  C   UNL     1      18.653  -7.401  27.077  0.00  0.00    +0.000 A 
ATOM      9  C   UNL     1      19.785  -7.481  26.285  0.00  0.00    +0.000 A 
BRANCH   8  10
ATOM     10  N   UNL     1      17.788  -6.292  26.939  0.00  0.00    +0.000 N 
ATOM     11  O   UNL     1      16.586  -6.437  27.229  0.00  0.00    +0.000 OA
ATOM     12  O   UNL     1      18.244  -5.078  26.497  0.00  0.00    +0.000 OA
ENDBRANCH   8  10
ENDBRANCH   3   4
BRANCH   1  13
ATOM     13  O   UNL     1      22.733  -9.412  23.391  0.00  0.00    +0.000 OA
BRANCH  13  20
ATOM     14  C   UNL     1      23.957  -9.293  21.248  0.00  0.00    +0.000 C 
ATOM     15  C   UNL     1      24.873  -9.780  22.482  0.00  0.00    +0.000 C 
ATOM     16  C   UNL     1      26.061  -8.740  22.191  0.00  0.00    +0.000 C 
ATOM     17  C   UNL     1      26.379  -7.930  23.366  0.00  0.00    +0.000 C 
ATOM     18  C   UNL     1      25.328  -6.840  23.469  0.00  0.00    +0.000 C 
ATOM     19  C   UNL     1      24.027  -7.492  22.999  0.00  0.00    +0.000 C 
ATOM     20  C   UNL     1      24.119  -8.932  23.742  0.00  0.00    +0.000 C 
ENDBRANCH  13  20
ENDBRANCH   1  13
TORSDOF 4
ENDMDL
MODEL 10
REMARK VINA RESULT:      -5.8     20.359     23.215
REMARK  Name = 
REMARK  4 active torsions:
REMARK  status: ('A' for Active; 'I' for Inactive)
REMARK    1  A    between atoms: C_7  and  O_8
REMARK    2  A    between atoms: O_8  and  C_9
REMARK    3  A    between atoms: N_11  and  C_12
REMARK    4  A    between atoms: C_16  and  N_17
REMARK                            x       y       z     vdW  Elec       q    Type
REMARK                         _______ _______ _______ _____ _____    ______ ____
ROOT
ATOM      1  C   UNL     1      33.899  -4.806  32.742  0.00  0.00    +0.000 C 
ATOM      2  O   UNL     1      34.577  -5.857  32.896  0.00  0.00    +0.000 OA
ATOM      3  N   UNL     1      33.192  -4.568  31.536  0.00  0.00    +0.000 NA
ENDROOT
BRANCH   3   4
ATOM      4  C   UNL     1      33.272  -5.551  30.510  0.00  0.00    +0.000 A 
ATOM      5  C   UNL     1      34.202  -5.453  29.496  0.00  0.00    +0.000 A 
ATOM      6  C   UNL     1      34.282  -6.416  28.491  0.00  0.00    +0.000 A 
ATOM      7  C   UNL     1      33.429  -7.487  28.490  0.00  0.00    +0.000 A 
ATOM      8  C   UNL     1      32.504  -7.603  29.480  0.00  0.00    +0.000 A 
ATOM      9  C   UNL     1      32.431  -6.645  30.476  0.00  0.00    +0.000 A 
BRANCH   8  10
ATOM     10  N   UNL     1      31.611  -8.698  29.506  0.00  0.00    +0.000 N 
ATOM     11  O   UNL     1      31.166  -9.076  30.605  0.00  0.00    +0.000 OA
ATOM     12  O   UNL     1      31.233  -9.342  28.357  0.00  0.00    +0.000 OA
ENDBRANCH   8  10
ENDBRANCH   3   4
BRANCH   1  13
ATOM     13  O   UNL     1      33.927  -3.968  33.820  0.00  0.00    +0.000 OA
BRANCH  13  20
ATOM     14  C   UNL     1      33.032  -3.389  36.049  0.00  0.00    +0.000 C 
ATOM     15  C   UNL     1      32.153  -2.799  34.834  0.00  0.00    +0.000 C 
ATOM     16  C   UNL     1      32.103  -1.302  35.413  0.00  0.00    +0.000 C 
ATOM     17  C   UNL     1      32.578  -0.322  34.437  0.00  0.00    +0.000 C 
ATOM     18  C   UNL     1      34.095  -0.370  34.441  0.00  0.00    +0.000 C 
ATOM     19  C   UNL     1      34.449  -1.840  34.668  0.00  0.00    +0.000 C 
ATOM     20  C   UNL     1      33.380  -2.569  33.687  0.00  0.00    +0.000 C 
ENDBRANCH  13  20
ENDBRANCH   1  13
TORSDOF 4
ENDMDL
