MODEL 1
REMARK VINA RESULT:      -7.1      0.000      0.000
REMARK  Name = 
REMARK  2 active torsions:
REMARK  status: ('A' for Active; 'I' for Inactive)
REMARK    1  A    between atoms: C_4  and  C_5
REMARK    2  A    between atoms: N_15  and  C_16
REMARK                            x       y       z     vdW  Elec       q    Type
REMARK                         _______ _______ _______ _____ _____    ______ ____
ROOT
ATOM      1  C   UNL     1      14.065  12.765  35.601  0.00  0.00    +0.000 C 
ATOM      2  C   UNL     1      15.187  11.819  35.933  0.00  0.00    +0.000 A 
ATOM      3  C   UNL     1      15.671  11.498  37.181  0.00  0.00    +0.000 A 
ATOM      4  C   UNL     1      16.721  10.587  37.058  0.00  0.00    +0.000 A 
ATOM      5  C   UNL     1      16.835  10.386  35.697  0.00  0.00    +0.000 A 
ATOM      6  C   UNL     1      17.819   9.495  35.058  0.00  0.00    +0.000 C 
ATOM      7  N   UNL     1      15.927  11.115  35.026  0.00  0.00    +0.000 N 
ENDROOT
BRANCH   4   8
ATOM      8  C   UNL     1      17.459   9.990  38.159  0.00  0.00    +0.000 C 
ATOM      9  C   UNL     1      18.545  10.533  38.700  0.00  0.00    +0.000 C 
ATOM     10  N   UNL     1      19.339  10.056  39.759  0.00  0.00    +0.000 NA
ATOM     11  C   UNL     1      20.401  10.961  40.069  0.00  0.00    +0.000 C 
ATOM     12  O   UNL     1      21.289  10.828  40.963  0.00  0.00    +0.000 OA
ATOM     13  N   UNL     1      20.244  12.042  39.152  0.00  0.00    +0.000 NA
ATOM     14  C   UNL     1      19.108  11.794  38.305  0.00  0.00    +0.000 C 
ATOM     15  O   UNL     1      18.752  12.597  37.409  0.00  0.00    +0.000 OA
ENDBRANCH   4   8
BRANCH   7  16
ATOM     16  C   UNL     1      15.676  11.197  33.626  0.00  0.00    +0.000 A 
ATOM     17  C   UNL     1      16.241  12.132  32.806  0.00  0.00    +0.000 A 
ATOM     18  C   UNL     1      15.974  12.177  31.453  0.00  0.00    +0.000 A 
ATOM     19  C   UNL     1      15.119  11.267  30.884  0.00  0.00    +0.000 A 
ATOM     20  C   UNL     1      14.533  10.315  31.673  0.00  0.00    +0.000 A 
ATOM     21  C   UNL     1      14.804  10.276  33.022  0.00  0.00    +0.000 A 
ENDBRANCH   7  16
TORSDOF 2
ENDMDL
MODEL 2
REMARK VINA RESULT:      -6.0     20.480     22.395
REMARK  Name = 
REMARK  2 active torsions:
REMARK  status: ('A' for Active; 'I' for Inactive)
REMARK    1  A    between atoms: C_4  and  C_5
REMARK    2  A    between atoms: N_15  and  C_16
REMARK                            x       y       z     vdW  Elec       q    Type
REMARK                         _______ _______ _______ _____ _____    ______ ____
ROOT
ATOM      1  C   UNL     1      26.702   2.408  16.246  0.00  0.00    +0.000 C 
ATOM      2  C   UNL     1      25.351   2.615  16.875  0.00  0.00    +0.000 A 
ATOM      3  C   UNL     1      24.292   1.735  16.896  0.00  0.00    +0.000 A 
ATOM      4  C   UNL     1      23.217   2.309  17.575  0.00  0.00    +0.000 A 
ATOM      5  C   UNL     1      23.681   3.554  17.950  0.00  0.00    +0.000 A 
ATOM      6  C   UNL     1      22.900   4.552  18.702  0.00  0.00    +0.000 C 
ATOM      7  N   UNL     1      24.947   3.739  17.538  0.00  0.00    +0.000 N 
ENDROOT
BRANCH   4   8
ATOM      8  C   UNL     1      21.937   1.670  17.831  0.00  0.00    +0.000 C 
ATOM      9  C   UNL     1      20.892   1.756  17.015  0.00  0.00    +0.000 C 
ATOM     10  N   UNL     1      19.612   1.188  17.152  0.00  0.00    +0.000 NA
ATOM     11  C   UNL     1      18.781   1.487  16.028  0.00  0.00    +0.000 C 
ATOM     12  O   UNL     1      17.579   1.129  15.843  0.00  0.00    +0.000 OA
ATOM     13  N   UNL     1      19.597   2.277  15.165  0.00  0.00    +0.000 NA
ATOM     14  C   UNL     1      20.896   2.451  15.757  0.00  0.00    +0.000 C 
ATOM     15  O   UNL     1      21.806   3.108  15.196  0.00  0.00    +0.000 OA
ENDBRANCH   4   8
BRANCH   7  16
ATOM     16  C   UNL     1      25.814   4.854  17.722  0.00  0.00    +0.000 A 
ATOM     17  C   UNL     1      25.842   5.940  16.892  0.00  0.00    +0.000 A 
ATOM     18  C   UNL     1      26.696   7.003  17.107  0.00  0.00    +0.000 A 
ATOM     19  C   UNL     1      27.553   6.999  18.178  0.00  0.00    +0.000 A 
ATOM     20  C   UNL     1      27.554   5.930  19.031  0.00  0.00    +0.000 A 
ATOM     21  C   UNL     1      26.699   4.872  18.812  0.00  0.00    +0.000 A 
ENDBRANCH   7  16
TORSDOF 2
ENDMDL
MODEL 3
REMARK VINA RESULT:      -5.9     18.760     20.869
REMARK  Name = 
REMARK  2 active torsions:
REMARK  status: ('A' for Active; 'I' for Inactive)
REMARK    1  A    between atoms: C_4  and  C_5
REMARK    2  A    between atoms: N_15  and  C_16
REMARK                            x       y       z     vdW  Elec       q    Type
REMARK                         _______ _______ _______ _____ _____    ______ ____
ROOT
ATOM      1  C   UNL     1      31.580  25.563  28.154  0.00  0.00    +0.000 C 
ATOM      2  C   UNL     1      30.352  24.844  27.667  0.00  0.00    +0.000 A 
ATOM      3  C   UNL     1      29.394  25.317  26.798  0.00  0.00    +0.000 A 
ATOM      4  C   UNL     1      28.412  24.343  26.606  0.00  0.00    +0.000 A 
ATOM      5  C   UNL     1      28.828  23.287  27.391  0.00  0.00    +0.000 A 
ATOM      6  C   UNL     1      28.111  22.006  27.525  0.00  0.00    +0.000 C 
ATOM      7  N   UNL     1      29.978  23.579  28.021  0.00  0.00    +0.000 N 
ENDROOT
BRANCH   4   8
ATOM      8  C   UNL     1      27.259  24.464  25.730  0.00  0.00    +0.000 C 
ATOM      9  C   UNL     1      27.250  24.067  24.461  0.00  0.00    +0.000 C 
ATOM     10  N   UNL     1      26.205  24.132  23.521  0.00  0.00    +0.000 NA
ATOM     11  C   UNL     1      26.589  23.558  22.269  0.00  0.00    +0.000 C 
ATOM     12  O   UNL     1      25.884  23.460  21.220  0.00  0.00    +0.000 OA
ATOM     13  N   UNL     1      27.934  23.123  22.459  0.00  0.00    +0.000 NA
ATOM     14  C   UNL     1      28.354  23.429  23.800  0.00  0.00    +0.000 C 
ATOM     15  O   UNL     1      29.501  23.147  24.224  0.00  0.00    +0.000 OA
ENDBRANCH   4   8
BRANCH   7  16
ATOM     16  C   UNL     1      30.765  22.783  28.902  0.00  0.00    +0.000 A 
ATOM     17  C   UNL     1      31.822  22.018  28.495  0.00  0.00    +0.000 A 
ATOM     18  C   UNL     1      32.562  21.261  29.381  0.00  0.00    +0.000 A 
ATOM     19  C   UNL     1      32.251  21.257  30.718  0.00  0.00    +0.000 A 
ATOM     20  C   UNL     1      31.199  22.010  31.163  0.00  0.00    +0.000 A 
ATOM     21  C   UNL     1      30.465  22.763  30.273  0.00  0.00    +0.000 A 
ENDBRANCH   7  16
TORSDOF 2
ENDMDL
MODEL 4
REMARK VINA RESULT:      -5.9     21.200     23.200
REMARK  Name = 
REMARK  2 active torsions:
REMARK  status: ('A' for Active; 'I' for Inactive)
REMARK    1  A    between atoms: C_4  and  C_5
REMARK    2  A    between atoms: N_15  and  C_16
REMARK                            x       y       z     vdW  Elec       q    Type
REMARK                         _______ _______ _______ _____ _____    ______ ____
ROOT
ATOM      1  C   UNL     1      32.579  27.504  25.305  0.00  0.00    +0.000 C 
ATOM      2  C   UNL     1      31.690  26.292  25.368  0.00  0.00    +0.000 A 
ATOM      3  C   UNL     1      30.316  26.256  25.300  0.00  0.00    +0.000 A 
ATOM      4  C   UNL     1      29.874  24.936  25.402  0.00  0.00    +0.000 A 
ATOM      5  C   UNL     1      31.036  24.202  25.532  0.00  0.00    +0.000 A 
ATOM      6  C   UNL     1      31.092  22.736  25.675  0.00  0.00    +0.000 C 
ATOM      7  N   UNL     1      32.115  25.002  25.511  0.00  0.00    +0.000 N 
ENDROOT
BRANCH   4   8
ATOM      8  C   UNL     1      28.490  24.498  25.336  0.00  0.00    +0.000 C 
ATOM      9  C   UNL     1      27.900  24.078  24.222  0.00  0.00    +0.000 C 
ATOM     10  N   UNL     1      26.578  23.634  24.033  0.00  0.00    +0.000 NA
ATOM     11  C   UNL     1      26.348  23.228  22.682  0.00  0.00    +0.000 C 
ATOM     12  O   UNL     1      25.270  22.782  22.186  0.00  0.00    +0.000 OA
ATOM     13  N   UNL     1      27.592  23.436  22.017  0.00  0.00    +0.000 NA
ATOM     14  C   UNL     1      28.555  23.958  22.949  0.00  0.00    +0.000 C 
ATOM     15  O   UNL     1      29.734  24.227  22.615  0.00  0.00    +0.000 OA
ENDBRANCH   4   8
BRANCH   7  16
ATOM     16  C   UNL     1      33.498  24.671  25.593  0.00  0.00    +0.000 A 
ATOM     17  C   UNL     1      34.283  24.411  24.505  0.00  0.00    +0.000 A 
ATOM     18  C   UNL     1      35.622  24.097  24.626  0.00  0.00    +0.000 A 
ATOM     19  C   UNL     1      36.211  24.037  25.864  0.00  0.00    +0.000 A 
ATOM     20  C   UNL     1      35.458  24.291  26.977  0.00  0.00    +0.000 A 
ATOM     21  C   UNL     1      34.123  24.605  26.849  0.00  0.00    +0.000 A 
ENDBRANCH   7  16
TORSDOF 2
ENDMDL
MODEL 5
REMARK VINA RESULT:      -5.9      3.816      6.525
REMARK  Name = 
REMARK  2 active torsions:
REMARK  status: ('A' for Active; 'I' for Inactive)
REMARK    1  A    between atoms: C_4  and  C_5
REMARK    2  A    between atoms: N_15  and  C_16
REMARK                            x       y       z     vdW  Elec       q    Type
REMARK                         _______ _______ _______ _____ _____    ______ ____
ROOT
ATOM      1  C   UNL     1      17.343   9.974  37.268  0.00  0.00    +0.000 C 
ATOM      2  C   UNL     1      18.425  10.562  38.131  0.00  0.00    +0.000 A 
ATOM      3  C   UNL     1      19.205  11.665  37.862  0.00  0.00    +0.000 A 
ATOM      4  C   UNL     1      20.097  11.878  38.914  0.00  0.00    +0.000 A 
ATOM      5  C   UNL     1      19.813  10.865  39.806  0.00  0.00    +0.000 A 
ATOM      6  C   UNL     1      20.501  10.660  41.093  0.00  0.00    +0.000 C 
ATOM      7  N   UNL     1      18.822  10.082  39.347  0.00  0.00    +0.000 N 
ENDROOT
BRANCH   4   8
ATOM      8  C   UNL     1      21.055  12.968  39.005  0.00  0.00    +0.000 C 
ATOM      9  C   UNL     1      22.307  12.889  38.567  0.00  0.00    +0.000 C 
ATOM     10  N   UNL     1      23.319  13.865  38.599  0.00  0.00    +0.000 NA
ATOM     11  C   UNL     1      24.522  13.396  37.985  0.00  0.00    +0.000 C 
ATOM     12  O   UNL     1      25.614  14.025  37.852  0.00  0.00    +0.000 OA
ATOM     13  N   UNL     1      24.224  12.068  37.558  0.00  0.00    +0.000 NA
ATOM     14  C   UNL     1      22.868  11.741  37.908  0.00  0.00    +0.000 C 
ATOM     15  O   UNL     1      22.356  10.627  37.642  0.00  0.00    +0.000 OA
ENDBRANCH   4   8
BRANCH   7  16
ATOM     16  C   UNL     1      18.203   8.947  39.944  0.00  0.00    +0.000 A 
ATOM     17  C   UNL     1      18.687   7.674  39.839  0.00  0.00    +0.000 A 
ATOM     18  C   UNL     1      18.059   6.599  40.435  0.00  0.00    +0.000 A 
ATOM     19  C   UNL     1      16.910   6.784  41.163  0.00  0.00    +0.000 A 
ATOM     20  C   UNL     1      16.394   8.044  41.290  0.00  0.00    +0.000 A 
ATOM     21  C   UNL     1      17.027   9.112  40.693  0.00  0.00    +0.000 A 
ENDBRANCH   7  16
TORSDOF 2
ENDMDL
MODEL 6
REMARK VINA RESULT:      -5.8     18.747     20.869
REMARK  Name = 
REMARK  2 active torsions:
REMARK  status: ('A' for Active; 'I' for Inactive)
REMARK    1  A    between atoms: C_4  and  C_5
REMARK    2  A    between atoms: N_15  and  C_16
REMARK                            x       y       z     vdW  Elec       q    Type
REMARK                         _______ _______ _______ _____ _____    ______ ____
ROOT
ATOM      1  C   UNL     1      24.314  25.556  27.227  0.00  0.00    +0.000 C 
ATOM      2  C   UNL     1      25.380  24.869  26.417  0.00  0.00    +0.000 A 
ATOM      3  C   UNL     1      25.449  24.760  25.046  0.00  0.00    +0.000 A 
ATOM      4  C   UNL     1      26.591  24.042  24.689  0.00  0.00    +0.000 A 
ATOM      5  C   UNL     1      27.187  23.736  25.896  0.00  0.00    +0.000 A 
ATOM      6  C   UNL     1      28.440  22.974  26.046  0.00  0.00    +0.000 C 
ATOM      7  N   UNL     1      26.473  24.225  26.923  0.00  0.00    +0.000 N 
ENDROOT
BRANCH   4   8
ATOM      8  C   UNL     1      27.020  23.753  23.331  0.00  0.00    +0.000 C 
ATOM      9  C   UNL     1      27.856  24.522  22.640  0.00  0.00    +0.000 C 
ATOM     10  N   UNL     1      28.340  24.350  21.330  0.00  0.00    +0.000 NA
ATOM     11  C   UNL     1      29.258  25.385  20.970  0.00  0.00    +0.000 C 
ATOM     12  O   UNL     1      29.868  25.522  19.867  0.00  0.00    +0.000 OA
ATOM     13  N   UNL     1      29.335  26.227  22.118  0.00  0.00    +0.000 NA
ATOM     14  C   UNL     1      28.479  25.711  23.152  0.00  0.00    +0.000 C 
ATOM     15  O   UNL     1      28.367  26.270  24.270  0.00  0.00    +0.000 OA
ENDBRANCH   4   8
BRANCH   7  16
ATOM     16  C   UNL     1      26.726  24.164  28.323  0.00  0.00    +0.000 A 
ATOM     17  C   UNL     1      26.266  23.166  29.136  0.00  0.00    +0.000 A 
ATOM     18  C   UNL     1      26.536  23.140  30.489  0.00  0.00    +0.000 A 
ATOM     19  C   UNL     1      27.287  24.134  31.065  0.00  0.00    +0.000 A 
ATOM     20  C   UNL     1      27.765  25.150  30.285  0.00  0.00    +0.000 A 
ATOM     21  C   UNL     1      27.492  25.169  28.935  0.00  0.00    +0.000 A 
ENDBRANCH   7  16
TORSDOF 2
ENDMDL
MODEL 7
REMARK VINA RESULT:      -5.8     19.790     21.802
REMARK  Name = 
REMARK  2 active torsions:
REMARK  status: ('A' for Active; 'I' for Inactive)
REMARK    1  A    between atoms: C_4  and  C_5
REMARK    2  A    between atoms: N_15  and  C_16
REMARK                            x       y       z     vdW  Elec       q    Type
REMARK                         _______ _______ _______ _____ _____    ______ ____
ROOT
ATOM      1  C   UNL     1      33.436  24.815  28.833  0.00  0.00    +0.000 C 
ATOM      2  C   UNL     1      32.566  24.130  27.814  0.00  0.00    +0.000 A 
ATOM      3  C   UNL     1      32.515  24.370  26.460  0.00  0.00    +0.000 A 
ATOM      4  C   UNL     1      31.574  23.527  25.868  0.00  0.00    +0.000 A 
ATOM      5  C   UNL     1      31.076  22.786  26.920  0.00  0.00    +0.000 A 
ATOM      6  C   UNL     1      30.040  21.745  26.801  0.00  0.00    +0.000 C 
ATOM      7  N   UNL     1      31.663  23.140  28.077  0.00  0.00    +0.000 N 
ENDROOT
BRANCH   4   8
ATOM      8  C   UNL     1      31.266  23.465  24.448  0.00  0.00    +0.000 C 
ATOM      9  C   UNL     1      30.255  24.117  23.883  0.00  0.00    +0.000 C 
ATOM     10  N   UNL     1      29.858  24.136  22.533  0.00  0.00    +0.000 NA
ATOM     11  C   UNL     1      28.739  25.001  22.327  0.00  0.00    +0.000 C 
ATOM     12  O   UNL     1      28.142  25.239  21.234  0.00  0.00    +0.000 OA
ATOM     13  N   UNL     1      28.441  25.534  23.616  0.00  0.00    +0.000 NA
ATOM     14  C   UNL     1      29.363  25.001  24.583  0.00  0.00    +0.000 C 
ATOM     15  O   UNL     1      29.317  25.313  25.797  0.00  0.00    +0.000 OA
ENDBRANCH   4   8
BRANCH   7  16
ATOM     16  C   UNL     1      31.471  22.627  29.392  0.00  0.00    +0.000 A 
ATOM     17  C   UNL     1      30.494  23.062  30.242  0.00  0.00    +0.000 A 
ATOM     18  C   UNL     1      30.339  22.538  31.510  0.00  0.00    +0.000 A 
ATOM     19  C   UNL     1      31.177  21.547  31.957  0.00  0.00    +0.000 A 
ATOM     20  C   UNL     1      32.168  21.086  31.135  0.00  0.00    +0.000 A 
ATOM     21  C   UNL     1      32.316  21.614  29.871  0.00  0.00    +0.000 A 
ENDBRANCH   7  16
TORSDOF 2
ENDMDL
MODEL 8
REMARK VINA RESULT:      -5.7     17.102     18.249
REMARK  Name = 
REMARK  2 active torsions:
REMARK  status: ('A' for Active; 'I' for Inactive)
REMARK    1  A    between atoms: C_4  and  C_5
REMARK    2  A    between atoms: N_15  and  C_16
REMARK                            x       y       z     vdW  Elec       q    Type
REMARK                         _______ _______ _______ _____ _____    ______ ____
ROOT
ATOM      1  C   UNL     1      24.697  25.081  27.514  0.00  0.00    +0.000 C 
ATOM      2  C   UNL     1      25.821  24.161  27.902  0.00  0.00    +0.000 A 
ATOM      3  C   UNL     1      26.171  23.754  29.170  0.00  0.00    +0.000 A 
ATOM      4  C   UNL     1      27.276  22.904  29.103  0.00  0.00    +0.000 A 
ATOM      5  C   UNL     1      27.562  22.829  27.755  0.00  0.00    +0.000 A 
ATOM      6  C   UNL     1      28.662  22.042  27.171  0.00  0.00    +0.000 C 
ATOM      7  N   UNL     1      26.701  23.571  27.039  0.00  0.00    +0.000 N 
ENDROOT
BRANCH   4   8
ATOM      8  C   UNL     1      27.910  22.248  30.235  0.00  0.00    +0.000 C 
ATOM      9  C   UNL     1      29.014  22.695  30.825  0.00  0.00    +0.000 C 
ATOM     10  N   UNL     1      29.716  22.152  31.917  0.00  0.00    +0.000 NA
ATOM     11  C   UNL     1      30.837  22.963  32.276  0.00  0.00    +0.000 C 
ATOM     12  O   UNL     1      31.669  22.754  33.209  0.00  0.00    +0.000 OA
ATOM     13  N   UNL     1      30.815  24.052  31.356  0.00  0.00    +0.000 NA
ATOM     14  C   UNL     1      29.701  23.903  30.459  0.00  0.00    +0.000 C 
ATOM     15  O   UNL     1      29.455  24.733  29.551  0.00  0.00    +0.000 OA
ENDBRANCH   4   8
BRANCH   7  16
ATOM     16  C   UNL     1      26.613  23.764  25.630  0.00  0.00    +0.000 A 
ATOM     17  C   UNL     1      25.839  22.998  24.805  0.00  0.00    +0.000 A 
ATOM     18  C   UNL     1      25.779  23.218  23.444  0.00  0.00    +0.000 A 
ATOM     19  C   UNL     1      26.508  24.231  22.873  0.00  0.00    +0.000 A 
ATOM     20  C   UNL     1      27.295  25.019  23.666  0.00  0.00    +0.000 A 
ATOM     21  C   UNL     1      27.350  24.794  25.024  0.00  0.00    +0.000 A 
ENDBRANCH   7  16
TORSDOF 2
ENDMDL
MODEL 9
REMARK VINA RESULT:      -5.7     17.662     19.503
REMARK  Name = 
REMARK  2 active torsions:
REMARK  status: ('A' for Active; 'I' for Inactive)
REMARK    1  A    between atoms: C_4  and  C_5
REMARK    2  A    between atoms: N_15  and  C_16
REMARK                            x       y       z     vdW  Elec       q    Type
REMARK                         _______ _______ _______ _____ _____    ______ ____
ROOT
ATOM      1  C   UNL     1      33.593   8.246  38.401  0.00  0.00    +0.000 C 
ATOM      2  C   UNL     1      34.255   7.075  37.727  0.00  0.00    +0.000 A 
ATOM      3  C   UNL     1      33.821   5.769  37.701  0.00  0.00    +0.000 A 
ATOM      4  C   UNL     1      34.721   4.989  36.973  0.00  0.00    +0.000 A 
ATOM      5  C   UNL     1      35.696   5.882  36.576  0.00  0.00    +0.000 A 
ATOM      6  C   UNL     1      36.880   5.532  35.772  0.00  0.00    +0.000 C 
ATOM      7  N   UNL     1      35.423   7.121  37.019  0.00  0.00    +0.000 N 
ENDROOT
BRANCH   4   8
ATOM      8  C   UNL     1      34.583   3.568  36.699  0.00  0.00    +0.000 C 
ATOM      9  C   UNL     1      34.100   3.079  35.562  0.00  0.00    +0.000 C 
ATOM     10  N   UNL     1      33.918   1.736  35.182  0.00  0.00    +0.000 NA
ATOM     11  C   UNL     1      33.407   1.631  33.852  0.00  0.00    +0.000 C 
ATOM     12  O   UNL     1      33.132   0.570  33.214  0.00  0.00    +0.000 OA
ATOM     13  N   UNL     1      33.272   2.978  33.400  0.00  0.00    +0.000 NA
ATOM     14  C   UNL     1      33.694   3.878  34.439  0.00  0.00    +0.000 C 
ATOM     15  O   UNL     1      33.675   5.124  34.295  0.00  0.00    +0.000 OA
ENDBRANCH   4   8
BRANCH   7  16
ATOM     16  C   UNL     1      36.137   8.338  36.827  0.00  0.00    +0.000 A 
ATOM     17  C   UNL     1      37.142   8.767  37.649  0.00  0.00    +0.000 A 
ATOM     18  C   UNL     1      37.813   9.953  37.428  0.00  0.00    +0.000 A 
ATOM     19  C   UNL     1      37.484  10.746  36.357  0.00  0.00    +0.000 A 
ATOM     20  C   UNL     1      36.484  10.350  35.513  0.00  0.00    +0.000 A 
ATOM     21  C   UNL     1      35.819   9.165  35.739  0.00  0.00    +0.000 A 
ENDBRANCH   7  16
TORSDOF 2
ENDMDL
MODEL 10
REMARK VINA RESULT:      -5.6     20.993     22.863
REMARK  Name = 
REMARK  2 active torsions:
REMARK  status: ('A' for Active; 'I' for Inactive)
REMARK    1  A    between atoms: C_4  and  C_5
REMARK    2  A    between atoms: N_15  and  C_16
REMARK                            x       y       z     vdW  Elec       q    Type
REMARK                         _______ _______ _______ _____ _____    ______ ____
ROOT
ATOM      1  C   UNL     1      28.105   2.480  15.918  0.00  0.00    +0.000 C 
ATOM      2  C   UNL     1      26.807   2.797  16.610  0.00  0.00    +0.000 A 
ATOM      3  C   UNL     1      25.816   1.915  16.977  0.00  0.00    +0.000 A 
ATOM      4  C   UNL     1      24.772   2.609  17.591  0.00  0.00    +0.000 A 
ATOM      5  C   UNL     1      25.185   3.925  17.571  0.00  0.00    +0.000 A 
ATOM      6  C   UNL     1      24.413   5.058  18.110  0.00  0.00    +0.000 C 
ATOM      7  N   UNL     1      26.392   4.042  16.991  0.00  0.00    +0.000 N 
ENDROOT
BRANCH   4   8
ATOM      8  C   UNL     1      23.567   2.012  18.142  0.00  0.00    +0.000 C 
ATOM      9  C   UNL     1      22.403   1.972  17.501  0.00  0.00    +0.000 C 
ATOM     10  N   UNL     1      21.177   1.428  17.926  0.00  0.00    +0.000 NA
ATOM     11  C   UNL     1      20.170   1.552  16.919  0.00  0.00    +0.000 C 
ATOM     12  O   UNL     1      18.964   1.166  16.986  0.00  0.00    +0.000 OA
ATOM     13  N   UNL     1      20.817   2.203  15.828  0.00  0.00    +0.000 NA
ATOM     14  C   UNL     1      22.189   2.468  16.170  0.00  0.00    +0.000 C 
ATOM     15  O   UNL     1      22.980   3.035  15.378  0.00  0.00    +0.000 OA
ENDBRANCH   4   8
BRANCH   7  16
ATOM     16  C   UNL     1      27.196   5.198  16.780  0.00  0.00    +0.000 A 
ATOM     17  C   UNL     1      28.076   5.691  17.702  0.00  0.00    +0.000 A 
ATOM     18  C   UNL     1      28.840   6.815  17.458  0.00  0.00    +0.000 A 
ATOM     19  C   UNL     1      28.735   7.478  16.261  0.00  0.00    +0.000 A 
ATOM     20  C   UNL     1      27.865   7.015  15.313  0.00  0.00    +0.000 A 
ATOM     21  C   UNL     1      27.106   5.893  15.563  0.00  0.00    +0.000 A 
ENDBRANCH   7  16
TORSDOF 2
ENDMDL
