MODEL 1
REMARK VINA RESULT:      -6.4      0.000      0.000
REMARK  Name = 
REMARK  2 active torsions:
REMARK  status: ('A' for Active; 'I' for Inactive)
REMARK    1  A    between atoms: C_10  and  C_11
REMARK    2  A    between atoms: N_13  and  C_14
REMARK                            x       y       z     vdW  Elec       q    Type
REMARK                         _______ _______ _______ _____ _____    ______ ____
ROOT
ATOM      1  C   UNL     1      18.150 -11.394  29.307  0.00  0.00    +0.000 C 
ATOM      2  C   UNL     1      18.665  -9.817  29.361  0.00  0.00    +0.000 C 
ATOM      3  C   UNL     1      19.888 -10.084  28.321  0.00  0.00    +0.000 C 
ATOM      4  C   UNL     1      19.453  -9.949  26.924  0.00  0.00    +0.000 C 
ATOM      5  C   UNL     1      19.156  -8.484  26.776  0.00  0.00    +0.000 A 
ATOM      6  C   UNL     1      18.079  -8.161  27.559  0.00  0.00    +0.000 A 
ATOM      7  S   UNL     1      17.887  -6.494  27.277  0.00  0.00    +0.000 S 
ATOM      8  C   UNL     1      19.170  -6.251  26.178  0.00  0.00    +0.000 A 
ATOM      9  N   UNL     1      19.563  -5.035  25.541  0.00  0.00    +0.000 NA
ATOM     10  C   UNL     1      19.719  -7.505  26.064  0.00  0.00    +0.000 A 
ATOM     11  C   UNL     1      17.518  -9.312  28.312  0.00  0.00    +0.000 C 
ENDROOT
BRANCH  10  12
ATOM     12  C   UNL     1      20.891  -7.726  25.176  0.00  0.00    +0.000 C 
ATOM     13  O   UNL     1      20.776  -8.211  24.028  0.00  0.00    +0.000 OA
ATOM     14  N   UNL     1      22.212  -7.397  25.583  0.00  0.00    +0.000 NA
BRANCH  14  15
ATOM     15  C   UNL     1      23.326  -7.615  24.720  0.00  0.00    +0.000 A 
ATOM     16  C   UNL     1      23.999  -6.566  24.135  0.00  0.00    +0.000 A 
ATOM     17  C   UNL     1      25.074  -6.763  23.300  0.00  0.00    +0.000 A 
ATOM     18  C   UNL     1      25.527  -8.035  23.013  0.00  0.00    +0.000 A 
ATOM     19  C   UNL     1      24.850  -9.083  23.601  0.00  0.00    +0.000 A 
ATOM     20  C   UNL     1      23.773  -8.884  24.436  0.00  0.00    +0.000 A 
ENDBRANCH  14  15
ENDBRANCH  10  12
TORSDOF 2
ENDMDL
MODEL 2
REMARK VINA RESULT:      -6.1     21.771     22.739
REMARK  Name = 
REMARK  2 active torsions:
REMARK  status: ('A' for Active; 'I' for Inactive)
REMARK    1  A    between atoms: C_10  and  C_11
REMARK    2  A    between atoms: N_13  and  C_14
REMARK                            x       y       z     vdW  Elec       q    Type
REMARK                         _______ _______ _______ _____ _____    ______ ____
ROOT
ATOM      1  C   UNL     1      16.153   7.745  43.315  0.00  0.00    +0.000 C 
ATOM      2  C   UNL     1      17.142   7.264  42.073  0.00  0.00    +0.000 C 
ATOM      3  C   UNL     1      16.370   8.187  40.978  0.00  0.00    +0.000 C 
ATOM      4  C   UNL     1      16.907   9.555  40.945  0.00  0.00    +0.000 C 
ATOM      5  C   UNL     1      18.288   9.390  40.380  0.00  0.00    +0.000 A 
ATOM      6  C   UNL     1      19.057   8.685  41.267  0.00  0.00    +0.000 A 
ATOM      7  S   UNL     1      20.562   8.589  40.479  0.00  0.00    +0.000 S 
ATOM      8  C   UNL     1      20.180   9.443  39.052  0.00  0.00    +0.000 A 
ATOM      9  N   UNL     1      21.033   9.728  37.942  0.00  0.00    +0.000 NA
ATOM     10  C   UNL     1      18.862   9.782  39.240  0.00  0.00    +0.000 A 
ATOM     11  C   UNL     1      18.337   8.293  42.506  0.00  0.00    +0.000 C 
ENDROOT
BRANCH  10  12
ATOM     12  C   UNL     1      18.136  10.555  38.197  0.00  0.00    +0.000 C 
ATOM     13  O   UNL     1      18.343  11.774  38.004  0.00  0.00    +0.000 OA
ATOM     14  N   UNL     1      17.163   9.948  37.357  0.00  0.00    +0.000 NA
BRANCH  14  15
ATOM     15  C   UNL     1      16.475  10.703  36.360  0.00  0.00    +0.000 A 
ATOM     16  C   UNL     1      16.875  10.687  35.042  0.00  0.00    +0.000 A 
ATOM     17  C   UNL     1      16.220  11.410  34.073  0.00  0.00    +0.000 A 
ATOM     18  C   UNL     1      15.124  12.189  34.386  0.00  0.00    +0.000 A 
ATOM     19  C   UNL     1      14.728  12.201  35.706  0.00  0.00    +0.000 A 
ATOM     20  C   UNL     1      15.384  11.477  36.676  0.00  0.00    +0.000 A 
ENDBRANCH  14  15
ENDBRANCH  10  12
TORSDOF 2
ENDMDL
MODEL 3
REMARK VINA RESULT:      -5.9     32.147     33.082
REMARK  Name = 
REMARK  2 active torsions:
REMARK  status: ('A' for Active; 'I' for Inactive)
REMARK    1  A    between atoms: C_10  and  C_11
REMARK    2  A    between atoms: N_13  and  C_14
REMARK                            x       y       z     vdW  Elec       q    Type
REMARK                         _______ _______ _______ _____ _____    ______ ____
ROOT
ATOM      1  C   UNL     1      29.244  24.819  21.348  0.00  0.00    +0.000 C 
ATOM      2  C   UNL     1      27.992  24.130  22.193  0.00  0.00    +0.000 C 
ATOM      3  C   UNL     1      28.990  23.339  23.207  0.00  0.00    +0.000 C 
ATOM      4  C   UNL     1      29.374  24.174  24.354  0.00  0.00    +0.000 C 
ATOM      5  C   UNL     1      28.100  24.327  25.134  0.00  0.00    +0.000 A 
ATOM      6  C   UNL     1      27.203  25.055  24.397  0.00  0.00    +0.000 A 
ATOM      7  S   UNL     1      25.841  25.128  25.413  0.00  0.00    +0.000 S 
ATOM      8  C   UNL     1      26.440  24.239  26.741  0.00  0.00    +0.000 A 
ATOM      9  N   UNL     1      25.771  23.926  27.963  0.00  0.00    +0.000 NA
ATOM     10  C   UNL     1      27.711  23.906  26.340  0.00  0.00    +0.000 A 
ATOM     11  C   UNL     1      27.723  25.482  23.072  0.00  0.00    +0.000 C 
ENDROOT
BRANCH  10  12
ATOM     12  C   UNL     1      28.590  23.110  27.237  0.00  0.00    +0.000 C 
ATOM     13  O   UNL     1      28.459  21.873  27.375  0.00  0.00    +0.000 OA
ATOM     14  N   UNL     1      29.634  23.713  27.991  0.00  0.00    +0.000 NA
BRANCH  14  15
ATOM     15  C   UNL     1      30.469  22.935  28.848  0.00  0.00    +0.000 A 
ATOM     16  C   UNL     1      31.583  22.284  28.368  0.00  0.00    +0.000 A 
ATOM     17  C   UNL     1      32.396  21.531  29.184  0.00  0.00    +0.000 A 
ATOM     18  C   UNL     1      32.123  21.398  30.531  0.00  0.00    +0.000 A 
ATOM     19  C   UNL     1      31.007  22.053  31.006  0.00  0.00    +0.000 A 
ATOM     20  C   UNL     1      30.194  22.806  30.189  0.00  0.00    +0.000 A 
ENDBRANCH  14  15
ENDBRANCH  10  12
TORSDOF 2
ENDMDL
MODEL 4
REMARK VINA RESULT:      -5.7     32.162     33.544
REMARK  Name = 
REMARK  2 active torsions:
REMARK  status: ('A' for Active; 'I' for Inactive)
REMARK    1  A    between atoms: C_10  and  C_11
REMARK    2  A    between atoms: N_13  and  C_14
REMARK                            x       y       z     vdW  Elec       q    Type
REMARK                         _______ _______ _______ _____ _____    ______ ____
ROOT
ATOM      1  C   UNL     1      31.420  23.008  29.368  0.00  0.00    +0.000 C 
ATOM      2  C   UNL     1      30.803  22.161  28.081  0.00  0.00    +0.000 C 
ATOM      3  C   UNL     1      29.285  22.683  28.346  0.00  0.00    +0.000 C 
ATOM      4  C   UNL     1      29.031  23.972  27.686  0.00  0.00    +0.000 C 
ATOM      5  C   UNL     1      29.057  23.642  26.222  0.00  0.00    +0.000 A 
ATOM      6  C   UNL     1      30.324  23.260  25.868  0.00  0.00    +0.000 A 
ATOM      7  S   UNL     1      30.175  22.926  24.206  0.00  0.00    +0.000 S 
ATOM      8  C   UNL     1      28.518  23.278  24.003  0.00  0.00    +0.000 A 
ATOM      9  N   UNL     1      27.742  23.199  22.806  0.00  0.00    +0.000 NA
ATOM     10  C   UNL     1      28.126  23.654  25.265  0.00  0.00    +0.000 A 
ATOM     11  C   UNL     1      31.293  23.280  26.994  0.00  0.00    +0.000 C 
ENDROOT
BRANCH  10  12
ATOM     12  C   UNL     1      26.715  24.050  25.520  0.00  0.00    +0.000 C 
ATOM     13  O   UNL     1      25.778  23.220  25.518  0.00  0.00    +0.000 OA
ATOM     14  N   UNL     1      26.351  25.399  25.781  0.00  0.00    +0.000 NA
BRANCH  14  15
ATOM     15  C   UNL     1      24.994  25.763  26.024  0.00  0.00    +0.000 A 
ATOM     16  C   UNL     1      24.440  25.679  27.281  0.00  0.00    +0.000 A 
ATOM     17  C   UNL     1      23.132  26.027  27.527  0.00  0.00    +0.000 A 
ATOM     18  C   UNL     1      22.314  26.480  26.512  0.00  0.00    +0.000 A 
ATOM     19  C   UNL     1      22.874  26.564  25.255  0.00  0.00    +0.000 A 
ATOM     20  C   UNL     1      24.183  26.214  25.009  0.00  0.00    +0.000 A 
ENDBRANCH  14  15
ENDBRANCH  10  12
TORSDOF 2
ENDMDL
MODEL 5
REMARK VINA RESULT:      -5.5     14.089     16.097
REMARK  Name = 
REMARK  2 active torsions:
REMARK  status: ('A' for Active; 'I' for Inactive)
REMARK    1  A    between atoms: C_10  and  C_11
REMARK    2  A    between atoms: N_13  and  C_14
REMARK                            x       y       z     vdW  Elec       q    Type
REMARK                         _______ _______ _______ _____ _____    ______ ____
ROOT
ATOM      1  C   UNL     1      33.931  -6.580  28.510  0.00  0.00    +0.000 C 
ATOM      2  C   UNL     1      34.680  -6.782  29.978  0.00  0.00    +0.000 C 
ATOM      3  C   UNL     1      34.399  -5.246  30.437  0.00  0.00    +0.000 C 
ATOM      4  C   UNL     1      33.080  -5.101  31.071  0.00  0.00    +0.000 C 
ATOM      5  C   UNL     1      33.213  -5.853  32.363  0.00  0.00    +0.000 A 
ATOM      6  C   UNL     1      33.378  -7.187  32.094  0.00  0.00    +0.000 A 
ATOM      7  S   UNL     1      33.513  -7.877  33.643  0.00  0.00    +0.000 S 
ATOM      8  C   UNL     1      33.358  -6.465  34.588  0.00  0.00    +0.000 A 
ATOM      9  N   UNL     1      33.384  -6.352  36.012  0.00  0.00    +0.000 NA
ATOM     10  C   UNL     1      33.202  -5.479  33.644  0.00  0.00    +0.000 A 
ATOM     11  C   UNL     1      33.376  -7.510  30.644  0.00  0.00    +0.000 C 
ENDROOT
BRANCH  10  12
ATOM     12  C   UNL     1      33.029  -4.064  34.068  0.00  0.00    +0.000 C 
ATOM     13  O   UNL     1      31.947  -3.630  34.521  0.00  0.00    +0.000 OA
ATOM     14  N   UNL     1      34.090  -3.122  33.982  0.00  0.00    +0.000 NA
BRANCH  14  15
ATOM     15  C   UNL     1      33.910  -1.768  34.394  0.00  0.00    +0.000 A 
ATOM     16  C   UNL     1      34.021  -1.396  35.714  0.00  0.00    +0.000 A 
ATOM     17  C   UNL     1      33.849  -0.094  36.123  0.00  0.00    +0.000 A 
ATOM     18  C   UNL     1      33.555   0.903  35.214  0.00  0.00    +0.000 A 
ATOM     19  C   UNL     1      33.445   0.526  33.893  0.00  0.00    +0.000 A 
ATOM     20  C   UNL     1      33.617  -0.778  33.485  0.00  0.00    +0.000 A 
ENDBRANCH  14  15
ENDBRANCH  10  12
TORSDOF 2
ENDMDL
MODEL 6
REMARK VINA RESULT:      -5.5     14.313     16.742
REMARK  Name = 
REMARK  2 active torsions:
REMARK  status: ('A' for Active; 'I' for Inactive)
REMARK    1  A    between atoms: C_10  and  C_11
REMARK    2  A    between atoms: N_13  and  C_14
REMARK                            x       y       z     vdW  Elec       q    Type
REMARK                         _______ _______ _______ _____ _____    ______ ____
ROOT
ATOM      1  C   UNL     1      21.442   3.192  11.032  0.00  0.00    +0.000 C 
ATOM      2  C   UNL     1      21.943   2.093  12.171  0.00  0.00    +0.000 C 
ATOM      3  C   UNL     1      23.256   2.967  12.571  0.00  0.00    +0.000 C 
ATOM      4  C   UNL     1      22.948   3.970  13.599  0.00  0.00    +0.000 C 
ATOM      5  C   UNL     1      22.659   3.156  14.827  0.00  0.00    +0.000 A 
ATOM      6  C   UNL     1      21.515   2.430  14.628  0.00  0.00    +0.000 A 
ATOM      7  S   UNL     1      21.341   1.579  16.090  0.00  0.00    +0.000 S 
ATOM      8  C   UNL     1      22.717   2.162  16.914  0.00  0.00    +0.000 A 
ATOM      9  N   UNL     1      23.161   1.830  18.230  0.00  0.00    +0.000 NA
ATOM     10  C   UNL     1      23.280   3.021  16.001  0.00  0.00    +0.000 A 
ATOM     11  C   UNL     1      20.893   2.645  13.296  0.00  0.00    +0.000 C 
ENDROOT
BRANCH  10  12
ATOM     12  C   UNL     1      24.529   3.754  16.341  0.00  0.00    +0.000 C 
ATOM     13  O   UNL     1      25.631   3.470  15.822  0.00  0.00    +0.000 OA
ATOM     14  N   UNL     1      24.538   4.822  17.279  0.00  0.00    +0.000 NA
BRANCH  14  15
ATOM     15  C   UNL     1      25.744   5.516  17.594  0.00  0.00    +0.000 A 
ATOM     16  C   UNL     1      26.210   6.545  16.807  0.00  0.00    +0.000 A 
ATOM     17  C   UNL     1      27.372   7.220  17.100  0.00  0.00    +0.000 A 
ATOM     18  C   UNL     1      28.124   6.891  18.209  0.00  0.00    +0.000 A 
ATOM     19  C   UNL     1      27.653   5.860  18.995  0.00  0.00    +0.000 A 
ATOM     20  C   UNL     1      26.491   5.184  18.700  0.00  0.00    +0.000 A 
ENDBRANCH  14  15
ENDBRANCH  10  12
TORSDOF 2
ENDMDL
MODEL 7
REMARK VINA RESULT:      -5.4     31.741     34.007
REMARK  Name = 
REMARK  2 active torsions:
REMARK  status: ('A' for Active; 'I' for Inactive)
REMARK    1  A    between atoms: C_10  and  C_11
REMARK    2  A    between atoms: N_13  and  C_14
REMARK                            x       y       z     vdW  Elec       q    Type
REMARK                         _______ _______ _______ _____ _____    ______ ____
ROOT
ATOM      1  C   UNL     1      26.120  28.710  22.270  0.00  0.00    +0.000 C 
ATOM      2  C   UNL     1      27.555  28.044  22.771  0.00  0.00    +0.000 C 
ATOM      3  C   UNL     1      26.901  27.422  24.125  0.00  0.00    +0.000 C 
ATOM      4  C   UNL     1      26.312  26.098  23.885  0.00  0.00    +0.000 C 
ATOM      5  C   UNL     1      27.496  25.217  23.609  0.00  0.00    +0.000 A 
ATOM      6  C   UNL     1      28.084  25.607  22.435  0.00  0.00    +0.000 A 
ATOM      7  S   UNL     1      29.387  24.523  22.280  0.00  0.00    +0.000 S 
ATOM      8  C   UNL     1      29.154  23.608  23.701  0.00  0.00    +0.000 A 
ATOM      9  N   UNL     1      29.931  22.508  24.176  0.00  0.00    +0.000 NA
ATOM     10  C   UNL     1      28.043  24.189  24.262  0.00  0.00    +0.000 A 
ATOM     11  C   UNL     1      27.408  26.755  21.777  0.00  0.00    +0.000 C 
ENDROOT
BRANCH  10  12
ATOM     12  C   UNL     1      27.499  23.669  25.545  0.00  0.00    +0.000 C 
ATOM     13  O   UNL     1      26.600  22.799  25.585  0.00  0.00    +0.000 OA
ATOM     14  N   UNL     1      27.972  24.134  26.802  0.00  0.00    +0.000 NA
BRANCH  14  15
ATOM     15  C   UNL     1      27.440  23.625  28.025  0.00  0.00    +0.000 A 
ATOM     16  C   UNL     1      26.484  24.315  28.736  0.00  0.00    +0.000 A 
ATOM     17  C   UNL     1      25.965  23.835  29.916  0.00  0.00    +0.000 A 
ATOM     18  C   UNL     1      26.386  22.629  30.439  0.00  0.00    +0.000 A 
ATOM     19  C   UNL     1      27.344  21.942  29.722  0.00  0.00    +0.000 A 
ATOM     20  C   UNL     1      27.863  22.423  28.542  0.00  0.00    +0.000 A 
ENDBRANCH  14  15
ENDBRANCH  10  12
TORSDOF 2
ENDMDL
MODEL 8
REMARK VINA RESULT:      -5.4     12.731     14.955
REMARK  Name = 
REMARK  2 active torsions:
REMARK  status: ('A' for Active; 'I' for Inactive)
REMARK    1  A    between atoms: C_10  and  C_11
REMARK    2  A    between atoms: N_13  and  C_14
REMARK                            x       y       z     vdW  Elec       q    Type
REMARK                         _______ _______ _______ _____ _____    ______ ____
ROOT
ATOM      1  C   UNL     1      28.979  -2.553  16.681  0.00  0.00    +0.000 C 
ATOM      2  C   UNL     1      27.569  -2.331  17.528  0.00  0.00    +0.000 C 
ATOM      3  C   UNL     1      27.918  -0.782  17.882  0.00  0.00    +0.000 C 
ATOM      4  C   UNL     1      27.482   0.131  16.816  0.00  0.00    +0.000 C 
ATOM      5  C   UNL     1      25.983   0.068  16.873  0.00  0.00    +0.000 A 
ATOM      6  C   UNL     1      25.570  -1.188  16.513  0.00  0.00    +0.000 A 
ATOM      7  S   UNL     1      23.876  -1.084  16.634  0.00  0.00    +0.000 S 
ATOM      8  C   UNL     1      23.735   0.540  17.136  0.00  0.00    +0.000 A 
ATOM      9  N   UNL     1      22.542   1.272  17.421  0.00  0.00    +0.000 NA
ATOM     10  C   UNL     1      25.042   0.959  17.194  0.00  0.00    +0.000 A 
ATOM     11  C   UNL     1      26.684  -2.110  16.172  0.00  0.00    +0.000 C 
ENDROOT
BRANCH  10  12
ATOM     12  C   UNL     1      25.359   2.354  17.601  0.00  0.00    +0.000 C 
ATOM     13  O   UNL     1      24.945   2.847  18.673  0.00  0.00    +0.000 OA
ATOM     14  N   UNL     1      26.155   3.208  16.790  0.00  0.00    +0.000 NA
BRANCH  14  15
ATOM     15  C   UNL     1      26.452   4.544  17.194  0.00  0.00    +0.000 A 
ATOM     16  C   UNL     1      25.617   5.592  16.879  0.00  0.00    +0.000 A 
ATOM     17  C   UNL     1      25.892   6.884  17.262  0.00  0.00    +0.000 A 
ATOM     18  C   UNL     1      27.028   7.184  17.986  0.00  0.00    +0.000 A 
ATOM     19  C   UNL     1      27.861   6.130  18.300  0.00  0.00    +0.000 A 
ATOM     20  C   UNL     1      27.585   4.837  17.915  0.00  0.00    +0.000 A 
ENDBRANCH  14  15
ENDBRANCH  10  12
TORSDOF 2
ENDMDL
MODEL 9
REMARK VINA RESULT:      -5.3     31.946     34.347
REMARK  Name = 
REMARK  2 active torsions:
REMARK  status: ('A' for Active; 'I' for Inactive)
REMARK    1  A    between atoms: C_10  and  C_11
REMARK    2  A    between atoms: N_13  and  C_14
REMARK                            x       y       z     vdW  Elec       q    Type
REMARK                         _______ _______ _______ _____ _____    ______ ____
ROOT
ATOM      1  C   UNL     1      34.976  27.203  24.863  0.00  0.00    +0.000 C 
ATOM      2  C   UNL     1      34.011  26.913  26.182  0.00  0.00    +0.000 C 
ATOM      3  C   UNL     1      32.732  26.487  25.269  0.00  0.00    +0.000 C 
ATOM      4  C   UNL     1      32.767  25.061  24.915  0.00  0.00    +0.000 C 
ATOM      5  C   UNL     1      32.538  24.357  26.221  0.00  0.00    +0.000 A 
ATOM      6  C   UNL     1      33.605  24.585  27.051  0.00  0.00    +0.000 A 
ATOM      7  S   UNL     1      33.184  23.732  28.461  0.00  0.00    +0.000 S 
ATOM      8  C   UNL     1      31.674  23.110  27.967  0.00  0.00    +0.000 A 
ATOM      9  N   UNL     1      30.777  22.284  28.710  0.00  0.00    +0.000 NA
ATOM     10  C   UNL     1      31.544  23.599  26.689  0.00  0.00    +0.000 A 
ATOM     11  C   UNL     1      34.662  25.437  26.447  0.00  0.00    +0.000 C 
ENDROOT
BRANCH  10  12
ATOM     12  C   UNL     1      30.333  23.276  25.888  0.00  0.00    +0.000 C 
ATOM     13  O   UNL     1      30.253  22.244  25.185  0.00  0.00    +0.000 OA
ATOM     14  N   UNL     1      29.193  24.124  25.879  0.00  0.00    +0.000 NA
BRANCH  14  15
ATOM     15  C   UNL     1      28.038  23.801  25.106  0.00  0.00    +0.000 A 
ATOM     16  C   UNL     1      27.997  24.018  23.748  0.00  0.00    +0.000 A 
ATOM     17  C   UNL     1      26.889  23.711  22.993  0.00  0.00    +0.000 A 
ATOM     18  C   UNL     1      25.762  23.165  23.574  0.00  0.00    +0.000 A 
ATOM     19  C   UNL     1      25.809  22.949  24.935  0.00  0.00    +0.000 A 
ATOM     20  C   UNL     1      26.918  23.257  25.690  0.00  0.00    +0.000 A 
ENDBRANCH  14  15
ENDBRANCH  10  12
TORSDOF 2
ENDMDL
MODEL 10
REMARK VINA RESULT:      -5.3     31.976     32.925
REMARK  Name = 
REMARK  2 active torsions:
REMARK  status: ('A' for Active; 'I' for Inactive)
REMARK    1  A    between atoms: C_10  and  C_11
REMARK    2  A    between atoms: N_13  and  C_14
REMARK                            x       y       z     vdW  Elec       q    Type
REMARK                         _______ _______ _______ _____ _____    ______ ____
ROOT
ATOM      1  C   UNL     1      23.682  26.767  30.222  0.00  0.00    +0.000 C 
ATOM      2  C   UNL     1      24.772  26.849  28.973  0.00  0.00    +0.000 C 
ATOM      3  C   UNL     1      25.883  25.960  29.763  0.00  0.00    +0.000 C 
ATOM      4  C   UNL     1      25.675  24.520  29.555  0.00  0.00    +0.000 C 
ATOM      5  C   UNL     1      25.999  24.311  28.104  0.00  0.00    +0.000 A 
ATOM      6  C   UNL     1      25.068  24.960  27.336  0.00  0.00    +0.000 A 
ATOM      7  S   UNL     1      25.580  24.627  25.749  0.00  0.00    +0.000 S 
ATOM      8  C   UNL     1      26.954  23.677  26.096  0.00  0.00    +0.000 A 
ATOM      9  N   UNL     1      27.857  23.065  25.174  0.00  0.00    +0.000 NA
ATOM     10  C   UNL     1      26.969  23.650  27.470  0.00  0.00    +0.000 A 
ATOM     11  C   UNL     1      24.026  25.666  28.126  0.00  0.00    +0.000 C 
ENDROOT
BRANCH  10  12
ATOM     12  C   UNL     1      28.038  22.905  28.188  0.00  0.00    +0.000 C 
ATOM     13  O   UNL     1      27.855  21.757  28.651  0.00  0.00    +0.000 OA
ATOM     14  N   UNL     1      29.332  23.458  28.388  0.00  0.00    +0.000 NA
BRANCH  14  15
ATOM     15  C   UNL     1      30.347  22.730  29.078  0.00  0.00    +0.000 A 
ATOM     16  C   UNL     1      31.402  22.153  28.406  0.00  0.00    +0.000 A 
ATOM     17  C   UNL     1      32.385  21.449  29.061  0.00  0.00    +0.000 A 
ATOM     18  C   UNL     1      32.355  21.292  30.432  0.00  0.00    +0.000 A 
ATOM     19  C   UNL     1      31.297  21.872  31.100  0.00  0.00    +0.000 A 
ATOM     20  C   UNL     1      30.312  22.577  30.444  0.00  0.00    +0.000 A 
ENDBRANCH  14  15
ENDBRANCH  10  12
TORSDOF 2
ENDMDL
