MODEL 1
REMARK VINA RESULT:      -8.3      0.000      0.000
REMARK  Name = 
REMARK  4 active torsions:
REMARK  status: ('A' for Active; 'I' for Inactive)
REMARK    1  A    between atoms: C_10  and  C_11
REMARK    2  A    between atoms: C_11  and  C_12
REMARK    3  A    between atoms: C_11  and  C_16
REMARK    4  A    between atoms: C_12  and  N_13
REMARK                            x       y       z     vdW  Elec       q    Type
REMARK                         _______ _______ _______ _____ _____    ______ ____
ROOT
ATOM      1  C   UNL     1      16.441  12.340  35.624  0.00  0.00    +0.000 C 
ENDROOT
BRANCH   1  11
ATOM      2  C   UNL     1      17.809   9.577  34.960  0.00  0.00    +0.000 C 
ATOM      3  C   UNL     1      16.934  10.336  34.022  0.00  0.00    +0.000 A 
ATOM      4  N   UNL     1      16.620   9.933  32.779  0.00  0.00    +0.000 NA
ATOM      5  C   UNL     1      15.820  10.865  32.244  0.00  0.00    +0.000 A 
ATOM      6  C   UNL     1      15.220  10.948  31.011  0.00  0.00    +0.000 A 
ATOM      7  C   UNL     1      14.431  12.022  30.694  0.00  0.00    +0.000 A 
ATOM      8  C   UNL     1      14.248  13.013  31.618  0.00  0.00    +0.000 A 
ATOM      9  C   UNL     1      14.849  12.919  32.839  0.00  0.00    +0.000 A 
ATOM     10  C   UNL     1      15.637  11.874  33.193  0.00  0.00    +0.000 A 
ATOM     11  C   UNL     1      16.353  11.521  34.318  0.00  0.00    +0.000 A 
ENDBRANCH   1  11
BRANCH   1  12
ATOM     12  C   UNL     1      14.943  12.380  36.030  0.00  0.00    +0.000 A 
ATOM     13  C   UNL     1      14.080  13.347  35.681  0.00  0.00    +0.000 A 
ATOM     14  C   UNL     1      12.742  13.311  36.088  0.00  0.00    +0.000 A 
ATOM     15  C   UNL     1      12.311  12.262  36.859  0.00  0.00    +0.000 A 
ATOM     16  C   UNL     1      13.176  11.253  37.233  0.00  0.00    +0.000 A 
ATOM     17  C   UNL     1      14.487  11.359  36.791  0.00  0.00    +0.000 A 
ATOM     18  O   UNL     1      12.516  10.308  38.006  0.00  0.00    +0.000 OA
ATOM     19  C   UNL     1      11.111  10.523  37.795  0.00  0.00    +0.000 C 
ATOM     20  O   UNL     1      11.086  11.885  37.444  0.00  0.00    +0.000 OA
ENDBRANCH   1  12
BRANCH   1  21
ATOM     21  C   UNL     1      16.895  11.134  36.614  0.00  0.00    +0.000 C 
BRANCH  21  22
ATOM     22  N   UNL     1      17.913  11.734  37.463  0.00  0.00    +0.000 N 
ATOM     23  O   UNL     1      18.208  12.933  37.442  0.00  0.00    +0.000 OA
ATOM     24  O   UNL     1      18.571  10.917  38.323  0.00  0.00    +0.000 OA
ENDBRANCH  21  22
ENDBRANCH   1  21
TORSDOF 4
ENDMDL
MODEL 2
REMARK VINA RESULT:      -7.7     18.945     20.656
REMARK  Name = 
REMARK  4 active torsions:
REMARK  status: ('A' for Active; 'I' for Inactive)
REMARK    1  A    between atoms: C_10  and  C_11
REMARK    2  A    between atoms: C_11  and  C_12
REMARK    3  A    between atoms: C_11  and  C_16
REMARK    4  A    between atoms: C_12  and  N_13
REMARK                            x       y       z     vdW  Elec       q    Type
REMARK                         _______ _______ _______ _____ _____    ______ ____
ROOT
ATOM      1  C   UNL     1      27.245  23.258  24.541  0.00  0.00    +0.000 C 
ENDROOT
BRANCH   1  11
ATOM      2  C   UNL     1      26.956  26.382  24.215  0.00  0.00    +0.000 C 
ATOM      3  C   UNL     1      28.254  25.661  24.351  0.00  0.00    +0.000 A 
ATOM      4  N   UNL     1      29.458  26.256  24.353  0.00  0.00    +0.000 NA
ATOM      5  C   UNL     1      30.381  25.295  24.494  0.00  0.00    +0.000 A 
ATOM      6  C   UNL     1      31.752  25.354  24.556  0.00  0.00    +0.000 A 
ATOM      7  C   UNL     1      32.490  24.209  24.707  0.00  0.00    +0.000 A 
ATOM      8  C   UNL     1      31.847  23.006  24.794  0.00  0.00    +0.000 A 
ATOM      9  C   UNL     1      30.485  22.961  24.730  0.00  0.00    +0.000 A 
ATOM     10  C   UNL     1      29.717  24.068  24.582  0.00  0.00    +0.000 A 
ATOM     11  C   UNL     1      28.365  24.320  24.490  0.00  0.00    +0.000 A 
ENDBRANCH   1  11
BRANCH   1  12
ATOM     12  C   UNL     1      26.732  23.464  25.991  0.00  0.00    +0.000 A 
ATOM     13  C   UNL     1      25.690  24.238  26.333  0.00  0.00    +0.000 A 
ATOM     14  C   UNL     1      25.287  24.372  27.666  0.00  0.00    +0.000 A 
ATOM     15  C   UNL     1      25.978  23.693  28.639  0.00  0.00    +0.000 A 
ATOM     16  C   UNL     1      27.052  22.889  28.317  0.00  0.00    +0.000 A 
ATOM     17  C   UNL     1      27.391  22.808  26.973  0.00  0.00    +0.000 A 
ATOM     18  O   UNL     1      27.587  22.311  29.460  0.00  0.00    +0.000 OA
ATOM     19  C   UNL     1      26.589  22.446  30.484  0.00  0.00    +0.000 C 
ATOM     20  O   UNL     1      25.881  23.576  30.039  0.00  0.00    +0.000 OA
ENDBRANCH   1  12
BRANCH   1  21
ATOM     21  C   UNL     1      26.090  24.117  23.785  0.00  0.00    +0.000 C 
BRANCH  21  22
ATOM     22  N   UNL     1      25.809  23.351  22.579  0.00  0.00    +0.000 N 
ATOM     23  O   UNL     1      24.914  22.505  22.494  0.00  0.00    +0.000 OA
ATOM     24  O   UNL     1      26.584  23.590  21.492  0.00  0.00    +0.000 OA
ENDBRANCH  21  22
ENDBRANCH   1  21
TORSDOF 4
ENDMDL
MODEL 3
REMARK VINA RESULT:      -7.7     18.992     20.651
REMARK  Name = 
REMARK  4 active torsions:
REMARK  status: ('A' for Active; 'I' for Inactive)
REMARK    1  A    between atoms: C_10  and  C_11
REMARK    2  A    between atoms: C_11  and  C_12
REMARK    3  A    between atoms: C_11  and  C_16
REMARK    4  A    between atoms: C_12  and  N_13
REMARK                            x       y       z     vdW  Elec       q    Type
REMARK                         _______ _______ _______ _____ _____    ______ ____
ROOT
ATOM      1  C   UNL     1      27.446  23.161  24.581  0.00  0.00    +0.000 C 
ENDROOT
BRANCH   1  11
ATOM      2  C   UNL     1      30.510  22.442  24.791  0.00  0.00    +0.000 C 
ATOM      3  C   UNL     1      29.971  23.828  24.689  0.00  0.00    +0.000 A 
ATOM      4  N   UNL     1      30.725  24.939  24.671  0.00  0.00    +0.000 NA
ATOM      5  C   UNL     1      29.897  25.987  24.570  0.00  0.00    +0.000 A 
ATOM      6  C   UNL     1      30.141  27.336  24.513  0.00  0.00    +0.000 A 
ATOM      7  C   UNL     1      29.105  28.227  24.409  0.00  0.00    +0.000 A 
ATOM      8  C   UNL     1      27.822  27.756  24.362  0.00  0.00    +0.000 A 
ATOM      9  C   UNL     1      27.591  26.413  24.420  0.00  0.00    +0.000 A 
ATOM     10  C   UNL     1      28.587  25.499  24.523  0.00  0.00    +0.000 A 
ATOM     11  C   UNL     1      28.653  24.123  24.599  0.00  0.00    +0.000 A 
ENDBRANCH   1  11
BRANCH   1  12
ATOM     12  C   UNL     1      26.882  23.395  26.008  0.00  0.00    +0.000 A 
ATOM     13  C   UNL     1      25.823  24.167  26.297  0.00  0.00    +0.000 A 
ATOM     14  C   UNL     1      25.374  24.328  27.612  0.00  0.00    +0.000 A 
ATOM     15  C   UNL     1      26.036  23.677  28.623  0.00  0.00    +0.000 A 
ATOM     16  C   UNL     1      27.127  22.875  28.356  0.00  0.00    +0.000 A 
ATOM     17  C   UNL     1      27.513  22.767  27.027  0.00  0.00    +0.000 A 
ATOM     18  O   UNL     1      27.627  22.327  29.530  0.00  0.00    +0.000 OA
ATOM     19  C   UNL     1      26.593  22.477  30.516  0.00  0.00    +0.000 C 
ATOM     20  O   UNL     1      25.892  23.591  30.022  0.00  0.00    +0.000 OA
ENDBRANCH   1  12
BRANCH   1  21
ATOM     21  C   UNL     1      26.407  24.123  23.784  0.00  0.00    +0.000 C 
BRANCH  21  22
ATOM     22  N   UNL     1      26.141  23.409  22.544  0.00  0.00    +0.000 N 
ATOM     23  O   UNL     1      25.164  22.675  22.367  0.00  0.00    +0.000 OA
ATOM     24  O   UNL     1      27.027  23.567  21.529  0.00  0.00    +0.000 OA
ENDBRANCH  21  22
ENDBRANCH   1  21
TORSDOF 4
ENDMDL
MODEL 4
REMARK VINA RESULT:      -7.6     20.551     22.570
REMARK  Name = 
REMARK  4 active torsions:
REMARK  status: ('A' for Active; 'I' for Inactive)
REMARK    1  A    between atoms: C_10  and  C_11
REMARK    2  A    between atoms: C_11  and  C_12
REMARK    3  A    between atoms: C_11  and  C_16
REMARK    4  A    between atoms: C_12  and  N_13
REMARK                            x       y       z     vdW  Elec       q    Type
REMARK                         _______ _______ _______ _____ _____    ______ ____
ROOT
ATOM      1  C   UNL     1      18.900  -7.718  25.717  0.00  0.00    +0.000 C 
ENDROOT
BRANCH   1  11
ATOM      2  C   UNL     1      21.712  -8.995  25.081  0.00  0.00    +0.000 C 
ATOM      3  C   UNL     1      20.953  -9.207  26.346  0.00  0.00    +0.000 A 
ATOM      4  N   UNL     1      21.376  -9.966  27.370  0.00  0.00    +0.000 NA
ATOM      5  C   UNL     1      20.437  -9.916  28.323  0.00  0.00    +0.000 A 
ATOM      6  C   UNL     1      20.367 -10.505  29.562  0.00  0.00    +0.000 A 
ATOM      7  C   UNL     1      19.279 -10.297  30.370  0.00  0.00    +0.000 A 
ATOM      8  C   UNL     1      18.263  -9.495  29.929  0.00  0.00    +0.000 A 
ATOM      9  C   UNL     1      18.344  -8.916  28.697  0.00  0.00    +0.000 A 
ATOM     10  C   UNL     1      19.401  -9.096  27.867  0.00  0.00    +0.000 A 
ATOM     11  C   UNL     1      19.747  -8.653  26.607  0.00  0.00    +0.000 A 
ENDBRANCH   1  11
BRANCH   1  12
ATOM     12  C   UNL     1      17.598  -8.553  25.595  0.00  0.00    +0.000 A 
ATOM     13  C   UNL     1      17.546  -9.844  25.232  0.00  0.00    +0.000 A 
ATOM     14  C   UNL     1      16.329 -10.529  25.144  0.00  0.00    +0.000 A 
ATOM     15  C   UNL     1      15.168  -9.859  25.439  0.00  0.00    +0.000 A 
ATOM     16  C   UNL     1      15.190  -8.532  25.816  0.00  0.00    +0.000 A 
ATOM     17  C   UNL     1      16.435  -7.921  25.878  0.00  0.00    +0.000 A 
ATOM     18  O   UNL     1      13.903  -8.074  26.060  0.00  0.00    +0.000 OA
ATOM     19  C   UNL     1      13.082  -9.243  26.216  0.00  0.00    +0.000 C 
ATOM     20  O   UNL     1      13.800 -10.192  25.466  0.00  0.00    +0.000 OA
ENDBRANCH   1  12
BRANCH   1  21
ATOM     21  C   UNL     1      18.391  -6.704  26.881  0.00  0.00    +0.000 C 
BRANCH  21  22
ATOM     22  N   UNL     1      18.754  -5.384  26.387  0.00  0.00    +0.000 N 
ATOM     23  O   UNL     1      18.124  -4.354  26.648  0.00  0.00    +0.000 OA
ATOM     24  O   UNL     1      19.849  -5.292  25.593  0.00  0.00    +0.000 OA
ENDBRANCH  21  22
ENDBRANCH   1  21
TORSDOF 4
ENDMDL
MODEL 5
REMARK VINA RESULT:      -7.4      4.218      6.860
REMARK  Name = 
REMARK  4 active torsions:
REMARK  status: ('A' for Active; 'I' for Inactive)
REMARK    1  A    between atoms: C_10  and  C_11
REMARK    2  A    between atoms: C_11  and  C_12
REMARK    3  A    between atoms: C_11  and  C_16
REMARK    4  A    between atoms: C_12  and  N_13
REMARK                            x       y       z     vdW  Elec       q    Type
REMARK                         _______ _______ _______ _____ _____    ______ ____
ROOT
ATOM      1  C   UNL     1      19.593  10.835  39.038  0.00  0.00    +0.000 C 
ENDROOT
BRANCH   1  11
ATOM      2  C   UNL     1      20.869  13.614  39.811  0.00  0.00    +0.000 C 
ATOM      3  C   UNL     1      21.504  12.611  38.909  0.00  0.00    +0.000 A 
ATOM      4  N   UNL     1      22.700  12.770  38.317  0.00  0.00    +0.000 NA
ATOM      5  C   UNL     1      22.938  11.671  37.589  0.00  0.00    +0.000 A 
ATOM      6  C   UNL     1      24.002  11.319  36.795  0.00  0.00    +0.000 A 
ATOM      7  C   UNL     1      24.012  10.115  36.140  0.00  0.00    +0.000 A 
ATOM      8  C   UNL     1      22.950   9.267  36.286  0.00  0.00    +0.000 A 
ATOM      9  C   UNL     1      21.899   9.627  37.076  0.00  0.00    +0.000 A 
ATOM     10  C   UNL     1      21.848  10.808  37.741  0.00  0.00    +0.000 A 
ATOM     11  C   UNL     1      20.946  11.422  38.584  0.00  0.00    +0.000 A 
ENDBRANCH   1  11
BRANCH   1  12
ATOM     12  C   UNL     1      18.702  11.222  37.828  0.00  0.00    +0.000 A 
ATOM     13  C   UNL     1      18.253  12.460  37.571  0.00  0.00    +0.000 A 
ATOM     14  C   UNL     1      17.451  12.729  36.456  0.00  0.00    +0.000 A 
ATOM     15  C   UNL     1      17.123  11.699  35.612  0.00  0.00    +0.000 A 
ATOM     16  C   UNL     1      17.570  10.415  35.849  0.00  0.00    +0.000 A 
ATOM     17  C   UNL     1      18.360  10.228  36.975  0.00  0.00    +0.000 A 
ATOM     18  O   UNL     1      17.112   9.550  34.865  0.00  0.00    +0.000 OA
ATOM     19  C   UNL     1      16.685  10.375  33.770  0.00  0.00    +0.000 C 
ATOM     20  O   UNL     1      16.366  11.575  34.430  0.00  0.00    +0.000 OA
ENDBRANCH   1  12
BRANCH   1  21
ATOM     21  C   UNL     1      19.866   9.290  38.612  0.00  0.00    +0.000 C 
BRANCH  21  22
ATOM     22  N   UNL     1      19.695   8.544  39.849  0.00  0.00    +0.000 N 
ATOM     23  O   UNL     1      20.452   8.636  40.820  0.00  0.00    +0.000 OA
ATOM     24  O   UNL     1      18.637   7.699  39.929  0.00  0.00    +0.000 OA
ENDBRANCH  21  22
ENDBRANCH   1  21
TORSDOF 4
ENDMDL
MODEL 6
REMARK VINA RESULT:      -7.4     20.888     22.867
REMARK  Name = 
REMARK  4 active torsions:
REMARK  status: ('A' for Active; 'I' for Inactive)
REMARK    1  A    between atoms: C_10  and  C_11
REMARK    2  A    between atoms: C_11  and  C_12
REMARK    3  A    between atoms: C_11  and  C_16
REMARK    4  A    between atoms: C_12  and  N_13
REMARK                            x       y       z     vdW  Elec       q    Type
REMARK                         _______ _______ _______ _____ _____    ______ ____
ROOT
ATOM      1  C   UNL     1      19.887 -10.335  26.332  0.00  0.00    +0.000 C 
ENDROOT
BRANCH   1  11
ATOM      2  C   UNL     1      22.637  -9.331  25.161  0.00  0.00    +0.000 C 
ATOM      3  C   UNL     1      21.510  -8.440  25.558  0.00  0.00    +0.000 A 
ATOM      4  N   UNL     1      21.529  -7.100  25.463  0.00  0.00    +0.000 NA
ATOM      5  C   UNL     1      20.350  -6.648  25.910  0.00  0.00    +0.000 A 
ATOM      6  C   UNL     1      19.851  -5.374  26.029  0.00  0.00    +0.000 A 
ATOM      7  C   UNL     1      18.590  -5.165  26.523  0.00  0.00    +0.000 A 
ATOM      8  C   UNL     1      17.833  -6.240  26.898  0.00  0.00    +0.000 A 
ATOM      9  C   UNL     1      18.339  -7.501  26.775  0.00  0.00    +0.000 A 
ATOM     10  C   UNL     1      19.581  -7.751  26.291  0.00  0.00    +0.000 A 
ATOM     11  C   UNL     1      20.334  -8.883  26.060  0.00  0.00    +0.000 A 
ENDBRANCH   1  11
BRANCH   1  12
ATOM     12  C   UNL     1      19.584 -10.253  27.852  0.00  0.00    +0.000 A 
ATOM     13  C   UNL     1      20.476  -9.913  28.795  0.00  0.00    +0.000 A 
ATOM     14  C   UNL     1      20.125  -9.862  30.148  0.00  0.00    +0.000 A 
ATOM     15  C   UNL     1      18.837 -10.166  30.510  0.00  0.00    +0.000 A 
ATOM     16  C   UNL     1      17.897 -10.519  29.563  0.00  0.00    +0.000 A 
ATOM     17  C   UNL     1      18.322 -10.548  28.243  0.00  0.00    +0.000 A 
ATOM     18  O   UNL     1      16.674 -10.781  30.166  0.00  0.00    +0.000 OA
ATOM     19  C   UNL     1      16.741 -10.207  31.481  0.00  0.00    +0.000 C 
ATOM     20  O   UNL     1      18.125 -10.226  31.725  0.00  0.00    +0.000 OA
ENDBRANCH   1  12
BRANCH   1  21
ATOM     21  C   UNL     1      18.355 -10.198  25.805  0.00  0.00    +0.000 C 
BRANCH  21  22
ATOM     22  N   UNL     1      18.446 -10.461  24.376  0.00  0.00    +0.000 N 
ATOM     23  O   UNL     1      19.057 -11.416  23.889  0.00  0.00    +0.000 OA
ATOM     24  O   UNL     1      17.818  -9.597  23.540  0.00  0.00    +0.000 OA
ENDBRANCH  21  22
ENDBRANCH   1  21
TORSDOF 4
ENDMDL
MODEL 7
REMARK VINA RESULT:      -7.4     18.132     20.051
REMARK  Name = 
REMARK  4 active torsions:
REMARK  status: ('A' for Active; 'I' for Inactive)
REMARK    1  A    between atoms: C_10  and  C_11
REMARK    2  A    between atoms: C_11  and  C_12
REMARK    3  A    between atoms: C_11  and  C_16
REMARK    4  A    between atoms: C_12  and  N_13
REMARK                            x       y       z     vdW  Elec       q    Type
REMARK                         _______ _______ _______ _____ _____    ______ ____
ROOT
ATOM      1  C   UNL     1      28.368  22.401  27.858  0.00  0.00    +0.000 C 
ENDROOT
BRANCH   1  11
ATOM      2  C   UNL     1      26.415  21.560  30.188  0.00  0.00    +0.000 C 
ATOM      3  C   UNL     1      26.516  22.935  29.622  0.00  0.00    +0.000 A 
ATOM      4  N   UNL     1      25.787  23.985  30.038  0.00  0.00    +0.000 NA
ATOM      5  C   UNL     1      26.151  25.044  29.302  0.00  0.00    +0.000 A 
ATOM      6  C   UNL     1      25.723  26.348  29.315  0.00  0.00    +0.000 A 
ATOM      7  C   UNL     1      26.259  27.264  28.446  0.00  0.00    +0.000 A 
ATOM      8  C   UNL     1      27.225  26.863  27.565  0.00  0.00    +0.000 A 
ATOM      9  C   UNL     1      27.641  25.564  27.563  0.00  0.00    +0.000 A 
ATOM     10  C   UNL     1      27.138  24.627  28.404  0.00  0.00    +0.000 A 
ATOM     11  C   UNL     1      27.358  23.284  28.622  0.00  0.00    +0.000 A 
ENDBRANCH   1  11
BRANCH   1  12
ATOM     12  C   UNL     1      27.937  22.686  26.395  0.00  0.00    +0.000 A 
ATOM     13  C   UNL     1      26.666  22.739  25.967  0.00  0.00    +0.000 A 
ATOM     14  C   UNL     1      26.358  23.002  24.627  0.00  0.00    +0.000 A 
ATOM     15  C   UNL     1      27.384  23.209  23.739  0.00  0.00    +0.000 A 
ATOM     16  C   UNL     1      28.700  23.161  24.151  0.00  0.00    +0.000 A 
ATOM     17  C   UNL     1      28.925  22.894  25.494  0.00  0.00    +0.000 A 
ATOM     18  O   UNL     1      29.553  23.400  23.082  0.00  0.00    +0.000 OA
ATOM     19  C   UNL     1      28.751  23.995  22.051  0.00  0.00    +0.000 C 
ATOM     20  O   UNL     1      27.475  23.491  22.362  0.00  0.00    +0.000 OA
ENDBRANCH   1  12
BRANCH   1  21
ATOM     21  C   UNL     1      29.634  23.418  27.907  0.00  0.00    +0.000 C 
BRANCH  21  22
ATOM     22  N   UNL     1      30.639  22.700  28.677  0.00  0.00    +0.000 N 
ATOM     23  O   UNL     1      31.642  22.177  28.182  0.00  0.00    +0.000 OA
ATOM     24  O   UNL     1      30.451  22.607  30.017  0.00  0.00    +0.000 OA
ENDBRANCH  21  22
ENDBRANCH   1  21
TORSDOF 4
ENDMDL
MODEL 8
REMARK VINA RESULT:      -7.3     20.572     22.562
REMARK  Name = 
REMARK  4 active torsions:
REMARK  status: ('A' for Active; 'I' for Inactive)
REMARK    1  A    between atoms: C_10  and  C_11
REMARK    2  A    between atoms: C_11  and  C_12
REMARK    3  A    between atoms: C_11  and  C_16
REMARK    4  A    between atoms: C_12  and  N_13
REMARK                            x       y       z     vdW  Elec       q    Type
REMARK                         _______ _______ _______ _____ _____    ______ ____
ROOT
ATOM      1  C   UNL     1      18.587  -8.029  27.280  0.00  0.00    +0.000 C 
ENDROOT
BRANCH   1  11
ATOM      2  C   UNL     1      18.457  -4.983  26.472  0.00  0.00    +0.000 C 
ATOM      3  C   UNL     1      19.551  -5.917  26.081  0.00  0.00    +0.000 A 
ATOM      4  N   UNL     1      20.616  -5.573  25.338  0.00  0.00    +0.000 NA
ATOM      5  C   UNL     1      21.378  -6.666  25.196  0.00  0.00    +0.000 A 
ATOM      6  C   UNL     1      22.565  -6.867  24.536  0.00  0.00    +0.000 A 
ATOM      7  C   UNL     1      23.160  -8.102  24.536  0.00  0.00    +0.000 A 
ATOM      8  C   UNL     1      22.557  -9.133  25.200  0.00  0.00    +0.000 A 
ATOM      9  C   UNL     1      21.378  -8.922  25.852  0.00  0.00    +0.000 A 
ATOM     10  C   UNL     1      20.756  -7.717  25.877  0.00  0.00    +0.000 A 
ATOM     11  C   UNL     1      19.596  -7.222  26.434  0.00  0.00    +0.000 A 
ENDBRANCH   1  11
BRANCH   1  12
ATOM     12  C   UNL     1      17.642  -8.551  26.165  0.00  0.00    +0.000 A 
ATOM     13  C   UNL     1      17.992  -9.429  25.213  0.00  0.00    +0.000 A 
ATOM     14  C   UNL     1      17.080  -9.852  24.240  0.00  0.00    +0.000 A 
ATOM     15  C   UNL     1      15.802  -9.353  24.267  0.00  0.00    +0.000 A 
ATOM     16  C   UNL     1      15.413  -8.450  25.235  0.00  0.00    +0.000 A 
ATOM     17  C   UNL     1      16.375  -8.078  26.164  0.00  0.00    +0.000 A 
ATOM     18  O   UNL     1      14.084  -8.091  25.060  0.00  0.00    +0.000 OA
ATOM     19  C   UNL     1      13.509  -9.083  24.195  0.00  0.00    +0.000 C 
ATOM     20  O   UNL     1      14.640  -9.530  23.490  0.00  0.00    +0.000 OA
ENDBRANCH   1  12
BRANCH   1  21
ATOM     21  C   UNL     1      19.474  -9.381  27.454  0.00  0.00    +0.000 C 
BRANCH  21  22
ATOM     22  N   UNL     1      19.553  -9.571  28.895  0.00  0.00    +0.000 N 
ATOM     23  O   UNL     1      20.573  -9.939  29.486  0.00  0.00    +0.000 OA
ATOM     24  O   UNL     1      18.434  -9.328  29.621  0.00  0.00    +0.000 OA
ENDBRANCH  21  22
ENDBRANCH   1  21
TORSDOF 4
ENDMDL
MODEL 9
REMARK VINA RESULT:      -7.2     29.846     32.283
REMARK  Name = 
REMARK  4 active torsions:
REMARK  status: ('A' for Active; 'I' for Inactive)
REMARK    1  A    between atoms: C_10  and  C_11
REMARK    2  A    between atoms: C_11  and  C_12
REMARK    3  A    between atoms: C_11  and  C_16
REMARK    4  A    between atoms: C_12  and  N_13
REMARK                            x       y       z     vdW  Elec       q    Type
REMARK                         _______ _______ _______ _____ _____    ______ ____
ROOT
ATOM      1  C   UNL     1      33.375  19.952  10.321  0.00  0.00    +0.000 C 
ENDROOT
BRANCH   1  11
ATOM      2  C   UNL     1      35.908  19.339  12.097  0.00  0.00    +0.000 C 
ATOM      3  C   UNL     1      35.660  20.629  11.392  0.00  0.00    +0.000 A 
ATOM      4  N   UNL     1      36.488  21.686  11.427  0.00  0.00    +0.000 NA
ATOM      5  C   UNL     1      35.937  22.653  10.681  0.00  0.00    +0.000 A 
ATOM      6  C   UNL     1      36.361  23.925  10.384  0.00  0.00    +0.000 A 
ATOM      7  C   UNL     1      35.606  24.740   9.581  0.00  0.00    +0.000 A 
ATOM      8  C   UNL     1      34.424  24.272   9.078  0.00  0.00    +0.000 A 
ATOM      9  C   UNL     1      34.013  23.007   9.381  0.00  0.00    +0.000 A 
ATOM     10  C   UNL     1      34.729  22.169  10.170  0.00  0.00    +0.000 A 
ATOM     11  C   UNL     1      34.569  20.880  10.633  0.00  0.00    +0.000 A 
ENDBRANCH   1  11
BRANCH   1  12
ATOM     12  C   UNL     1      32.270  20.620  11.182  0.00  0.00    +0.000 A 
ATOM     13  C   UNL     1      32.381  20.896  12.490  0.00  0.00    +0.000 A 
ATOM     14  C   UNL     1      31.337  21.501  13.199  0.00  0.00    +0.000 A 
ATOM     15  C   UNL     1      30.179  21.817  12.534  0.00  0.00    +0.000 A 
ATOM     16  C   UNL     1      30.037  21.545  11.188  0.00  0.00    +0.000 A 
ATOM     17  C   UNL     1      31.116  20.943  10.555  0.00  0.00    +0.000 A 
ATOM     18  O   UNL     1      28.788  21.951  10.739  0.00  0.00    +0.000 OA
ATOM     19  C   UNL     1      28.274  22.850  11.734  0.00  0.00    +0.000 C 
ATOM     20  O   UNL     1      28.951  22.411  12.886  0.00  0.00    +0.000 OA
ENDBRANCH   1  12
BRANCH   1  21
ATOM     21  C   UNL     1      32.953  20.606   8.893  0.00  0.00    +0.000 C 
BRANCH  21  22
ATOM     22  N   UNL     1      33.215  19.550   7.927  0.00  0.00    +0.000 N 
ATOM     23  O   UNL     1      33.824  18.509   8.192  0.00  0.00    +0.000 OA
ATOM     24  O   UNL     1      32.758  19.732   6.663  0.00  0.00    +0.000 OA
ENDBRANCH  21  22
ENDBRANCH   1  21
TORSDOF 4
ENDMDL
MODEL 10
REMARK VINA RESULT:      -7.2     19.003     20.895
REMARK  Name = 
REMARK  4 active torsions:
REMARK  status: ('A' for Active; 'I' for Inactive)
REMARK    1  A    between atoms: C_10  and  C_11
REMARK    2  A    between atoms: C_11  and  C_12
REMARK    3  A    between atoms: C_11  and  C_16
REMARK    4  A    between atoms: C_12  and  N_13
REMARK                            x       y       z     vdW  Elec       q    Type
REMARK                         _______ _______ _______ _____ _____    ______ ____
ROOT
ATOM      1  C   UNL     1      25.836  23.687  24.807  0.00  0.00    +0.000 C 
ENDROOT
BRANCH   1  11
ATOM      2  C   UNL     1      25.750  23.978  27.946  0.00  0.00    +0.000 C 
ATOM      3  C   UNL     1      26.975  23.658  27.159  0.00  0.00    +0.000 A 
ATOM      4  N   UNL     1      28.190  23.452  27.692  0.00  0.00    +0.000 NA
ATOM      5  C   UNL     1      29.033  23.191  26.683  0.00  0.00    +0.000 A 
ATOM      6  C   UNL     1      30.377  22.913  26.671  0.00  0.00    +0.000 A 
ATOM      7  C   UNL     1      31.028  22.676  25.488  0.00  0.00    +0.000 A 
ATOM      8  C   UNL     1      30.322  22.720  24.318  0.00  0.00    +0.000 A 
ATOM      9  C   UNL     1      28.987  22.998  24.343  0.00  0.00    +0.000 A 
ATOM     10  C   UNL     1      28.306  23.238  25.490  0.00  0.00    +0.000 A 
ATOM     11  C   UNL     1      26.998  23.536  25.811  0.00  0.00    +0.000 A 
ENDBRANCH   1  11
BRANCH   1  12
ATOM     12  C   UNL     1      25.750  25.234  24.711  0.00  0.00    +0.000 A 
ATOM     13  C   UNL     1      26.732  26.030  24.259  0.00  0.00    +0.000 A 
ATOM     14  C   UNL     1      26.577  27.419  24.203  0.00  0.00    +0.000 A 
ATOM     15  C   UNL     1      25.393  27.972  24.620  0.00  0.00    +0.000 A 
ATOM     16  C   UNL     1      24.365  27.179  25.089  0.00  0.00    +0.000 A 
ATOM     17  C   UNL     1      24.595  25.810  25.115  0.00  0.00    +0.000 A 
ATOM     18  O   UNL     1      23.275  27.959  25.451  0.00  0.00    +0.000 OA
ATOM     19  C   UNL     1      23.474  29.241  24.836  0.00  0.00    +0.000 C 
ATOM     20  O   UNL     1      24.875  29.279  24.713  0.00  0.00    +0.000 OA
ENDBRANCH   1  12
BRANCH   1  21
ATOM     21  C   UNL     1      26.685  23.439  23.444  0.00  0.00    +0.000 C 
BRANCH  21  22
ATOM     22  N   UNL     1      25.679  23.071  22.459  0.00  0.00    +0.000 N 
ATOM     23  O   UNL     1      24.659  22.427  22.724  0.00  0.00    +0.000 OA
ATOM     24  O   UNL     1      25.884  23.466  21.178  0.00  0.00    +0.000 OA
ENDBRANCH  21  22
ENDBRANCH   1  21
TORSDOF 4
ENDMDL
