MODEL 1
REMARK VINA RESULT:      -7.0      0.000      0.000
REMARK  Name = 
REMARK  8 active torsions:
REMARK  status: ('A' for Active; 'I' for Inactive)
REMARK    1  A    between atoms: N_2  and  C_3
REMARK    2  A    between atoms: N_2  and  C_10
REMARK    3  A    between atoms: C_3  and  C_4
REMARK    4  A    between atoms: C_13  and  C_14
REMARK    5  A    between atoms: C_14  and  C_15
REMARK    6  A    between atoms: C_15  and  C_16
REMARK    7  A    between atoms: C_16  and  C_17
REMARK    8  A    between atoms: C_23  and  N_24
REMARK                            x       y       z     vdW  Elec       q    Type
REMARK                         _______ _______ _______ _____ _____    ______ ____
ROOT
ATOM      1  C   UNL     1      27.231  24.428  30.335  0.00  0.00    +0.000 C 
ENDROOT
BRANCH   1   5
ATOM      2  C   UNL     1      25.948  25.727  26.445  0.00  0.00    +0.000 C 
ATOM      3  C   UNL     1      25.445  24.458  27.047  0.00  0.00    +0.000 C 
ATOM      4  C   UNL     1      25.449  24.530  28.542  0.00  0.00    +0.000 C 
ATOM      5  C   UNL     1      26.814  24.900  29.007  0.00  0.00    +0.000 C 
ATOM      6  C   UNL     1      27.305  26.192  28.510  0.00  0.00    +0.000 C 
ATOM      7  C   UNL     1      27.263  26.202  26.994  0.00  0.00    +0.000 C 
BRANCH   2   9
ATOM      8  C   UNL     1      25.508  28.034  26.136  0.00  0.00    +0.000 C 
ATOM      9  N   UNL     1      24.936  26.759  26.441  0.00  0.00    +0.000 NA
BRANCH   9  10
ATOM     10  C   UNL     1      23.921  26.403  25.495  0.00  0.00    +0.000 C 
BRANCH  10  11
ATOM     11  C   UNL     1      22.559  26.582  26.038  0.00  0.00    +0.000 A 
ATOM     12  C   UNL     1      21.546  27.144  25.267  0.00  0.00    +0.000 A 
ATOM     13  C   UNL     1      20.280  27.328  25.718  0.00  0.00    +0.000 A 
ATOM     14  C   UNL     1      19.963  26.944  27.002  0.00  0.00    +0.000 A 
ATOM     15  C   UNL     1      20.932  26.384  27.797  0.00  0.00    +0.000 A 
ATOM     16  C   UNL     1      22.218  26.205  27.317  0.00  0.00    +0.000 A 
ENDBRANCH  10  11
ENDBRANCH   9  10
ENDBRANCH   2   9
ENDBRANCH   1   5
BRANCH   1  17
ATOM     17  C   UNL     1      28.484  23.608  30.306  0.00  0.00    +0.000 C 
BRANCH  17  18
ATOM     18  C   UNL     1      28.318  22.582  29.178  0.00  0.00    +0.000 C 
BRANCH  18  19
ATOM     19  C   UNL     1      29.536  22.681  28.349  0.00  0.00    +0.000 A 
ATOM     20  C   UNL     1      30.823  22.634  28.823  0.00  0.00    +0.000 A 
ATOM     21  N   UNL     1      31.625  22.756  27.768  0.00  0.00    +0.000 NA
ATOM     22  C   UNL     1      30.905  22.880  26.635  0.00  0.00    +0.000 A 
ATOM     23  C   UNL     1      31.270  23.033  25.307  0.00  0.00    +0.000 A 
ATOM     24  C   UNL     1      30.300  23.142  24.317  0.00  0.00    +0.000 A 
ATOM     25  C   UNL     1      28.977  23.095  24.684  0.00  0.00    +0.000 A 
ATOM     26  C   UNL     1      28.596  22.943  26.000  0.00  0.00    +0.000 A 
ATOM     27  C   UNL     1      29.589  22.835  26.980  0.00  0.00    +0.000 A 
BRANCH  25  28
ATOM     28  N   UNL     1      27.916  23.203  23.720  0.00  0.00    +0.000 N 
ATOM     29  C   UNL     1      28.100  23.474  22.425  0.00  0.00    +0.000 A 
ATOM     30  N   UNL     1      26.899  23.496  21.840  0.00  0.00    +0.000 NA
ATOM     31  N   UNL     1      25.981  23.244  22.754  0.00  0.00    +0.000 NA
ATOM     32  C   UNL     1      26.604  23.061  23.920  0.00  0.00    +0.000 A 
ENDBRANCH  25  28
ENDBRANCH  18  19
ENDBRANCH  17  18
ENDBRANCH   1  17
TORSDOF 8
ENDMDL
MODEL 2
REMARK VINA RESULT:      -6.8      2.546      4.735
REMARK  Name = 
REMARK  8 active torsions:
REMARK  status: ('A' for Active; 'I' for Inactive)
REMARK    1  A    between atoms: N_2  and  C_3
REMARK    2  A    between atoms: N_2  and  C_10
REMARK    3  A    between atoms: C_3  and  C_4
REMARK    4  A    between atoms: C_13  and  C_14
REMARK    5  A    between atoms: C_14  and  C_15
REMARK    6  A    between atoms: C_15  and  C_16
REMARK    7  A    between atoms: C_16  and  C_17
REMARK    8  A    between atoms: C_23  and  N_24
REMARK                            x       y       z     vdW  Elec       q    Type
REMARK                         _______ _______ _______ _____ _____    ______ ____
ROOT
ATOM      1  C   UNL     1      24.681  25.116  24.713  0.00  0.00    +0.000 C 
ENDROOT
BRANCH   1   5
ATOM      2  C   UNL     1      23.863  27.392  28.264  0.00  0.00    +0.000 C 
ATOM      3  C   UNL     1      23.333  27.809  26.933  0.00  0.00    +0.000 C 
ATOM      4  C   UNL     1      23.142  26.629  26.033  0.00  0.00    +0.000 C 
ATOM      5  C   UNL     1      24.422  25.872  25.946  0.00  0.00    +0.000 C 
ATOM      6  C   UNL     1      24.926  25.363  27.227  0.00  0.00    +0.000 C 
ATOM      7  C   UNL     1      25.079  26.512  28.205  0.00  0.00    +0.000 C 
BRANCH   2   9
ATOM      8  C   UNL     1      23.290  26.707  30.457  0.00  0.00    +0.000 C 
ATOM      9  N   UNL     1      22.823  26.859  29.114  0.00  0.00    +0.000 NA
BRANCH   9  10
ATOM     10  C   UNL     1      21.688  27.730  29.052  0.00  0.00    +0.000 C 
BRANCH  10  11
ATOM     11  C   UNL     1      20.413  27.005  29.236  0.00  0.00    +0.000 A 
ATOM     12  C   UNL     1      19.487  27.412  30.191  0.00  0.00    +0.000 A 
ATOM     13  C   UNL     1      18.304  26.782  30.398  0.00  0.00    +0.000 A 
ATOM     14  C   UNL     1      17.986  25.682  29.632  0.00  0.00    +0.000 A 
ATOM     15  C   UNL     1      18.870  25.247  28.678  0.00  0.00    +0.000 A 
ATOM     16  C   UNL     1      20.073  25.904  28.483  0.00  0.00    +0.000 A 
ENDBRANCH  10  11
ENDBRANCH   9  10
ENDBRANCH   2   9
ENDBRANCH   1   5
BRANCH   1  17
ATOM     17  C   UNL     1      26.132  25.063  24.343  0.00  0.00    +0.000 C 
BRANCH  17  18
ATOM     18  C   UNL     1      26.391  23.670  23.757  0.00  0.00    +0.000 C 
BRANCH  18  19
ATOM     19  C   UNL     1      27.730  23.266  24.232  0.00  0.00    +0.000 A 
ATOM     20  C   UNL     1      28.843  23.128  23.440  0.00  0.00    +0.000 A 
ATOM     21  N   UNL     1      29.838  22.754  24.240  0.00  0.00    +0.000 NA
ATOM     22  C   UNL     1      29.410  22.645  25.513  0.00  0.00    +0.000 A 
ATOM     23  C   UNL     1      30.053  22.291  26.689  0.00  0.00    +0.000 A 
ATOM     24  C   UNL     1      29.355  22.257  27.891  0.00  0.00    +0.000 A 
ATOM     25  C   UNL     1      28.021  22.581  27.887  0.00  0.00    +0.000 A 
ATOM     26  C   UNL     1      27.365  22.936  26.727  0.00  0.00    +0.000 A 
ATOM     27  C   UNL     1      28.087  22.963  25.528  0.00  0.00    +0.000 A 
BRANCH  25  28
ATOM     28  N   UNL     1      27.230  22.567  29.088  0.00  0.00    +0.000 N 
ATOM     29  C   UNL     1      26.849  23.661  29.752  0.00  0.00    +0.000 A 
ATOM     30  N   UNL     1      26.134  23.268  30.809  0.00  0.00    +0.000 NA
ATOM     31  N   UNL     1      26.069  21.949  30.805  0.00  0.00    +0.000 NA
ATOM     32  C   UNL     1      26.746  21.509  29.742  0.00  0.00    +0.000 A 
ENDBRANCH  25  28
ENDBRANCH  18  19
ENDBRANCH  17  18
ENDBRANCH   1  17
TORSDOF 8
ENDMDL
MODEL 3
REMARK VINA RESULT:      -6.7      2.429      5.722
REMARK  Name = 
REMARK  8 active torsions:
REMARK  status: ('A' for Active; 'I' for Inactive)
REMARK    1  A    between atoms: N_2  and  C_3
REMARK    2  A    between atoms: N_2  and  C_10
REMARK    3  A    between atoms: C_3  and  C_4
REMARK    4  A    between atoms: C_13  and  C_14
REMARK    5  A    between atoms: C_14  and  C_15
REMARK    6  A    between atoms: C_15  and  C_16
REMARK    7  A    between atoms: C_16  and  C_17
REMARK    8  A    between atoms: C_23  and  N_24
REMARK                            x       y       z     vdW  Elec       q    Type
REMARK                         _______ _______ _______ _____ _____    ______ ____
ROOT
ATOM      1  C   UNL     1      24.862  27.552  27.190  0.00  0.00    +0.000 C 
ENDROOT
BRANCH   1   5
ATOM      2  C   UNL     1      28.147  28.001  24.458  0.00  0.00    +0.000 C 
ATOM      3  C   UNL     1      28.338  28.126  25.932  0.00  0.00    +0.000 C 
ATOM      4  C   UNL     1      27.328  27.313  26.679  0.00  0.00    +0.000 C 
ATOM      5  C   UNL     1      25.963  27.701  26.229  0.00  0.00    +0.000 C 
ATOM      6  C   UNL     1      25.705  27.503  24.797  0.00  0.00    +0.000 C 
ATOM      7  C   UNL     1      26.743  28.255  23.986  0.00  0.00    +0.000 C 
BRANCH   2   9
ATOM      8  C   UNL     1      28.475  26.655  22.536  0.00  0.00    +0.000 C 
ATOM      9  N   UNL     1      28.698  26.767  23.945  0.00  0.00    +0.000 NA
BRANCH   9  10
ATOM     10  C   UNL     1      30.095  26.724  24.257  0.00  0.00    +0.000 C 
BRANCH  10  11
ATOM     11  C   UNL     1      30.504  25.422  24.823  0.00  0.00    +0.000 A 
ATOM     12  C   UNL     1      30.549  25.217  26.198  0.00  0.00    +0.000 A 
ATOM     13  C   UNL     1      30.916  24.042  26.766  0.00  0.00    +0.000 A 
ATOM     14  C   UNL     1      31.266  22.985  25.955  0.00  0.00    +0.000 A 
ATOM     15  C   UNL     1      31.235  23.143  24.592  0.00  0.00    +0.000 A 
ATOM     16  C   UNL     1      30.857  24.351  24.033  0.00  0.00    +0.000 A 
ENDBRANCH  10  11
ENDBRANCH   9  10
ENDBRANCH   2   9
ENDBRANCH   1   5
BRANCH   1  17
ATOM     17  C   UNL     1      25.311  27.071  28.536  0.00  0.00    +0.000 C 
BRANCH  17  18
ATOM     18  C   UNL     1      24.576  25.752  28.804  0.00  0.00    +0.000 C 
BRANCH  18  19
ATOM     19  C   UNL     1      25.623  24.720  28.949  0.00  0.00    +0.000 A 
ATOM     20  C   UNL     1      26.189  24.327  30.136  0.00  0.00    +0.000 A 
ATOM     21  N   UNL     1      27.081  23.384  29.842  0.00  0.00    +0.000 NA
ATOM     22  C   UNL     1      27.112  23.156  28.514  0.00  0.00    +0.000 A 
ATOM     23  C   UNL     1      27.858  22.290  27.731  0.00  0.00    +0.000 A 
ATOM     24  C   UNL     1      27.687  22.261  26.351  0.00  0.00    +0.000 A 
ATOM     25  C   UNL     1      26.764  23.106  25.786  0.00  0.00    +0.000 A 
ATOM     26  C   UNL     1      26.012  23.974  26.549  0.00  0.00    +0.000 A 
ATOM     27  C   UNL     1      26.201  23.986  27.935  0.00  0.00    +0.000 A 
BRANCH  25  28
ATOM     28  N   UNL     1      26.530  23.138  24.367  0.00  0.00    +0.000 N 
ATOM     29  C   UNL     1      27.483  23.330  23.451  0.00  0.00    +0.000 A 
ATOM     30  N   UNL     1      26.904  23.297  22.248  0.00  0.00    +0.000 NA
ATOM     31  N   UNL     1      25.611  23.087  22.410  0.00  0.00    +0.000 NA
ATOM     32  C   UNL     1      25.373  22.988  23.720  0.00  0.00    +0.000 A 
ENDBRANCH  25  28
ENDBRANCH  18  19
ENDBRANCH  17  18
ENDBRANCH   1  17
TORSDOF 8
ENDMDL
MODEL 4
REMARK VINA RESULT:      -6.6      3.461      9.254
REMARK  Name = 
REMARK  8 active torsions:
REMARK  status: ('A' for Active; 'I' for Inactive)
REMARK    1  A    between atoms: N_2  and  C_3
REMARK    2  A    between atoms: N_2  and  C_10
REMARK    3  A    between atoms: C_3  and  C_4
REMARK    4  A    between atoms: C_13  and  C_14
REMARK    5  A    between atoms: C_14  and  C_15
REMARK    6  A    between atoms: C_15  and  C_16
REMARK    7  A    between atoms: C_16  and  C_17
REMARK    8  A    between atoms: C_23  and  N_24
REMARK                            x       y       z     vdW  Elec       q    Type
REMARK                         _______ _______ _______ _____ _____    ______ ____
ROOT
ATOM      1  C   UNL     1      31.991  24.444  26.821  0.00  0.00    +0.000 C 
ENDROOT
BRANCH   1   5
ATOM      2  C   UNL     1      31.377  21.883  30.216  0.00  0.00    +0.000 C 
ATOM      3  C   UNL     1      32.273  21.484  29.093  0.00  0.00    +0.000 C 
ATOM      4  C   UNL     1      32.860  22.683  28.417  0.00  0.00    +0.000 C 
ATOM      5  C   UNL     1      31.758  23.591  27.996  0.00  0.00    +0.000 C 
ATOM      6  C   UNL     1      30.910  24.082  29.090  0.00  0.00    +0.000 C 
ATOM      7  C   UNL     1      30.337  22.904  29.854  0.00  0.00    +0.000 C 
BRANCH   2   9
ATOM      8  C   UNL     1      31.249  22.662  32.450  0.00  0.00    +0.000 C 
ATOM      9  N   UNL     1      32.125  22.238  31.401  0.00  0.00    +0.000 NA
BRANCH   9  10
ATOM     10  C   UNL     1      32.910  21.109  31.803  0.00  0.00    +0.000 C 
BRANCH  10  11
ATOM     11  C   UNL     1      34.320  21.469  32.060  0.00  0.00    +0.000 A 
ATOM     12  C   UNL     1      35.162  20.616  32.767  0.00  0.00    +0.000 A 
ATOM     13  C   UNL     1      36.463  20.899  33.027  0.00  0.00    +0.000 A 
ATOM     14  C   UNL     1      36.994  22.087  32.575  0.00  0.00    +0.000 A 
ATOM     15  C   UNL     1      36.199  22.957  31.873  0.00  0.00    +0.000 A 
ATOM     16  C   UNL     1      34.874  22.649  31.618  0.00  0.00    +0.000 A 
ENDBRANCH  10  11
ENDBRANCH   9  10
ENDBRANCH   2   9
ENDBRANCH   1   5
BRANCH   1  17
ATOM     17  C   UNL     1      31.748  23.741  25.521  0.00  0.00    +0.000 C 
BRANCH  17  18
ATOM     18  C   UNL     1      30.812  22.563  25.820  0.00  0.00    +0.000 C 
BRANCH  18  19
ATOM     19  C   UNL     1      29.537  22.866  25.138  0.00  0.00    +0.000 A 
ATOM     20  C   UNL     1      29.355  22.903  23.779  0.00  0.00    +0.000 A 
ATOM     21  N   UNL     1      28.077  23.208  23.571  0.00  0.00    +0.000 NA
ATOM     22  C   UNL     1      27.430  23.371  24.742  0.00  0.00    +0.000 A 
ATOM     23  C   UNL     1      26.118  23.690  25.050  0.00  0.00    +0.000 A 
ATOM     24  C   UNL     1      25.709  23.798  26.374  0.00  0.00    +0.000 A 
ATOM     25  C   UNL     1      26.633  23.582  27.367  0.00  0.00    +0.000 A 
ATOM     26  C   UNL     1      27.943  23.263  27.080  0.00  0.00    +0.000 A 
ATOM     27  C   UNL     1      28.332  23.159  25.740  0.00  0.00    +0.000 A 
BRANCH  25  28
ATOM     28  N   UNL     1      26.290  23.677  28.760  0.00  0.00    +0.000 N 
ATOM     29  C   UNL     1      26.482  22.701  29.652  0.00  0.00    +0.000 A 
ATOM     30  N   UNL     1      26.048  23.141  30.836  0.00  0.00    +0.000 NA
ATOM     31  N   UNL     1      25.593  24.371  30.686  0.00  0.00    +0.000 NA
ATOM     32  C   UNL     1      25.740  24.709  29.404  0.00  0.00    +0.000 A 
ENDBRANCH  25  28
ENDBRANCH  18  19
ENDBRANCH  17  18
ENDBRANCH   1  17
TORSDOF 8
ENDMDL
MODEL 5
REMARK VINA RESULT:      -6.6      2.603      5.120
REMARK  Name = 
REMARK  8 active torsions:
REMARK  status: ('A' for Active; 'I' for Inactive)
REMARK    1  A    between atoms: N_2  and  C_3
REMARK    2  A    between atoms: N_2  and  C_10
REMARK    3  A    between atoms: C_3  and  C_4
REMARK    4  A    between atoms: C_13  and  C_14
REMARK    5  A    between atoms: C_14  and  C_15
REMARK    6  A    between atoms: C_15  and  C_16
REMARK    7  A    between atoms: C_16  and  C_17
REMARK    8  A    between atoms: C_23  and  N_24
REMARK                            x       y       z     vdW  Elec       q    Type
REMARK                         _______ _______ _______ _____ _____    ______ ____
ROOT
ATOM      1  C   UNL     1      26.832  26.270  24.518  0.00  0.00    +0.000 C 
ENDROOT
BRANCH   1   5
ATOM      2  C   UNL     1      23.173  26.207  26.768  0.00  0.00    +0.000 C 
ATOM      3  C   UNL     1      24.327  25.338  27.136  0.00  0.00    +0.000 C 
ATOM      4  C   UNL     1      25.624  25.956  26.719  0.00  0.00    +0.000 C 
ATOM      5  C   UNL     1      25.567  26.272  25.265  0.00  0.00    +0.000 C 
ATOM      6  C   UNL     1      24.499  27.202  24.877  0.00  0.00    +0.000 C 
ATOM      7  C   UNL     1      23.160  26.656  25.334  0.00  0.00    +0.000 C 
BRANCH   2   9
ATOM      8  C   UNL     1      21.970  28.187  27.261  0.00  0.00    +0.000 C 
ATOM      9  N   UNL     1      23.001  27.298  27.700  0.00  0.00    +0.000 NA
BRANCH   9  10
ATOM     10  C   UNL     1      22.707  26.756  28.992  0.00  0.00    +0.000 C 
BRANCH  10  11
ATOM     11  C   UNL     1      23.777  27.031  29.974  0.00  0.00    +0.000 A 
ATOM     12  C   UNL     1      23.843  26.337  31.178  0.00  0.00    +0.000 A 
ATOM     13  C   UNL     1      24.804  26.551  32.110  0.00  0.00    +0.000 A 
ATOM     14  C   UNL     1      25.774  27.499  31.869  0.00  0.00    +0.000 A 
ATOM     15  C   UNL     1      25.747  28.206  30.693  0.00  0.00    +0.000 A 
ATOM     16  C   UNL     1      24.757  27.973  29.755  0.00  0.00    +0.000 A 
ENDBRANCH  10  11
ENDBRANCH   9  10
ENDBRANCH   2   9
ENDBRANCH   1   5
BRANCH   1  17
ATOM     17  C   UNL     1      26.799  25.403  23.297  0.00  0.00    +0.000 C 
BRANCH  17  18
ATOM     18  C   UNL     1      26.508  23.975  23.774  0.00  0.00    +0.000 C 
BRANCH  18  19
ATOM     19  C   UNL     1      27.798  23.425  24.240  0.00  0.00    +0.000 A 
ATOM     20  C   UNL     1      28.898  23.206  23.450  0.00  0.00    +0.000 A 
ATOM     21  N   UNL     1      29.845  22.709  24.241  0.00  0.00    +0.000 NA
ATOM     22  C   UNL     1      29.398  22.599  25.508  0.00  0.00    +0.000 A 
ATOM     23  C   UNL     1      29.993  22.144  26.673  0.00  0.00    +0.000 A 
ATOM     24  C   UNL     1      29.286  22.138  27.871  0.00  0.00    +0.000 A 
ATOM     25  C   UNL     1      27.990  22.591  27.871  0.00  0.00    +0.000 A 
ATOM     26  C   UNL     1      27.382  23.048  26.721  0.00  0.00    +0.000 A 
ATOM     27  C   UNL     1      28.112  23.045  25.527  0.00  0.00    +0.000 A 
BRANCH  25  28
ATOM     28  N   UNL     1      27.192  22.614  29.067  0.00  0.00    +0.000 N 
ATOM     29  C   UNL     1      26.728  23.726  29.642  0.00  0.00    +0.000 A 
ATOM     30  N   UNL     1      26.034  23.366  30.724  0.00  0.00    +0.000 NA
ATOM     31  N   UNL     1      26.063  22.050  30.824  0.00  0.00    +0.000 NA
ATOM     32  C   UNL     1      26.779  21.578  29.801  0.00  0.00    +0.000 A 
ENDBRANCH  25  28
ENDBRANCH  18  19
ENDBRANCH  17  18
ENDBRANCH   1  17
TORSDOF 8
ENDMDL
MODEL 6
REMARK VINA RESULT:      -6.5      2.548      6.270
REMARK  Name = 
REMARK  8 active torsions:
REMARK  status: ('A' for Active; 'I' for Inactive)
REMARK    1  A    between atoms: N_2  and  C_3
REMARK    2  A    between atoms: N_2  and  C_10
REMARK    3  A    between atoms: C_3  and  C_4
REMARK    4  A    between atoms: C_13  and  C_14
REMARK    5  A    between atoms: C_14  and  C_15
REMARK    6  A    between atoms: C_15  and  C_16
REMARK    7  A    between atoms: C_16  and  C_17
REMARK    8  A    between atoms: C_23  and  N_24
REMARK                            x       y       z     vdW  Elec       q    Type
REMARK                         _______ _______ _______ _____ _____    ______ ____
ROOT
ATOM      1  C   UNL     1      24.944  25.491  28.023  0.00  0.00    +0.000 C 
ENDROOT
BRANCH   1   5
ATOM      2  C   UNL     1      28.262  23.515  29.906  0.00  0.00    +0.000 C 
ATOM      3  C   UNL     1      27.080  22.751  29.412  0.00  0.00    +0.000 C 
ATOM      4  C   UNL     1      26.423  23.453  28.265  0.00  0.00    +0.000 C 
ATOM      5  C   UNL     1      26.094  24.847  28.673  0.00  0.00    +0.000 C 
ATOM      6  C   UNL     1      27.247  25.661  29.076  0.00  0.00    +0.000 C 
ATOM      7  C   UNL     1      27.993  24.964  30.198  0.00  0.00    +0.000 C 
BRANCH   2   9
ATOM      8  C   UNL     1      30.474  22.675  29.791  0.00  0.00    +0.000 C 
ATOM      9  N   UNL     1      29.421  23.317  29.066  0.00  0.00    +0.000 NA
BRANCH   9  10
ATOM     10  C   UNL     1      29.032  22.548  27.922  0.00  0.00    +0.000 C 
BRANCH  10  11
ATOM     11  C   UNL     1      29.628  23.061  26.671  0.00  0.00    +0.000 A 
ATOM     12  C   UNL     1      29.659  24.425  26.396  0.00  0.00    +0.000 A 
ATOM     13  C   UNL     1      30.195  24.945  25.264  0.00  0.00    +0.000 A 
ATOM     14  C   UNL     1      30.743  24.095  24.328  0.00  0.00    +0.000 A 
ATOM     15  C   UNL     1      30.734  22.743  24.560  0.00  0.00    +0.000 A 
ATOM     16  C   UNL     1      30.182  22.232  25.721  0.00  0.00    +0.000 A 
ENDBRANCH  10  11
ENDBRANCH   9  10
ENDBRANCH   2   9
ENDBRANCH   1   5
BRANCH   1  17
ATOM     17  C   UNL     1      24.630  24.924  26.673  0.00  0.00    +0.000 C 
BRANCH  17  18
ATOM     18  C   UNL     1      25.440  25.733  25.652  0.00  0.00    +0.000 C 
BRANCH  18  19
ATOM     19  C   UNL     1      26.045  24.747  24.733  0.00  0.00    +0.000 A 
ATOM     20  C   UNL     1      25.861  23.389  24.795  0.00  0.00    +0.000 A 
ATOM     21  N   UNL     1      26.569  22.860  23.800  0.00  0.00    +0.000 NA
ATOM     22  C   UNL     1      27.202  23.824  23.101  0.00  0.00    +0.000 A 
ATOM     23  C   UNL     1      28.043  23.783  22.001  0.00  0.00    +0.000 A 
ATOM     24  C   UNL     1      28.570  24.955  21.472  0.00  0.00    +0.000 A 
ATOM     25  C   UNL     1      28.239  26.151  22.062  0.00  0.00    +0.000 A 
ATOM     26  C   UNL     1      27.403  26.211  23.157  0.00  0.00    +0.000 A 
ATOM     27  C   UNL     1      26.884  25.018  23.673  0.00  0.00    +0.000 A 
BRANCH  25  28
ATOM     28  N   UNL     1      28.745  27.406  21.575  0.00  0.00    +0.000 N 
ATOM     29  C   UNL     1      29.422  27.553  20.433  0.00  0.00    +0.000 A 
ATOM     30  N   UNL     1      29.729  28.846  20.307  0.00  0.00    +0.000 NA
ATOM     31  N   UNL     1      29.252  29.496  21.351  0.00  0.00    +0.000 NA
ATOM     32  C   UNL     1      28.641  28.610  22.140  0.00  0.00    +0.000 A 
ENDBRANCH  25  28
ENDBRANCH  18  19
ENDBRANCH  17  18
ENDBRANCH   1  17
TORSDOF 8
ENDMDL
MODEL 7
REMARK VINA RESULT:      -6.4      2.867      8.065
REMARK  Name = 
REMARK  8 active torsions:
REMARK  status: ('A' for Active; 'I' for Inactive)
REMARK    1  A    between atoms: N_2  and  C_3
REMARK    2  A    between atoms: N_2  and  C_10
REMARK    3  A    between atoms: C_3  and  C_4
REMARK    4  A    between atoms: C_13  and  C_14
REMARK    5  A    between atoms: C_14  and  C_15
REMARK    6  A    between atoms: C_15  and  C_16
REMARK    7  A    between atoms: C_16  and  C_17
REMARK    8  A    between atoms: C_23  and  N_24
REMARK                            x       y       z     vdW  Elec       q    Type
REMARK                         _______ _______ _______ _____ _____    ______ ____
ROOT
ATOM      1  C   UNL     1      32.145  24.058  25.719  0.00  0.00    +0.000 C 
ENDROOT
BRANCH   1   5
ATOM      2  C   UNL     1      29.785  23.742  29.295  0.00  0.00    +0.000 C 
ATOM      3  C   UNL     1      30.092  22.547  28.457  0.00  0.00    +0.000 C 
ATOM      4  C   UNL     1      31.386  22.717  27.725  0.00  0.00    +0.000 C 
ATOM      5  C   UNL     1      31.340  23.985  26.946  0.00  0.00    +0.000 C 
ATOM      6  C   UNL     1      31.134  25.196  27.750  0.00  0.00    +0.000 C 
ATOM      7  C   UNL     1      29.864  25.053  28.566  0.00  0.00    +0.000 C 
BRANCH   2   9
ATOM      8  C   UNL     1      30.060  24.758  31.416  0.00  0.00    +0.000 C 
ATOM      9  N   UNL     1      30.533  23.739  30.531  0.00  0.00    +0.000 NA
BRANCH   9  10
ATOM     10  C   UNL     1      30.430  22.441  31.128  0.00  0.00    +0.000 C 
BRANCH  10  11
ATOM     11  C   UNL     1      31.713  21.981  31.697  0.00  0.00    +0.000 A 
ATOM     12  C   UNL     1      32.681  21.381  30.896  0.00  0.00    +0.000 A 
ATOM     13  C   UNL     1      33.873  20.942  31.370  0.00  0.00    +0.000 A 
ATOM     14  C   UNL     1      34.159  21.091  32.709  0.00  0.00    +0.000 A 
ATOM     15  C   UNL     1      33.234  21.677  33.535  0.00  0.00    +0.000 A 
ATOM     16  C   UNL     1      32.022  22.118  33.031  0.00  0.00    +0.000 A 
ENDBRANCH  10  11
ENDBRANCH   9  10
ENDBRANCH   2   9
ENDBRANCH   1   5
BRANCH   1  17
ATOM     17  C   UNL     1      31.399  23.631  24.493  0.00  0.00    +0.000 C 
BRANCH  17  18
ATOM     18  C   UNL     1      30.533  24.821  24.062  0.00  0.00    +0.000 C 
BRANCH  18  19
ATOM     19  C   UNL     1      29.267  24.250  23.559  0.00  0.00    +0.000 A 
ATOM     20  C   UNL     1      29.022  23.893  22.257  0.00  0.00    +0.000 A 
ATOM     21  N   UNL     1      27.778  23.423  22.216  0.00  0.00    +0.000 NA
ATOM     22  C   UNL     1      27.213  23.463  23.440  0.00  0.00    +0.000 A 
ATOM     23  C   UNL     1      25.961  23.096  23.905  0.00  0.00    +0.000 A 
ATOM     24  C   UNL     1      25.633  23.251  25.247  0.00  0.00    +0.000 A 
ATOM     25  C   UNL     1      26.576  23.775  26.098  0.00  0.00    +0.000 A 
ATOM     26  C   UNL     1      27.827  24.146  25.653  0.00  0.00    +0.000 A 
ATOM     27  C   UNL     1      28.135  23.981  24.298  0.00  0.00    +0.000 A 
BRANCH  25  28
ATOM     28  N   UNL     1      26.313  23.969  27.498  0.00  0.00    +0.000 N 
ATOM     29  C   UNL     1      25.916  25.125  28.036  0.00  0.00    +0.000 A 
ATOM     30  N   UNL     1      25.771  24.933  29.350  0.00  0.00    +0.000 NA
ATOM     31  N   UNL     1      26.072  23.678  29.628  0.00  0.00    +0.000 NA
ATOM     32  C   UNL     1      26.408  23.076  28.485  0.00  0.00    +0.000 A 
ENDBRANCH  25  28
ENDBRANCH  18  19
ENDBRANCH  17  18
ENDBRANCH   1  17
TORSDOF 8
ENDMDL
MODEL 8
REMARK VINA RESULT:      -6.3      2.145      6.666
REMARK  Name = 
REMARK  8 active torsions:
REMARK  status: ('A' for Active; 'I' for Inactive)
REMARK    1  A    between atoms: N_2  and  C_3
REMARK    2  A    between atoms: N_2  and  C_10
REMARK    3  A    between atoms: C_3  and  C_4
REMARK    4  A    between atoms: C_13  and  C_14
REMARK    5  A    between atoms: C_14  and  C_15
REMARK    6  A    between atoms: C_15  and  C_16
REMARK    7  A    between atoms: C_16  and  C_17
REMARK    8  A    between atoms: C_23  and  N_24
REMARK                            x       y       z     vdW  Elec       q    Type
REMARK                         _______ _______ _______ _____ _____    ______ ____
ROOT
ATOM      1  C   UNL     1      29.811  27.001  23.748  0.00  0.00    +0.000 C 
ENDROOT
BRANCH   1   5
ATOM      2  C   UNL     1      31.166  24.114  26.627  0.00  0.00    +0.000 C 
ATOM      3  C   UNL     1      30.915  25.534  27.008  0.00  0.00    +0.000 C 
ATOM      4  C   UNL     1      29.872  26.153  26.131  0.00  0.00    +0.000 C 
ATOM      5  C   UNL     1      30.276  25.990  24.707  0.00  0.00    +0.000 C 
ATOM      6  C   UNL     1      30.441  24.598  24.268  0.00  0.00    +0.000 C 
ATOM      7  C   UNL     1      31.444  23.899  25.166  0.00  0.00    +0.000 C 
BRANCH   2   9
ATOM      8  C   UNL     1      30.297  21.911  26.607  0.00  0.00    +0.000 C 
ATOM      9  N   UNL     1      30.147  23.229  27.142  0.00  0.00    +0.000 NA
BRANCH   9  10
ATOM     10  C   UNL     1      30.224  23.223  28.572  0.00  0.00    +0.000 C 
BRANCH  10  11
ATOM     11  C   UNL     1      28.901  23.397  29.207  0.00  0.00    +0.000 A 
ATOM     12  C   UNL     1      28.725  24.275  30.272  0.00  0.00    +0.000 A 
ATOM     13  C   UNL     1      27.533  24.471  30.888  0.00  0.00    +0.000 A 
ATOM     14  C   UNL     1      26.428  23.774  30.449  0.00  0.00    +0.000 A 
ATOM     15  C   UNL     1      26.557  22.899  29.400  0.00  0.00    +0.000 A 
ATOM     16  C   UNL     1      27.783  22.713  28.786  0.00  0.00    +0.000 A 
ENDBRANCH  10  11
ENDBRANCH   9  10
ENDBRANCH   2   9
ENDBRANCH   1   5
BRANCH   1  17
ATOM     17  C   UNL     1      29.423  26.427  22.420  0.00  0.00    +0.000 C 
BRANCH  17  18
ATOM     18  C   UNL     1      27.901  26.569  22.302  0.00  0.00    +0.000 C 
BRANCH  18  19
ATOM     19  C   UNL     1      27.335  25.254  22.667  0.00  0.00    +0.000 A 
ATOM     20  C   UNL     1      27.299  24.153  21.849  0.00  0.00    +0.000 A 
ATOM     21  N   UNL     1      26.715  23.179  22.543  0.00  0.00    +0.000 NA
ATOM     22  C   UNL     1      26.373  23.610  23.773  0.00  0.00    +0.000 A 
ATOM     23  C   UNL     1      25.752  22.987  24.843  0.00  0.00    +0.000 A 
ATOM     24  C   UNL     1      25.513  23.682  26.023  0.00  0.00    +0.000 A 
ATOM     25  C   UNL     1      25.905  24.996  26.103  0.00  0.00    +0.000 A 
ATOM     26  C   UNL     1      26.524  25.633  25.048  0.00  0.00    +0.000 A 
ATOM     27  C   UNL     1      26.755  24.913  23.870  0.00  0.00    +0.000 A 
BRANCH  25  28
ATOM     28  N   UNL     1      25.691  25.784  27.286  0.00  0.00    +0.000 N 
ATOM     29  C   UNL     1      26.623  26.547  27.862  0.00  0.00    +0.000 A 
ATOM     30  N   UNL     1      26.071  27.127  28.931  0.00  0.00    +0.000 NA
ATOM     31  N   UNL     1      24.815  26.734  29.021  0.00  0.00    +0.000 NA
ATOM     32  C   UNL     1      24.573  25.902  28.006  0.00  0.00    +0.000 A 
ENDBRANCH  25  28
ENDBRANCH  18  19
ENDBRANCH  17  18
ENDBRANCH   1  17
TORSDOF 8
ENDMDL
MODEL 9
REMARK VINA RESULT:      -6.3      2.469      6.626
REMARK  Name = 
REMARK  8 active torsions:
REMARK  status: ('A' for Active; 'I' for Inactive)
REMARK    1  A    between atoms: N_2  and  C_3
REMARK    2  A    between atoms: N_2  and  C_10
REMARK    3  A    between atoms: C_3  and  C_4
REMARK    4  A    between atoms: C_13  and  C_14
REMARK    5  A    between atoms: C_14  and  C_15
REMARK    6  A    between atoms: C_15  and  C_16
REMARK    7  A    between atoms: C_16  and  C_17
REMARK    8  A    between atoms: C_23  and  N_24
REMARK                            x       y       z     vdW  Elec       q    Type
REMARK                         _______ _______ _______ _____ _____    ______ ____
ROOT
ATOM      1  C   UNL     1      24.942  24.629  27.381  0.00  0.00    +0.000 C 
ENDROOT
BRANCH   1   5
ATOM      2  C   UNL     1      28.506  23.968  29.688  0.00  0.00    +0.000 C 
ATOM      3  C   UNL     1      27.750  22.834  29.082  0.00  0.00    +0.000 C 
ATOM      4  C   UNL     1      27.022  23.267  27.848  0.00  0.00    +0.000 C 
ATOM      5  C   UNL     1      26.163  24.438  28.176  0.00  0.00    +0.000 C 
ATOM      6  C   UNL     1      26.886  25.610  28.686  0.00  0.00    +0.000 C 
ATOM      7  C   UNL     1      27.697  25.215  29.906  0.00  0.00    +0.000 C 
BRANCH   2   9
ATOM      8  C   UNL     1      30.677  24.905  29.837  0.00  0.00    +0.000 C 
ATOM      9  N   UNL     1      29.748  24.219  28.992  0.00  0.00    +0.000 NA
BRANCH   9  10
ATOM     10  C   UNL     1      30.280  22.970  28.538  0.00  0.00    +0.000 C 
BRANCH  10  11
ATOM     11  C   UNL     1      30.718  23.025  27.128  0.00  0.00    +0.000 A 
ATOM     12  C   UNL     1      30.057  22.300  26.141  0.00  0.00    +0.000 A 
ATOM     13  C   UNL     1      30.419  22.317  24.834  0.00  0.00    +0.000 A 
ATOM     14  C   UNL     1      31.493  23.088  24.445  0.00  0.00    +0.000 A 
ATOM     15  C   UNL     1      32.173  23.820  25.386  0.00  0.00    +0.000 A 
ATOM     16  C   UNL     1      31.787  23.787  26.715  0.00  0.00    +0.000 A 
ENDBRANCH  10  11
ENDBRANCH   9  10
ENDBRANCH   2   9
ENDBRANCH   1   5
BRANCH   1  17
ATOM     17  C   UNL     1      25.211  24.828  25.921  0.00  0.00    +0.000 C 
BRANCH  17  18
ATOM     18  C   UNL     1      25.661  23.473  25.363  0.00  0.00    +0.000 C 
BRANCH  18  19
ATOM     19  C   UNL     1      26.411  23.766  24.124  0.00  0.00    +0.000 A 
ATOM     20  C   UNL     1      26.110  23.271  22.880  0.00  0.00    +0.000 A 
ATOM     21  N   UNL     1      27.015  23.768  22.041  0.00  0.00    +0.000 NA
ATOM     22  C   UNL     1      27.886  24.561  22.695  0.00  0.00    +0.000 A 
ATOM     23  C   UNL     1      28.985  25.291  22.273  0.00  0.00    +0.000 A 
ATOM     24  C   UNL     1      29.726  26.040  23.180  0.00  0.00    +0.000 A 
ATOM     25  C   UNL     1      29.345  26.039  24.499  0.00  0.00    +0.000 A 
ATOM     26  C   UNL     1      28.253  25.319  24.938  0.00  0.00    +0.000 A 
ATOM     27  C   UNL     1      27.522  24.573  24.007  0.00  0.00    +0.000 A 
BRANCH  25  28
ATOM     28  N   UNL     1      30.060  26.785  25.499  0.00  0.00    +0.000 N 
ATOM     29  C   UNL     1      31.233  27.389  25.291  0.00  0.00    +0.000 A 
ATOM     30  N   UNL     1      31.594  27.980  26.433  0.00  0.00    +0.000 NA
ATOM     31  N   UNL     1      30.662  27.749  27.339  0.00  0.00    +0.000 NA
ATOM     32  C   UNL     1      29.710  27.010  26.767  0.00  0.00    +0.000 A 
ENDBRANCH  25  28
ENDBRANCH  18  19
ENDBRANCH  17  18
ENDBRANCH   1  17
TORSDOF 8
ENDMDL
MODEL 10
REMARK VINA RESULT:      -6.3      4.914      8.661
REMARK  Name = 
REMARK  8 active torsions:
REMARK  status: ('A' for Active; 'I' for Inactive)
REMARK    1  A    between atoms: N_2  and  C_3
REMARK    2  A    between atoms: N_2  and  C_10
REMARK    3  A    between atoms: C_3  and  C_4
REMARK    4  A    between atoms: C_13  and  C_14
REMARK    5  A    between atoms: C_14  and  C_15
REMARK    6  A    between atoms: C_15  and  C_16
REMARK    7  A    between atoms: C_16  and  C_17
REMARK    8  A    between atoms: C_23  and  N_24
REMARK                            x       y       z     vdW  Elec       q    Type
REMARK                         _______ _______ _______ _____ _____    ______ ____
ROOT
ATOM      1  C   UNL     1      29.480  24.989  21.815  0.00  0.00    +0.000 C 
ENDROOT
BRANCH   1   5
ATOM      2  C   UNL     1      27.941  28.673  20.225  0.00  0.00    +0.000 C 
ATOM      3  C   UNL     1      29.404  28.384  20.242  0.00  0.00    +0.000 C 
ATOM      4  C   UNL     1      29.665  26.911  20.180  0.00  0.00    +0.000 C 
ATOM      5  C   UNL     1      28.921  26.239  21.280  0.00  0.00    +0.000 C 
ATOM      6  C   UNL     1      27.464  26.422  21.242  0.00  0.00    +0.000 C 
ATOM      7  C   UNL     1      27.140  27.904  21.238  0.00  0.00    +0.000 C 
BRANCH   2   9
ATOM      8  C   UNL     1      25.962  28.518  18.932  0.00  0.00    +0.000 C 
ATOM      9  N   UNL     1      27.390  28.588  18.892  0.00  0.00    +0.000 NA
BRANCH   9  10
ATOM     10  C   UNL     1      27.835  29.722  18.139  0.00  0.00    +0.000 C 
BRANCH  10  11
ATOM     11  C   UNL     1      28.537  29.332  16.898  0.00  0.00    +0.000 A 
ATOM     12  C   UNL     1      28.819  27.998  16.620  0.00  0.00    +0.000 A 
ATOM     13  C   UNL     1      29.459  27.589  15.497  0.00  0.00    +0.000 A 
ATOM     14  C   UNL     1      29.857  28.529  14.571  0.00  0.00    +0.000 A 
ATOM     15  C   UNL     1      29.598  29.856  14.805  0.00  0.00    +0.000 A 
ATOM     16  C   UNL     1      28.944  30.253  15.959  0.00  0.00    +0.000 A 
ENDBRANCH  10  11
ENDBRANCH   9  10
ENDBRANCH   2   9
ENDBRANCH   1   5
BRANCH   1  17
ATOM     17  C   UNL     1      28.485  23.871  21.873  0.00  0.00    +0.000 C 
BRANCH  17  18
ATOM     18  C   UNL     1      28.684  23.169  23.221  0.00  0.00    +0.000 C 
BRANCH  18  19
ATOM     19  C   UNL     1      27.473  23.457  24.018  0.00  0.00    +0.000 A 
ATOM     20  C   UNL     1      26.247  23.794  23.502  0.00  0.00    +0.000 A 
ATOM     21  N   UNL     1      25.431  23.970  24.538  0.00  0.00    +0.000 NA
ATOM     22  C   UNL     1      26.083  23.761  25.699  0.00  0.00    +0.000 A 
ATOM     23  C   UNL     1      25.680  23.822  27.023  0.00  0.00    +0.000 A 
ATOM     24  C   UNL     1      26.580  23.554  28.049  0.00  0.00    +0.000 A 
ATOM     25  C   UNL     1      27.873  23.229  27.720  0.00  0.00    +0.000 A 
ATOM     26  C   UNL     1      28.293  23.163  26.408  0.00  0.00    +0.000 A 
ATOM     27  C   UNL     1      27.370  23.436  25.392  0.00  0.00    +0.000 A 
BRANCH  25  28
ATOM     28  N   UNL     1      28.863  22.942  28.722  0.00  0.00    +0.000 N 
ATOM     29  C   UNL     1      30.167  22.796  28.472  0.00  0.00    +0.000 A 
ATOM     30  N   UNL     1      30.777  22.539  29.632  0.00  0.00    +0.000 NA
ATOM     31  N   UNL     1      29.870  22.525  30.590  0.00  0.00    +0.000 NA
ATOM     32  C   UNL     1      28.683  22.774  30.033  0.00  0.00    +0.000 A 
ENDBRANCH  25  28
ENDBRANCH  18  19
ENDBRANCH  17  18
ENDBRANCH   1  17
TORSDOF 8
ENDMDL
