MODEL 1
REMARK VINA RESULT:      -6.8      0.000      0.000
REMARK  Name = 
REMARK  4 active torsions:
REMARK  status: ('A' for Active; 'I' for Inactive)
REMARK    1  A    between atoms: C_2  and  C_4
REMARK    2  A    between atoms: C_6  and  C_7
REMARK    3  A    between atoms: N_9  and  N_10
REMARK    4  A    between atoms: C_11  and  C_12
REMARK                            x       y       z     vdW  Elec       q    Type
REMARK                         _______ _______ _______ _____ _____    ______ ____
ROOT
ATOM      1  C   UNL     1      16.550  11.055  37.066  0.00  0.00    +0.000 C 
ATOM      2  O   UNL     1      15.919  12.074  37.441  0.00  0.00    +0.000 OA
ATOM      3  N   UNL     1      16.576  10.785  35.682  0.00  0.00    +0.000 NA
ENDROOT
BRANCH   1   6
ATOM      4  C   UNL     1      17.464   9.088  40.063  0.00  0.00    +0.000 A 
ATOM      5  C   UNL     1      16.761   9.913  39.248  0.00  0.00    +0.000 A 
ATOM      6  C   UNL     1      17.241  10.168  38.031  0.00  0.00    +0.000 A 
ATOM      7  C   UNL     1      18.431   9.563  37.697  0.00  0.00    +0.000 A 
ATOM      8  S   UNL     1      18.806   8.674  39.104  0.00  0.00    +0.000 S 
BRANCH   4  10
ATOM      9  C   UNL     1      16.240   9.585  42.162  0.00  0.00    +0.000 C 
ATOM     10  C   UNL     1      17.156   8.642  41.454  0.00  0.00    +0.000 C 
ATOM     11  C   UNL     1      16.619   7.238  41.367  0.00  0.00    +0.000 C 
ENDBRANCH   4  10
ENDBRANCH   1   6
BRANCH   3  12
ATOM     12  N   UNL     1      15.942  11.586  34.729  0.00  0.00    +0.000 NA
ATOM     13  C   UNL     1      15.696  11.243  33.531  0.00  0.00    +0.000 C 
BRANCH  13  14
ATOM     14  C   UNL     1      15.021  12.148  32.586  0.00  0.00    +0.000 A 
ATOM     15  C   UNL     1      14.289  13.208  33.059  0.00  0.00    +0.000 A 
ATOM     16  C   UNL     1      13.662  14.048  32.162  0.00  0.00    +0.000 A 
ATOM     17  N   UNL     1      13.773  13.823  30.832  0.00  0.00    +0.000 NA
ATOM     18  C   UNL     1      14.492  12.781  30.376  0.00  0.00    +0.000 A 
ATOM     19  C   UNL     1      15.134  11.919  31.241  0.00  0.00    +0.000 A 
ENDBRANCH  13  14
ENDBRANCH   3  12
TORSDOF 4
ENDMDL
MODEL 2
REMARK VINA RESULT:      -6.6      2.987      8.482
REMARK  Name = 
REMARK  4 active torsions:
REMARK  status: ('A' for Active; 'I' for Inactive)
REMARK    1  A    between atoms: C_2  and  C_4
REMARK    2  A    between atoms: C_6  and  C_7
REMARK    3  A    between atoms: N_9  and  N_10
REMARK    4  A    between atoms: C_11  and  C_12
REMARK                            x       y       z     vdW  Elec       q    Type
REMARK                         _______ _______ _______ _____ _____    ______ ____
ROOT
ATOM      1  C   UNL     1      16.743  10.287  34.587  0.00  0.00    +0.000 C 
ATOM      2  O   UNL     1      17.510   9.306  34.424  0.00  0.00    +0.000 OA
ATOM      3  N   UNL     1      16.485  10.692  35.912  0.00  0.00    +0.000 NA
ENDROOT
BRANCH   1   6
ATOM      4  C   UNL     1      14.743  12.574  32.476  0.00  0.00    +0.000 A 
ATOM      5  C   UNL     1      15.252  11.987  33.587  0.00  0.00    +0.000 A 
ATOM      6  C   UNL     1      16.130  10.994  33.438  0.00  0.00    +0.000 A 
ATOM      7  C   UNL     1      16.451  10.643  32.147  0.00  0.00    +0.000 A 
ATOM      8  S   UNL     1      15.507  11.721  31.220  0.00  0.00    +0.000 S 
BRANCH   4  10
ATOM      9  C   UNL     1      13.487  14.344  33.677  0.00  0.00    +0.000 C 
ATOM     10  C   UNL     1      13.759  13.692  32.362  0.00  0.00    +0.000 C 
ATOM     11  C   UNL     1      14.279  14.644  31.317  0.00  0.00    +0.000 C 
ENDBRANCH   4  10
ENDBRANCH   1   6
BRANCH   3  12
ATOM     12  N   UNL     1      17.036  10.062  37.031  0.00  0.00    +0.000 NA
ATOM     13  C   UNL     1      17.318  10.636  38.129  0.00  0.00    +0.000 C 
BRANCH  13  14
ATOM     14  C   UNL     1      17.897   9.898  39.264  0.00  0.00    +0.000 A 
ATOM     15  C   UNL     1      19.254   9.704  39.333  0.00  0.00    +0.000 A 
ATOM     16  C   UNL     1      19.782   9.010  40.402  0.00  0.00    +0.000 A 
ATOM     17  N   UNL     1      18.966   8.531  41.369  0.00  0.00    +0.000 NA
ATOM     18  C   UNL     1      17.635   8.725  41.294  0.00  0.00    +0.000 A 
ATOM     19  C   UNL     1      17.070   9.413  40.241  0.00  0.00    +0.000 A 
ENDBRANCH  13  14
ENDBRANCH   3  12
TORSDOF 4
ENDMDL
MODEL 3
REMARK VINA RESULT:      -6.3     29.086     30.716
REMARK  Name = 
REMARK  4 active torsions:
REMARK  status: ('A' for Active; 'I' for Inactive)
REMARK    1  A    between atoms: C_2  and  C_4
REMARK    2  A    between atoms: C_6  and  C_7
REMARK    3  A    between atoms: N_9  and  N_10
REMARK    4  A    between atoms: C_11  and  C_12
REMARK                            x       y       z     vdW  Elec       q    Type
REMARK                         _______ _______ _______ _____ _____    ______ ____
ROOT
ATOM      1  C   UNL     1      32.720  20.481  11.455  0.00  0.00    +0.000 C 
ATOM      2  O   UNL     1      32.104  20.442  10.362  0.00  0.00    +0.000 OA
ATOM      3  N   UNL     1      31.994  20.892  12.592  0.00  0.00    +0.000 NA
ENDROOT
BRANCH   1   6
ATOM      4  C   UNL     1      36.036  19.405  12.692  0.00  0.00    +0.000 A 
ATOM      5  C   UNL     1      34.718  19.722  12.697  0.00  0.00    +0.000 A 
ATOM      6  C   UNL     1      34.152  20.112  11.555  0.00  0.00    +0.000 A 
ATOM      7  C   UNL     1      34.967  20.163  10.447  0.00  0.00    +0.000 A 
ATOM      8  S   UNL     1      36.474  19.660  11.069  0.00  0.00    +0.000 S 
BRANCH   4  10
ATOM      9  C   UNL     1      37.288  20.061  14.730  0.00  0.00    +0.000 C 
ATOM     10  C   UNL     1      36.905  18.944  13.817  0.00  0.00    +0.000 C 
ATOM     11  C   UNL     1      36.180  17.822  14.513  0.00  0.00    +0.000 C 
ENDBRANCH   4  10
ENDBRANCH   1   6
BRANCH   3  12
ATOM     12  N   UNL     1      30.643  21.250  12.555  0.00  0.00    +0.000 NA
ATOM     13  C   UNL     1      30.204  22.439  12.471  0.00  0.00    +0.000 C 
BRANCH  13  14
ATOM     14  C   UNL     1      28.762  22.734  12.437  0.00  0.00    +0.000 A 
ATOM     15  C   UNL     1      28.182  23.429  13.468  0.00  0.00    +0.000 A 
ATOM     16  C   UNL     1      26.829  23.697  13.422  0.00  0.00    +0.000 A 
ATOM     17  N   UNL     1      26.090  23.276  12.370  0.00  0.00    +0.000 NA
ATOM     18  C   UNL     1      26.667  22.594  11.362  0.00  0.00    +0.000 A 
ATOM     19  C   UNL     1      28.016  22.307  11.372  0.00  0.00    +0.000 A 
ENDBRANCH  13  14
ENDBRANCH   3  12
TORSDOF 4
ENDMDL
MODEL 4
REMARK VINA RESULT:      -6.1     22.806     24.004
REMARK  Name = 
REMARK  4 active torsions:
REMARK  status: ('A' for Active; 'I' for Inactive)
REMARK    1  A    between atoms: C_2  and  C_4
REMARK    2  A    between atoms: C_6  and  C_7
REMARK    3  A    between atoms: N_9  and  N_10
REMARK    4  A    between atoms: C_11  and  C_12
REMARK                            x       y       z     vdW  Elec       q    Type
REMARK                         _______ _______ _______ _____ _____    ______ ____
ROOT
ATOM      1  C   UNL     1      24.256  -7.528  24.128  0.00  0.00    +0.000 C 
ATOM      2  O   UNL     1      24.200  -6.292  23.915  0.00  0.00    +0.000 OA
ATOM      3  N   UNL     1      23.183  -8.110  24.834  0.00  0.00    +0.000 NA
ENDROOT
BRANCH   1   6
ATOM      4  C   UNL     1      27.383  -8.682  22.524  0.00  0.00    +0.000 A 
ATOM      5  C   UNL     1      26.380  -7.854  22.906  0.00  0.00    +0.000 A 
ATOM      6  C   UNL     1      25.397  -8.349  23.659  0.00  0.00    +0.000 A 
ATOM      7  C   UNL     1      25.485  -9.681  23.992  0.00  0.00    +0.000 A 
ATOM      8  S   UNL     1      26.935 -10.161  23.232  0.00  0.00    +0.000 S 
BRANCH   4  10
ATOM      9  C   UNL     1      28.441  -8.878  20.289  0.00  0.00    +0.000 C 
ATOM     10  C   UNL     1      28.588  -8.389  21.692  0.00  0.00    +0.000 C 
ATOM     11  C   UNL     1      28.850  -6.908  21.785  0.00  0.00    +0.000 C 
ENDBRANCH   4  10
ENDBRANCH   1   6
BRANCH   3  12
ATOM     12  N   UNL     1      22.083  -7.385  25.299  0.00  0.00    +0.000 NA
ATOM     13  C   UNL     1      20.905  -7.843  25.427  0.00  0.00    +0.000 C 
BRANCH  13  14
ATOM     14  C   UNL     1      19.798  -7.011  25.926  0.00  0.00    +0.000 A 
ATOM     15  C   UNL     1      19.916  -5.644  25.925  0.00  0.00    +0.000 A 
ATOM     16  C   UNL     1      18.870  -4.878  26.397  0.00  0.00    +0.000 A 
ATOM     17  N   UNL     1      17.744  -5.474  26.852  0.00  0.00    +0.000 NA
ATOM     18  C   UNL     1      17.636  -6.816  26.850  0.00  0.00    +0.000 A 
ATOM     19  C   UNL     1      18.660  -7.617  26.387  0.00  0.00    +0.000 A 
ENDBRANCH  13  14
ENDBRANCH   3  12
TORSDOF 4
ENDMDL
MODEL 5
REMARK VINA RESULT:      -6.0     19.255     21.515
REMARK  Name = 
REMARK  4 active torsions:
REMARK  status: ('A' for Active; 'I' for Inactive)
REMARK    1  A    between atoms: C_2  and  C_4
REMARK    2  A    between atoms: C_6  and  C_7
REMARK    3  A    between atoms: N_9  and  N_10
REMARK    4  A    between atoms: C_11  and  C_12
REMARK                            x       y       z     vdW  Elec       q    Type
REMARK                         _______ _______ _______ _____ _____    ______ ____
ROOT
ATOM      1  C   UNL     1      32.707  -1.286  34.754  0.00  0.00    +0.000 C 
ATOM      2  O   UNL     1      31.833  -0.920  35.579  0.00  0.00    +0.000 OA
ATOM      3  N   UNL     1      33.603  -0.304  34.285  0.00  0.00    +0.000 NA
ENDROOT
BRANCH   1   6
ATOM      4  C   UNL     1      33.506  -4.355  32.849  0.00  0.00    +0.000 A 
ATOM      5  C   UNL     1      33.479  -3.045  33.199  0.00  0.00    +0.000 A 
ATOM      6  C   UNL     1      32.799  -2.690  34.288  0.00  0.00    +0.000 A 
ATOM      7  C   UNL     1      32.169  -3.700  34.980  0.00  0.00    +0.000 A 
ATOM      8  S   UNL     1      32.567  -5.084  34.065  0.00  0.00    +0.000 S 
BRANCH   4  10
ATOM      9  C   UNL     1      35.182  -6.035  32.128  0.00  0.00    +0.000 C 
ATOM     10  C   UNL     1      34.184  -5.013  31.693  0.00  0.00    +0.000 C 
ATOM     11  C   UNL     1      33.107  -5.571  30.799  0.00  0.00    +0.000 C 
ENDBRANCH   4  10
ENDBRANCH   1   6
BRANCH   3  12
ATOM     12  N   UNL     1      33.562   1.033  34.690  0.00  0.00    +0.000 NA
ATOM     13  C   UNL     1      33.722   2.034  33.925  0.00  0.00    +0.000 C 
BRANCH  13  14
ATOM     14  C   UNL     1      33.663   3.416  34.431  0.00  0.00    +0.000 A 
ATOM     15  C   UNL     1      32.990   4.376  33.720  0.00  0.00    +0.000 A 
ATOM     16  C   UNL     1      32.944   5.666  34.206  0.00  0.00    +0.000 A 
ATOM     17  N   UNL     1      33.557   5.974  35.373  0.00  0.00    +0.000 NA
ATOM     18  C   UNL     1      34.216   5.025  36.065  0.00  0.00    +0.000 A 
ATOM     19  C   UNL     1      34.284   3.724  35.611  0.00  0.00    +0.000 A 
ENDBRANCH  13  14
ENDBRANCH   3  12
TORSDOF 4
ENDMDL
MODEL 6
REMARK VINA RESULT:      -6.0      1.547      2.215
REMARK  Name = 
REMARK  4 active torsions:
REMARK  status: ('A' for Active; 'I' for Inactive)
REMARK    1  A    between atoms: C_2  and  C_4
REMARK    2  A    between atoms: C_6  and  C_7
REMARK    3  A    between atoms: N_9  and  N_10
REMARK    4  A    between atoms: C_11  and  C_12
REMARK                            x       y       z     vdW  Elec       q    Type
REMARK                         _______ _______ _______ _____ _____    ______ ____
ROOT
ATOM      1  C   UNL     1      18.029  10.429  37.311  0.00  0.00    +0.000 C 
ATOM      2  O   UNL     1      18.023  11.685  37.300  0.00  0.00    +0.000 OA
ATOM      3  N   UNL     1      17.308   9.771  36.294  0.00  0.00    +0.000 NA
ENDROOT
BRANCH   1   6
ATOM      4  C   UNL     1      18.955   8.021  39.963  0.00  0.00    +0.000 A 
ATOM      5  C   UNL     1      18.206   8.664  39.033  0.00  0.00    +0.000 A 
ATOM      6  C   UNL     1      18.762   9.664  38.348  0.00  0.00    +0.000 A 
ATOM      7  C   UNL     1      20.071   9.965  38.646  0.00  0.00    +0.000 A 
ATOM      8  S   UNL     1      20.446   8.833  39.866  0.00  0.00    +0.000 S 
BRANCH   4  10
ATOM      9  C   UNL     1      17.111   6.801  41.087  0.00  0.00    +0.000 C 
ATOM     10  C   UNL     1      18.584   6.885  40.858  0.00  0.00    +0.000 C 
ATOM     11  C   UNL     1      19.168   5.632  40.258  0.00  0.00    +0.000 C 
ENDBRANCH   4  10
ENDBRANCH   1   6
BRANCH   3  12
ATOM     12  N   UNL     1      16.600  10.442  35.294  0.00  0.00    +0.000 NA
ATOM     13  C   UNL     1      16.784  10.298  34.045  0.00  0.00    +0.000 C 
BRANCH  13  14
ATOM     14  C   UNL     1      15.994  11.044  33.052  0.00  0.00    +0.000 A 
ATOM     15  C   UNL     1      16.037  10.680  31.730  0.00  0.00    +0.000 A 
ATOM     16  C   UNL     1      15.292  11.389  30.811  0.00  0.00    +0.000 A 
ATOM     17  N   UNL     1      14.528  12.430  31.216  0.00  0.00    +0.000 NA
ATOM     18  C   UNL     1      14.491  12.781  32.516  0.00  0.00    +0.000 A 
ATOM     19  C   UNL     1      15.222  12.097  33.464  0.00  0.00    +0.000 A 
ENDBRANCH  13  14
ENDBRANCH   3  12
TORSDOF 4
ENDMDL
MODEL 7
REMARK VINA RESULT:      -5.9      4.099      8.771
REMARK  Name = 
REMARK  4 active torsions:
REMARK  status: ('A' for Active; 'I' for Inactive)
REMARK    1  A    between atoms: C_2  and  C_4
REMARK    2  A    between atoms: C_6  and  C_7
REMARK    3  A    between atoms: N_9  and  N_10
REMARK    4  A    between atoms: C_11  and  C_12
REMARK                            x       y       z     vdW  Elec       q    Type
REMARK                         _______ _______ _______ _____ _____    ______ ____
ROOT
ATOM      1  C   UNL     1      18.006  10.047  35.804  0.00  0.00    +0.000 C 
ATOM      2  O   UNL     1      18.379   8.946  35.330  0.00  0.00    +0.000 OA
ATOM      3  N   UNL     1      18.740  10.562  36.892  0.00  0.00    +0.000 NA
ENDROOT
BRANCH   1   6
ATOM      4  C   UNL     1      15.491  11.527  33.530  0.00  0.00    +0.000 A 
ATOM      5  C   UNL     1      16.578  10.831  33.944  0.00  0.00    +0.000 A 
ATOM      6  C   UNL     1      16.843  10.780  35.250  0.00  0.00    +0.000 A 
ATOM      7  C   UNL     1      15.977  11.450  36.083  0.00  0.00    +0.000 A 
ATOM      8  S   UNL     1      14.844  12.111  34.990  0.00  0.00    +0.000 S 
BRANCH   4  10
ATOM      9  C   UNL     1      15.984  12.386  31.257  0.00  0.00    +0.000 C 
ATOM     10  C   UNL     1      14.974  11.741  32.146  0.00  0.00    +0.000 C 
ATOM     11  C   UNL     1      14.492  10.407  31.636  0.00  0.00    +0.000 C 
ENDBRANCH   4  10
ENDBRANCH   1   6
BRANCH   3  12
ATOM     12  N   UNL     1      19.843   9.914  37.454  0.00  0.00    +0.000 NA
ATOM     13  C   UNL     1      21.016  10.395  37.525  0.00  0.00    +0.000 C 
BRANCH  13  14
ATOM     14  C   UNL     1      22.127   9.645  38.135  0.00  0.00    +0.000 A 
ATOM     15  C   UNL     1      21.978   9.100  39.385  0.00  0.00    +0.000 A 
ATOM     16  C   UNL     1      23.028   8.401  39.945  0.00  0.00    +0.000 A 
ATOM     17  N   UNL     1      24.188   8.258  39.262  0.00  0.00    +0.000 NA
ATOM     18  C   UNL     1      24.326   8.797  38.035  0.00  0.00    +0.000 A 
ATOM     19  C   UNL     1      23.299   9.502  37.443  0.00  0.00    +0.000 A 
ENDBRANCH  13  14
ENDBRANCH   3  12
TORSDOF 4
ENDMDL
MODEL 8
REMARK VINA RESULT:      -5.9     22.523     24.929
REMARK  Name = 
REMARK  4 active torsions:
REMARK  status: ('A' for Active; 'I' for Inactive)
REMARK    1  A    between atoms: C_2  and  C_4
REMARK    2  A    between atoms: C_6  and  C_7
REMARK    3  A    between atoms: N_9  and  N_10
REMARK    4  A    between atoms: C_11  and  C_12
REMARK                            x       y       z     vdW  Elec       q    Type
REMARK                         _______ _______ _______ _____ _____    ______ ____
ROOT
ATOM      1  C   UNL     1      28.522  24.958  21.696  0.00  0.00    +0.000 C 
ATOM      2  O   UNL     1      27.522  25.612  21.310  0.00  0.00    +0.000 OA
ATOM      3  N   UNL     1      29.667  24.983  20.873  0.00  0.00    +0.000 NA
ENDROOT
BRANCH   1   6
ATOM      4  C   UNL     1      29.511  23.113  24.747  0.00  0.00    +0.000 A 
ATOM      5  C   UNL     1      29.623  23.815  23.592  0.00  0.00    +0.000 A 
ATOM      6  C   UNL     1      28.508  24.190  22.964  0.00  0.00    +0.000 A 
ATOM      7  C   UNL     1      27.317  23.827  23.549  0.00  0.00    +0.000 A 
ATOM      8  S   UNL     1      27.827  22.985  24.943  0.00  0.00    +0.000 S 
BRANCH   4  10
ATOM      9  C   UNL     1      31.663  23.579  25.888  0.00  0.00    +0.000 C 
ATOM     10  C   UNL     1      30.584  22.579  25.638  0.00  0.00    +0.000 C 
ATOM     11  C   UNL     1      29.918  22.089  26.897  0.00  0.00    +0.000 C 
ENDBRANCH   4  10
ENDBRANCH   1   6
BRANCH   3  12
ATOM     12  N   UNL     1      29.735  25.689  19.669  0.00  0.00    +0.000 NA
ATOM     13  C   UNL     1      30.015  26.923  19.560  0.00  0.00    +0.000 C 
BRANCH  13  14
ATOM     14  C   UNL     1      30.068  27.595  18.251  0.00  0.00    +0.000 A 
ATOM     15  C   UNL     1      29.010  28.365  17.835  0.00  0.00    +0.000 A 
ATOM     16  C   UNL     1      29.073  28.987  16.606  0.00  0.00    +0.000 A 
ATOM     17  N   UNL     1      30.168  28.838  15.825  0.00  0.00    +0.000 NA
ATOM     18  C   UNL     1      31.202  28.081  16.241  0.00  0.00    +0.000 A 
ATOM     19  C   UNL     1      31.176  27.442  17.463  0.00  0.00    +0.000 A 
ENDBRANCH  13  14
ENDBRANCH   3  12
TORSDOF 4
ENDMDL
MODEL 9
REMARK VINA RESULT:      -5.8     22.984     24.116
REMARK  Name = 
REMARK  4 active torsions:
REMARK  status: ('A' for Active; 'I' for Inactive)
REMARK    1  A    between atoms: C_2  and  C_4
REMARK    2  A    between atoms: C_6  and  C_7
REMARK    3  A    between atoms: N_9  and  N_10
REMARK    4  A    between atoms: C_11  and  C_12
REMARK                            x       y       z     vdW  Elec       q    Type
REMARK                         _______ _______ _______ _____ _____    ______ ____
ROOT
ATOM      1  C   UNL     1      23.008  -7.580  24.769  0.00  0.00    +0.000 C 
ATOM      2  O   UNL     1      23.571  -6.473  24.958  0.00  0.00    +0.000 OA
ATOM      3  N   UNL     1      23.808  -8.638  24.290  0.00  0.00    +0.000 NA
ENDROOT
BRANCH   1   6
ATOM      4  C   UNL     1      19.470  -7.078  25.728  0.00  0.00    +0.000 A 
ATOM      5  C   UNL     1      20.782  -6.806  25.515  0.00  0.00    +0.000 A 
ATOM      6  C   UNL     1      21.563  -7.774  25.036  0.00  0.00    +0.000 A 
ATOM      7  C   UNL     1      20.964  -8.989  24.793  0.00  0.00    +0.000 A 
ATOM      8  S   UNL     1      19.345  -8.704  25.249  0.00  0.00    +0.000 S 
BRANCH   4  10
ATOM      9  C   UNL     1      17.638  -6.811  27.378  0.00  0.00    +0.000 C 
ATOM     10  C   UNL     1      18.391  -6.187  26.250  0.00  0.00    +0.000 C 
ATOM     11  C   UNL     1      19.030  -4.872  26.612  0.00  0.00    +0.000 C 
ENDBRANCH   4  10
ENDBRANCH   1   6
BRANCH   3  12
ATOM     12  N   UNL     1      25.174  -8.510  24.022  0.00  0.00    +0.000 NA
ATOM     13  C   UNL     1      25.683  -8.380  22.865  0.00  0.00    +0.000 C 
BRANCH  13  14
ATOM     14  C   UNL     1      27.136  -8.251  22.667  0.00  0.00    +0.000 A 
ATOM     15  C   UNL     1      27.646  -7.132  22.057  0.00  0.00    +0.000 A 
ATOM     16  C   UNL     1      29.009  -7.025  21.877  0.00  0.00    +0.000 A 
ATOM     17  N   UNL     1      29.829  -8.015  22.301  0.00  0.00    +0.000 NA
ATOM     18  C   UNL     1      29.321  -9.109  22.899  0.00  0.00    +0.000 A 
ATOM     19  C   UNL     1      27.963  -9.253  23.096  0.00  0.00    +0.000 A 
ENDBRANCH  13  14
ENDBRANCH   3  12
TORSDOF 4
ENDMDL
MODEL 10
REMARK VINA RESULT:      -5.7     22.873     26.495
REMARK  Name = 
REMARK  4 active torsions:
REMARK  status: ('A' for Active; 'I' for Inactive)
REMARK    1  A    between atoms: C_2  and  C_4
REMARK    2  A    between atoms: C_6  and  C_7
REMARK    3  A    between atoms: N_9  and  N_10
REMARK    4  A    between atoms: C_11  and  C_12
REMARK                            x       y       z     vdW  Elec       q    Type
REMARK                         _______ _______ _______ _____ _____    ______ ____
ROOT
ATOM      1  C   UNL     1      29.686  26.843  20.412  0.00  0.00    +0.000 C 
ATOM      2  O   UNL     1      29.452  27.505  21.454  0.00  0.00    +0.000 OA
ATOM      3  N   UNL     1      29.554  25.442  20.494  0.00  0.00    +0.000 NA
ENDROOT
BRANCH   1   6
ATOM      4  C   UNL     1      30.243  27.644  16.844  0.00  0.00    +0.000 A 
ATOM      5  C   UNL     1      29.840  26.969  17.948  0.00  0.00    +0.000 A 
ATOM      6  C   UNL     1      30.085  27.501  19.146  0.00  0.00    +0.000 A 
ATOM      7  C   UNL     1      30.739  28.711  19.161  0.00  0.00    +0.000 A 
ATOM      8  S   UNL     1      30.971  29.032  17.501  0.00  0.00    +0.000 S 
BRANCH   4  10
ATOM      9  C   UNL     1      29.004  26.285  15.180  0.00  0.00    +0.000 C 
ATOM     10  C   UNL     1      30.096  27.278  15.403  0.00  0.00    +0.000 C 
ATOM     11  C   UNL     1      29.908  28.558  14.632  0.00  0.00    +0.000 C 
ENDBRANCH   4  10
ENDBRANCH   1   6
BRANCH   3  12
ATOM     12  N   UNL     1      29.182  24.770  21.662  0.00  0.00    +0.000 NA
ATOM     13  C   UNL     1      27.986  24.582  22.048  0.00  0.00    +0.000 C 
BRANCH  13  14
ATOM     14  C   UNL     1      27.676  23.861  23.294  0.00  0.00    +0.000 A 
ATOM     15  C   UNL     1      26.370  23.613  23.633  0.00  0.00    +0.000 A 
ATOM     16  C   UNL     1      26.095  22.938  24.804  0.00  0.00    +0.000 A 
ATOM     17  N   UNL     1      27.107  22.526  25.603  0.00  0.00    +0.000 NA
ATOM     18  C   UNL     1      28.387  22.774  25.263  0.00  0.00    +0.000 A 
ATOM     19  C   UNL     1      28.701  23.446  24.100  0.00  0.00    +0.000 A 
ENDBRANCH  13  14
ENDBRANCH   3  12
TORSDOF 4
ENDMDL
