MODEL 1
REMARK VINA RESULT:      -6.9      0.000      0.000
REMARK  Name = 
REMARK  3 active torsions:
REMARK  status: ('A' for Active; 'I' for Inactive)
REMARK    1  A    between atoms: C_2  and  C_13
REMARK    2  A    between atoms: N_3  and  N_4
REMARK    3  A    between atoms: N_4  and  C_5
REMARK                            x       y       z     vdW  Elec       q    Type
REMARK                         _______ _______ _______ _____ _____    ______ ____
ROOT
ATOM      1  O   UNL     1      33.502  -2.896  35.105  0.00  0.00    +0.000 OA
ATOM      2  C   UNL     1      33.541  -2.452  33.930  0.00  0.00    +0.000 C 
ATOM      3  N   UNL     1      33.588  -3.375  32.859  0.00  0.00    +0.000 NA
ENDROOT
BRANCH   2   4
ATOM      4  C   UNL     1      33.539  -1.011  33.725  0.00  0.00    +0.000 A 
ATOM      5  C   UNL     1      32.801  -0.156  34.541  0.00  0.00    +0.000 A 
ATOM      6  C   UNL     1      32.792   1.188  34.363  0.00  0.00    +0.000 A 
ATOM      7  C   UNL     1      33.512   1.753  33.363  0.00  0.00    +0.000 A 
ATOM      8 CL   UNL     1      33.474   3.490  33.166  0.00  0.00    +0.000 Cl
ATOM      9  C   UNL     1      34.265   0.943  32.522  0.00  0.00    +0.000 A 
ATOM     10  C   UNL     1      34.261  -0.414  32.719  0.00  0.00    +0.000 A 
ENDBRANCH   2   4
BRANCH   3  11
ATOM     11  N   UNL     1      33.591  -4.774  33.076  0.00  0.00    +0.000 NA
BRANCH  11  12
ATOM     12  C   UNL     1      32.804  -5.584  32.205  0.00  0.00    +0.000 C 
ATOM     13  C   UNL     1      33.181  -6.153  31.137  0.00  0.00    +0.000 C 
ATOM     14  C   UNL     1      32.631  -6.943  30.180  0.00  0.00    +0.000 C 
ATOM     15  C   UNL     1      33.262  -6.499  28.734  0.00  0.00    +0.000 C 
ATOM     16  C   UNL     1      34.553  -7.514  28.769  0.00  0.00    +0.000 C 
ATOM     17  C   UNL     1      34.920  -7.484  30.106  0.00  0.00    +0.000 C 
ATOM     18  C   UNL     1      34.715  -5.959  30.689  0.00  0.00    +0.000 C 
ATOM     19  C   UNL     1      34.211  -5.289  29.283  0.00  0.00    +0.000 C 
ENDBRANCH  11  12
ENDBRANCH   3  11
TORSDOF 3
ENDMDL
MODEL 2
REMARK VINA RESULT:      -6.9     20.990     22.812
REMARK  Name = 
REMARK  3 active torsions:
REMARK  status: ('A' for Active; 'I' for Inactive)
REMARK    1  A    between atoms: C_2  and  C_13
REMARK    2  A    between atoms: N_3  and  N_4
REMARK    3  A    between atoms: N_4  and  C_5
REMARK                            x       y       z     vdW  Elec       q    Type
REMARK                         _______ _______ _______ _____ _____    ______ ____
ROOT
ATOM      1  O   UNL     1      18.089  11.781  37.195  0.00  0.00    +0.000 OA
ATOM      2  C   UNL     1      17.661  10.601  37.147  0.00  0.00    +0.000 C 
ATOM      3  N   UNL     1      17.219  10.091  35.903  0.00  0.00    +0.000 NA
ENDROOT
BRANCH   2   4
ATOM      4  C   UNL     1      17.638   9.813  38.371  0.00  0.00    +0.000 A 
ATOM      5  C   UNL     1      16.671  10.012  39.352  0.00  0.00    +0.000 A 
ATOM      6  C   UNL     1      16.636   9.285  40.495  0.00  0.00    +0.000 A 
ATOM      7  C   UNL     1      17.563   8.323  40.726  0.00  0.00    +0.000 A 
ATOM      8 CL   UNL     1      17.486   7.406  42.213  0.00  0.00    +0.000 Cl
ATOM      9  C   UNL     1      18.550   8.085  39.777  0.00  0.00    +0.000 A 
ATOM     10  C   UNL     1      18.567   8.832  38.627  0.00  0.00    +0.000 A 
ENDBRANCH   2   4
BRANCH   3  11
ATOM     11  N   UNL     1      17.247  10.872  34.722  0.00  0.00    +0.000 NA
BRANCH  11  12
ATOM     12  C   UNL     1      16.112  11.686  34.437  0.00  0.00    +0.000 C 
ATOM     13  C   UNL     1      15.527  11.826  33.321  0.00  0.00    +0.000 C 
ATOM     14  C   UNL     1      14.469  12.519  32.830  0.00  0.00    +0.000 C 
ATOM     15  C   UNL     1      14.855  13.028  31.320  0.00  0.00    +0.000 C 
ATOM     16  C   UNL     1      14.302  11.702  30.524  0.00  0.00    +0.000 C 
ATOM     17  C   UNL     1      14.649  10.671  31.384  0.00  0.00    +0.000 C 
ATOM     18  C   UNL     1      16.109  11.004  32.066  0.00  0.00    +0.000 C 
ATOM     19  C   UNL     1      16.368  12.413  31.274  0.00  0.00    +0.000 C 
ENDBRANCH  11  12
ENDBRANCH   3  11
TORSDOF 3
ENDMDL
MODEL 3
REMARK VINA RESULT:      -6.8     18.254     20.898
REMARK  Name = 
REMARK  3 active torsions:
REMARK  status: ('A' for Active; 'I' for Inactive)
REMARK    1  A    between atoms: C_2  and  C_13
REMARK    2  A    between atoms: N_3  and  N_4
REMARK    3  A    between atoms: N_4  and  C_5
REMARK                            x       y       z     vdW  Elec       q    Type
REMARK                         _______ _______ _______ _____ _____    ______ ____
ROOT
ATOM      1  O   UNL     1      17.325  11.508  37.210  0.00  0.00    +0.000 OA
ATOM      2  C   UNL     1      17.714  10.852  36.212  0.00  0.00    +0.000 C 
ATOM      3  N   UNL     1      18.857  10.029  36.346  0.00  0.00    +0.000 NA
ENDROOT
BRANCH   2   4
ATOM      4  C   UNL     1      16.974  10.971  34.964  0.00  0.00    +0.000 A 
ATOM      5  C   UNL     1      15.823  11.750  34.865  0.00  0.00    +0.000 A 
ATOM      6  C   UNL     1      15.126  11.871  33.710  0.00  0.00    +0.000 A 
ATOM      7  C   UNL     1      15.533  11.223  32.591  0.00  0.00    +0.000 A 
ATOM      8 CL   UNL     1      14.607  11.404  31.119  0.00  0.00    +0.000 Cl
ATOM      9  C   UNL     1      16.676  10.433  32.637  0.00  0.00    +0.000 A 
ATOM     10  C   UNL     1      17.367  10.324  33.816  0.00  0.00    +0.000 A 
ENDBRANCH   2   4
BRANCH   3  11
ATOM     11  N   UNL     1      19.565   9.926  37.568  0.00  0.00    +0.000 NA
BRANCH  11  12
ATOM     12  C   UNL     1      20.597  10.878  37.819  0.00  0.00    +0.000 C 
ATOM     13  C   UNL     1      21.819  10.791  37.493  0.00  0.00    +0.000 C 
ATOM     14  C   UNL     1      22.941  11.543  37.620  0.00  0.00    +0.000 C 
ATOM     15  C   UNL     1      24.198  10.531  37.909  0.00  0.00    +0.000 C 
ATOM     16  C   UNL     1      24.601  10.273  36.338  0.00  0.00    +0.000 C 
ATOM     17  C   UNL     1      23.362  10.227  35.716  0.00  0.00    +0.000 C 
ATOM     18  C   UNL     1      22.288   9.468  36.705  0.00  0.00    +0.000 C 
ATOM     19  C   UNL     1      23.347   9.137  37.910  0.00  0.00    +0.000 C 
ENDBRANCH  11  12
ENDBRANCH   3  11
TORSDOF 3
ENDMDL
MODEL 4
REMARK VINA RESULT:      -6.7      4.237      8.936
REMARK  Name = 
REMARK  3 active torsions:
REMARK  status: ('A' for Active; 'I' for Inactive)
REMARK    1  A    between atoms: C_2  and  C_13
REMARK    2  A    between atoms: N_3  and  N_4
REMARK    3  A    between atoms: N_4  and  C_5
REMARK                            x       y       z     vdW  Elec       q    Type
REMARK                         _______ _______ _______ _____ _____    ______ ____
ROOT
ATOM      1  O   UNL     1      34.312   0.629  35.148  0.00  0.00    +0.000 OA
ATOM      2  C   UNL     1      33.806   0.111  34.122  0.00  0.00    +0.000 C 
ATOM      3  N   UNL     1      33.753   0.876  32.932  0.00  0.00    +0.000 NA
ENDROOT
BRANCH   2   4
ATOM      4  C   UNL     1      33.295  -1.249  34.203  0.00  0.00    +0.000 A 
ATOM      5  C   UNL     1      32.237  -1.586  35.045  0.00  0.00    +0.000 A 
ATOM      6  C   UNL     1      31.750  -2.847  35.130  0.00  0.00    +0.000 A 
ATOM      7  C   UNL     1      32.289  -3.843  34.384  0.00  0.00    +0.000 A 
ATOM      8 CL   UNL     1      31.633  -5.459  34.522  0.00  0.00    +0.000 Cl
ATOM      9  C   UNL     1      33.346  -3.560  33.529  0.00  0.00    +0.000 A 
ATOM     10  C   UNL     1      33.824  -2.276  33.458  0.00  0.00    +0.000 A 
ENDBRANCH   2   4
BRANCH   3  11
ATOM     11  N   UNL     1      34.254   2.199  32.871  0.00  0.00    +0.000 NA
BRANCH  11  12
ATOM     12  C   UNL     1      33.341   3.267  33.116  0.00  0.00    +0.000 C 
ATOM     13  C   UNL     1      33.479   4.222  33.937  0.00  0.00    +0.000 C 
ATOM     14  C   UNL     1      32.771   5.312  34.327  0.00  0.00    +0.000 C 
ATOM     15  C   UNL     1      32.973   5.494  35.944  0.00  0.00    +0.000 C 
ATOM     16  C   UNL     1      34.310   6.446  35.863  0.00  0.00    +0.000 C 
ATOM     17  C   UNL     1      35.002   5.898  34.793  0.00  0.00    +0.000 C 
ATOM     18  C   UNL     1      34.826   4.261  34.816  0.00  0.00    +0.000 C 
ATOM     19  C   UNL     1      33.927   4.190  36.183  0.00  0.00    +0.000 C 
ENDBRANCH  11  12
ENDBRANCH   3  11
TORSDOF 3
ENDMDL
MODEL 5
REMARK VINA RESULT:      -6.5     21.140     22.509
REMARK  Name = 
REMARK  3 active torsions:
REMARK  status: ('A' for Active; 'I' for Inactive)
REMARK    1  A    between atoms: C_2  and  C_13
REMARK    2  A    between atoms: N_3  and  N_4
REMARK    3  A    between atoms: N_4  and  C_5
REMARK                            x       y       z     vdW  Elec       q    Type
REMARK                         _______ _______ _______ _____ _____    ______ ____
ROOT
ATOM      1  O   UNL     1      19.196   9.711  36.194  0.00  0.00    +0.000 OA
ATOM      2  C   UNL     1      18.067  10.208  36.432  0.00  0.00    +0.000 C 
ATOM      3  N   UNL     1      17.672  10.377  37.780  0.00  0.00    +0.000 NA
ENDROOT
BRANCH   2   4
ATOM      4  C   UNL     1      17.217  10.585  35.312  0.00  0.00    +0.000 A 
ATOM      5  C   UNL     1      17.510  10.196  34.006  0.00  0.00    +0.000 A 
ATOM      6  C   UNL     1      16.726  10.538  32.955  0.00  0.00    +0.000 A 
ATOM      7  C   UNL     1      15.611  11.286  33.143  0.00  0.00    +0.000 A 
ATOM      8 CL   UNL     1      14.626  11.706  31.761  0.00  0.00    +0.000 Cl
ATOM      9  C   UNL     1      15.275  11.699  34.427  0.00  0.00    +0.000 A 
ATOM     10  C   UNL     1      16.081  11.342  35.477  0.00  0.00    +0.000 A 
ENDBRANCH   2   4
BRANCH   3  11
ATOM     11  N   UNL     1      18.511  10.004  38.858  0.00  0.00    +0.000 NA
BRANCH  11  12
ATOM     12  C   UNL     1      18.404   8.671  39.353  0.00  0.00    +0.000 C 
ATOM     13  C   UNL     1      17.698   8.267  40.324  0.00  0.00    +0.000 C 
ATOM     14  C   UNL     1      17.445   7.091  40.952  0.00  0.00    +0.000 C 
ATOM     15  C   UNL     1      17.317   7.392  42.558  0.00  0.00    +0.000 C 
ATOM     16  C   UNL     1      15.702   7.694  42.568  0.00  0.00    +0.000 C 
ATOM     17  C   UNL     1      15.519   8.375  41.373  0.00  0.00    +0.000 C 
ATOM     18  C   UNL     1      16.812   9.358  41.107  0.00  0.00    +0.000 C 
ATOM     19  C   UNL     1      17.607   8.998  42.493  0.00  0.00    +0.000 C 
ENDBRANCH  11  12
ENDBRANCH   3  11
TORSDOF 3
ENDMDL
MODEL 6
REMARK VINA RESULT:      -6.3     19.990     21.919
REMARK  Name = 
REMARK  3 active torsions:
REMARK  status: ('A' for Active; 'I' for Inactive)
REMARK    1  A    between atoms: C_2  and  C_13
REMARK    2  A    between atoms: N_3  and  N_4
REMARK    3  A    between atoms: N_4  and  C_5
REMARK                            x       y       z     vdW  Elec       q    Type
REMARK                         _______ _______ _______ _____ _____    ______ ____
ROOT
ATOM      1  O   UNL     1      18.522   9.686  35.000  0.00  0.00    +0.000 OA
ATOM      2  C   UNL     1      17.407  10.225  35.212  0.00  0.00    +0.000 C 
ATOM      3  N   UNL     1      16.928  10.291  36.541  0.00  0.00    +0.000 NA
ENDROOT
BRANCH   2   4
ATOM      4  C   UNL     1      16.660  10.755  34.080  0.00  0.00    +0.000 A 
ATOM      5  C   UNL     1      15.669  11.720  34.243  0.00  0.00    +0.000 A 
ATOM      6  C   UNL     1      14.967  12.223  33.199  0.00  0.00    +0.000 A 
ATOM      7  C   UNL     1      15.210  11.792  31.937  0.00  0.00    +0.000 A 
ATOM      8 CL   UNL     1      14.283  12.464  30.615  0.00  0.00    +0.000 Cl
ATOM      9  C   UNL     1      16.189  10.829  31.721  0.00  0.00    +0.000 A 
ATOM     10  C   UNL     1      16.888  10.333  32.791  0.00  0.00    +0.000 A 
ENDBRANCH   2   4
BRANCH   3  11
ATOM     11  N   UNL     1      17.668   9.770  37.630  0.00  0.00    +0.000 NA
BRANCH  11  12
ATOM     12  C   UNL     1      18.314  10.698  38.499  0.00  0.00    +0.000 C 
ATOM     13  C   UNL     1      19.560  10.843  38.678  0.00  0.00    +0.000 C 
ATOM     14  C   UNL     1      20.375  11.630  39.423  0.00  0.00    +0.000 C 
ATOM     15  C   UNL     1      21.637  10.715  39.930  0.00  0.00    +0.000 C 
ATOM     16  C   UNL     1      22.612  11.003  38.640  0.00  0.00    +0.000 C 
ATOM     17  C   UNL     1      21.712  11.024  37.584  0.00  0.00    +0.000 C 
ATOM     18  C   UNL     1      20.550   9.888  37.842  0.00  0.00    +0.000 C 
ATOM     19  C   UNL     1      21.163   9.310  39.246  0.00  0.00    +0.000 C 
ENDBRANCH  11  12
ENDBRANCH   3  11
TORSDOF 3
ENDMDL
MODEL 7
REMARK VINA RESULT:      -6.3     28.147     31.696
REMARK  Name = 
REMARK  3 active torsions:
REMARK  status: ('A' for Active; 'I' for Inactive)
REMARK    1  A    between atoms: C_2  and  C_13
REMARK    2  A    between atoms: N_3  and  N_4
REMARK    3  A    between atoms: N_4  and  C_5
REMARK                            x       y       z     vdW  Elec       q    Type
REMARK                         _______ _______ _______ _____ _____    ______ ____
ROOT
ATOM      1  O   UNL     1      27.465  25.103  21.408  0.00  0.00    +0.000 OA
ATOM      2  C   UNL     1      28.546  24.666  21.875  0.00  0.00    +0.000 C 
ATOM      3  N   UNL     1      29.734  24.866  21.134  0.00  0.00    +0.000 NA
ENDROOT
BRANCH   2   4
ATOM      4  C   UNL     1      28.526  23.972  23.154  0.00  0.00    +0.000 A 
ATOM      5  C   UNL     1      29.682  23.431  23.713  0.00  0.00    +0.000 A 
ATOM      6  C   UNL     1      29.678  22.784  24.904  0.00  0.00    +0.000 A 
ATOM      7  C   UNL     1      28.525  22.638  25.602  0.00  0.00    +0.000 A 
ATOM      8 CL   UNL     1      28.561  21.797  27.135  0.00  0.00    +0.000 Cl
ATOM      9  C   UNL     1      27.345  23.159  25.088  0.00  0.00    +0.000 A 
ATOM     10  C   UNL     1      27.370  23.811  23.881  0.00  0.00    +0.000 A 
ENDBRANCH   2   4
BRANCH   3  11
ATOM     11  N   UNL     1      29.735  25.542  19.889  0.00  0.00    +0.000 NA
BRANCH  11  12
ATOM     12  C   UNL     1      29.742  26.968  19.909  0.00  0.00    +0.000 C 
ATOM     13  C   UNL     1      30.099  27.747  18.976  0.00  0.00    +0.000 C 
ATOM     14  C   UNL     1      30.187  29.086  18.773  0.00  0.00    +0.000 C 
ATOM     15  C   UNL     1      31.541  29.377  17.896  0.00  0.00    +0.000 C 
ATOM     16  C   UNL     1      30.842  29.243  16.416  0.00  0.00    +0.000 C 
ATOM     17  C   UNL     1      29.939  28.207  16.604  0.00  0.00    +0.000 C 
ATOM     18  C   UNL     1      30.608  27.082  17.602  0.00  0.00    +0.000 C 
ATOM     19  C   UNL     1      32.053  27.830  17.784  0.00  0.00    +0.000 C 
ENDBRANCH  11  12
ENDBRANCH   3  11
TORSDOF 3
ENDMDL
MODEL 8
REMARK VINA RESULT:      -6.2     29.076     31.790
REMARK  Name = 
REMARK  3 active torsions:
REMARK  status: ('A' for Active; 'I' for Inactive)
REMARK    1  A    between atoms: C_2  and  C_13
REMARK    2  A    between atoms: N_3  and  N_4
REMARK    3  A    between atoms: N_4  and  C_5
REMARK                            x       y       z     vdW  Elec       q    Type
REMARK                         _______ _______ _______ _____ _____    ______ ____
ROOT
ATOM      1  O   UNL     1      29.052  26.891  21.915  0.00  0.00    +0.000 OA
ATOM      2  C   UNL     1      29.506  26.402  20.851  0.00  0.00    +0.000 C 
ATOM      3  N   UNL     1      29.690  25.001  20.774  0.00  0.00    +0.000 NA
ENDROOT
BRANCH   2   4
ATOM      4  C   UNL     1      29.825  27.297  19.749  0.00  0.00    +0.000 A 
ATOM      5  C   UNL     1      30.139  26.815  18.480  0.00  0.00    +0.000 A 
ATOM      6  C   UNL     1      30.435  27.638  17.444  0.00  0.00    +0.000 A 
ATOM      7  C   UNL     1      30.438  28.983  17.614  0.00  0.00    +0.000 A 
ATOM      8 CL   UNL     1      30.826  30.011  16.254  0.00  0.00    +0.000 Cl
ATOM      9  C   UNL     1      30.131  29.514  18.861  0.00  0.00    +0.000 A 
ATOM     10  C   UNL     1      29.834  28.664  19.896  0.00  0.00    +0.000 A 
ENDBRANCH   2   4
BRANCH   3  11
ATOM     11  N   UNL     1      29.376  24.144  21.857  0.00  0.00    +0.000 NA
BRANCH  11  12
ATOM     12  C   UNL     1      28.041  23.650  21.948  0.00  0.00    +0.000 C 
ATOM     13  C   UNL     1      27.246  23.764  22.927  0.00  0.00    +0.000 C 
ATOM     14  C   UNL     1      25.977  23.391  23.230  0.00  0.00    +0.000 C 
ATOM     15  C   UNL     1      25.939  22.960  24.811  0.00  0.00    +0.000 C 
ATOM     16  C   UNL     1      25.596  24.451  25.407  0.00  0.00    +0.000 C 
ATOM     17  C   UNL     1      26.341  25.281  24.582  0.00  0.00    +0.000 C 
ATOM     18  C   UNL     1      27.772  24.550  24.229  0.00  0.00    +0.000 C 
ATOM     19  C   UNL     1      27.522  23.206  25.131  0.00  0.00    +0.000 C 
ENDBRANCH  11  12
ENDBRANCH   3  11
TORSDOF 3
ENDMDL
MODEL 9
REMARK VINA RESULT:      -5.9     18.965     20.444
REMARK  Name = 
REMARK  3 active torsions:
REMARK  status: ('A' for Active; 'I' for Inactive)
REMARK    1  A    between atoms: C_2  and  C_13
REMARK    2  A    between atoms: N_3  and  N_4
REMARK    3  A    between atoms: N_4  and  C_5
REMARK                            x       y       z     vdW  Elec       q    Type
REMARK                         _______ _______ _______ _____ _____    ______ ____
ROOT
ATOM      1  O   UNL     1      23.425   2.953  15.852  0.00  0.00    +0.000 OA
ATOM      2  C   UNL     1      22.742   2.648  16.861  0.00  0.00    +0.000 C 
ATOM      3  N   UNL     1      23.267   2.930  18.144  0.00  0.00    +0.000 NA
ENDROOT
BRANCH   2   4
ATOM      4  C   UNL     1      21.446   2.016  16.665  0.00  0.00    +0.000 A 
ATOM      5  C   UNL     1      20.362   2.293  17.495  0.00  0.00    +0.000 A 
ATOM      6  C   UNL     1      19.149   1.714  17.323  0.00  0.00    +0.000 A 
ATOM      7  C   UNL     1      18.948   0.827  16.318  0.00  0.00    +0.000 A 
ATOM      8 CL   UNL     1      17.369   0.100  16.128  0.00  0.00    +0.000 Cl
ATOM      9  C   UNL     1      19.997   0.516  15.461  0.00  0.00    +0.000 A 
ATOM     10  C   UNL     1      21.217   1.114  15.653  0.00  0.00    +0.000 A 
ENDBRANCH   2   4
BRANCH   3  11
ATOM     11  N   UNL     1      24.532   3.544  18.317  0.00  0.00    +0.000 NA
BRANCH  11  12
ATOM     12  C   UNL     1      24.656   4.920  17.964  0.00  0.00    +0.000 C 
ATOM     13  C   UNL     1      25.723   5.557  17.719  0.00  0.00    +0.000 C 
ATOM     14  C   UNL     1      26.074   6.822  17.375  0.00  0.00    +0.000 C 
ATOM     15  C   UNL     1      27.464   7.193  18.159  0.00  0.00    +0.000 C 
ATOM     16  C   UNL     1      28.490   6.640  17.001  0.00  0.00    +0.000 C 
ATOM     17  C   UNL     1      27.838   5.506  16.541  0.00  0.00    +0.000 C 
ATOM     18  C   UNL     1      27.112   4.748  17.809  0.00  0.00    +0.000 C 
ATOM     19  C   UNL     1      27.631   5.783  18.966  0.00  0.00    +0.000 C 
ENDBRANCH  11  12
ENDBRANCH   3  11
TORSDOF 3
ENDMDL
MODEL 10
REMARK VINA RESULT:      -5.9      7.526     12.841
REMARK  Name = 
REMARK  3 active torsions:
REMARK  status: ('A' for Active; 'I' for Inactive)
REMARK    1  A    between atoms: C_2  and  C_13
REMARK    2  A    between atoms: N_3  and  N_4
REMARK    3  A    between atoms: N_4  and  C_5
REMARK                            x       y       z     vdW  Elec       q    Type
REMARK                         _______ _______ _______ _____ _____    ______ ____
ROOT
ATOM      1  O   UNL     1      33.693   5.126  37.165  0.00  0.00    +0.000 OA
ATOM      2  C   UNL     1      33.855   5.049  35.922  0.00  0.00    +0.000 C 
ATOM      3  N   UNL     1      34.068   6.241  35.191  0.00  0.00    +0.000 NA
ENDROOT
BRANCH   2   4
ATOM      4  C   UNL     1      33.812   3.738  35.290  0.00  0.00    +0.000 A 
ATOM      5  C   UNL     1      33.678   3.593  33.911  0.00  0.00    +0.000 A 
ATOM      6  C   UNL     1      33.639   2.379  33.310  0.00  0.00    +0.000 A 
ATOM      7  C   UNL     1      33.727   1.244  34.047  0.00  0.00    +0.000 A 
ATOM      8 CL   UNL     1      33.672  -0.303  33.234  0.00  0.00    +0.000 Cl
ATOM      9  C   UNL     1      33.861   1.335  35.426  0.00  0.00    +0.000 A 
ATOM     10  C   UNL     1      33.900   2.574  36.015  0.00  0.00    +0.000 A 
ENDBRANCH   2   4
BRANCH   3  11
ATOM     11  N   UNL     1      34.106   7.509  35.821  0.00  0.00    +0.000 NA
BRANCH  11  12
ATOM     12  C   UNL     1      35.384   8.091  36.066  0.00  0.00    +0.000 C 
ATOM     13  C   UNL     1      35.661   9.324  36.164  0.00  0.00    +0.000 C 
ATOM     14  C   UNL     1      36.762  10.085  36.387  0.00  0.00    +0.000 C 
ATOM     15  C   UNL     1      36.649  11.425  35.450  0.00  0.00    +0.000 C 
ATOM     16  C   UNL     1      35.843  12.352  36.539  0.00  0.00    +0.000 C 
ATOM     17  C   UNL     1      34.988  11.436  37.136  0.00  0.00    +0.000 C 
ATOM     18  C   UNL     1      34.453  10.375  35.998  0.00  0.00    +0.000 C 
ATOM     19  C   UNL     1      35.232  11.056  34.728  0.00  0.00    +0.000 C 
ENDBRANCH  11  12
ENDBRANCH   3  11
TORSDOF 3
ENDMDL
