MODEL 1
REMARK VINA RESULT:      -8.0      0.000      0.000
REMARK  Name = 
REMARK  7 active torsions:
REMARK  status: ('A' for Active; 'I' for Inactive)
REMARK    1  A    between atoms: O_2  and  C_3
REMARK    2  A    between atoms: C_7  and  C_8
REMARK    3  A    between atoms: N_9  and  N_10
REMARK    4  A    between atoms: C_11  and  C_13
REMARK    5  A    between atoms: C_13  and  S_14
REMARK    6  A    between atoms: S_14  and  C_15
REMARK    7  A    between atoms: C_28  and  O_29
REMARK                            x       y       z     vdW  Elec       q    Type
REMARK                         _______ _______ _______ _____ _____    ______ ____
ROOT
ATOM      1  N   UNL     1      37.223   3.188  16.300  0.00  0.00    +0.000 NA
ATOM      2  C   UNL     1      36.381   2.229  16.966  0.00  0.00    +0.000 C 
ATOM      3  O   UNL     1      36.658   1.940  18.152  0.00  0.00    +0.000 OA
ENDROOT
BRANCH   1   5
ATOM      4  C   UNL     1      38.395   5.043  17.168  0.00  0.00    +0.000 C 
ATOM      5  N   UNL     1      38.314   3.784  16.943  0.00  0.00    +0.000 NA
BRANCH   4  10
ATOM      6  C   UNL     1      41.777   6.484  17.712  0.00  0.00    +0.000 A 
ATOM      7  C   UNL     1      41.708   6.698  19.069  0.00  0.00    +0.000 A 
ATOM      8  C   UNL     1      40.606   6.398  19.842  0.00  0.00    +0.000 A 
ATOM      9  C   UNL     1      39.510   5.850  19.211  0.00  0.00    +0.000 A 
ATOM     10  C   UNL     1      39.552   5.623  17.843  0.00  0.00    +0.000 A 
ATOM     11  C   UNL     1      40.673   5.935  17.092  0.00  0.00    +0.000 A 
BRANCH   6  13
ATOM     12  C   UNL     1      43.349   8.147  16.976  0.00  0.00    +0.000 C 
ATOM     13  O   UNL     1      42.900   6.795  16.958  0.00  0.00    +0.000 OA
ENDBRANCH   6  13
BRANCH  11  14
ATOM     14  O   UNL     1      40.677   5.694  15.728  0.00  0.00    +0.000 OA
ATOM     15  C   UNL     1      40.354   6.658  14.752  0.00  0.00    +0.000 C 
ENDBRANCH  11  14
ENDBRANCH   4  10
ENDBRANCH   1   5
BRANCH   2  16
ATOM     16  C   UNL     1      35.224   1.620  16.230  0.00  0.00    +0.000 C 
BRANCH  16  17
ATOM     17  S   UNL     1      35.508  -0.166  16.132  0.00  0.00    +0.000 S 
BRANCH  17  18
ATOM     18  C   UNL     1      37.275  -0.465  16.138  0.00  0.00    +0.000 C 
ATOM     19  C   UNL     1      37.822  -0.932  14.863  0.00  0.00    +0.000 A 
ATOM     20  C   UNL     1      37.774  -0.436  13.553  0.00  0.00    +0.000 A 
ATOM     21  C   UNL     1      38.393  -1.097  12.512  0.00  0.00    +0.000 A 
ATOM     22  C   UNL     1      39.077  -2.270  12.748  0.00  0.00    +0.000 A 
ATOM     23  C   UNL     1      39.112  -2.743  14.049  0.00  0.00    +0.000 A 
ATOM     24  C   UNL     1      38.498  -2.095  15.101  0.00  0.00    +0.000 A 
ATOM     25  C   UNL     1      38.424  -2.432  16.529  0.00  0.00    +0.000 A 
ATOM     26  C   UNL     1      38.966  -3.525  17.225  0.00  0.00    +0.000 A 
ATOM     27  C   UNL     1      38.728  -3.573  18.580  0.00  0.00    +0.000 A 
ATOM     28  C   UNL     1      37.994  -2.599  19.225  0.00  0.00    +0.000 A 
ATOM     29  C   UNL     1      37.469  -1.534  18.534  0.00  0.00    +0.000 A 
ATOM     30  C   UNL     1      37.693  -1.455  17.148  0.00  0.00    +0.000 A 
ENDBRANCH  17  18
ENDBRANCH  16  17
ENDBRANCH   2  16
TORSDOF 7
ENDMDL
MODEL 2
REMARK VINA RESULT:      -7.9      1.817      2.006
REMARK  Name = 
REMARK  7 active torsions:
REMARK  status: ('A' for Active; 'I' for Inactive)
REMARK    1  A    between atoms: O_2  and  C_3
REMARK    2  A    between atoms: C_7  and  C_8
REMARK    3  A    between atoms: N_9  and  N_10
REMARK    4  A    between atoms: C_11  and  C_13
REMARK    5  A    between atoms: C_13  and  S_14
REMARK    6  A    between atoms: S_14  and  C_15
REMARK    7  A    between atoms: C_28  and  O_29
REMARK                            x       y       z     vdW  Elec       q    Type
REMARK                         _______ _______ _______ _____ _____    ______ ____
ROOT
ATOM      1  N   UNL     1      37.494   3.758  16.720  0.00  0.00    +0.000 NA
ATOM      2  C   UNL     1      37.488   3.460  15.312  0.00  0.00    +0.000 C 
ATOM      3  O   UNL     1      38.547   3.656  14.674  0.00  0.00    +0.000 OA
ENDROOT
BRANCH   1   5
ATOM      4  C   UNL     1      38.855   5.497  17.550  0.00  0.00    +0.000 C 
ATOM      5  N   UNL     1      38.635   4.248  17.365  0.00  0.00    +0.000 NA
BRANCH   4  10
ATOM      6  C   UNL     1      42.346   6.645  18.101  0.00  0.00    +0.000 A 
ATOM      7  C   UNL     1      42.303   6.834  19.462  0.00  0.00    +0.000 A 
ATOM      8  C   UNL     1      41.184   6.608  20.236  0.00  0.00    +0.000 A 
ATOM      9  C   UNL     1      40.043   6.166  19.602  0.00  0.00    +0.000 A 
ATOM     10  C   UNL     1      40.059   5.966  18.229  0.00  0.00    +0.000 A 
ATOM     11  C   UNL     1      41.197   6.202  17.477  0.00  0.00    +0.000 A 
BRANCH   6  13
ATOM     12  C   UNL     1      44.044   8.190  17.387  0.00  0.00    +0.000 C 
ATOM     13  O   UNL     1      43.487   6.880  17.345  0.00  0.00    +0.000 OA
ENDBRANCH   6  13
BRANCH  11  14
ATOM     14  O   UNL     1      41.174   5.991  16.108  0.00  0.00    +0.000 OA
ATOM     15  C   UNL     1      40.930   7.000  15.155  0.00  0.00    +0.000 C 
ENDBRANCH  11  14
ENDBRANCH   4  10
ENDBRANCH   1   5
BRANCH   2  16
ATOM     16  C   UNL     1      36.237   2.936  14.669  0.00  0.00    +0.000 C 
BRANCH  16  17
ATOM     17  S   UNL     1      36.575   1.253  14.093  0.00  0.00    +0.000 S 
BRANCH  17  18
ATOM     18  C   UNL     1      37.400   0.354  15.404  0.00  0.00    +0.000 C 
ATOM     19  C   UNL     1      38.708  -0.196  15.042  0.00  0.00    +0.000 A 
ATOM     20  C   UNL     1      39.876   0.365  14.508  0.00  0.00    +0.000 A 
ATOM     21  C   UNL     1      40.993  -0.405  14.258  0.00  0.00    +0.000 A 
ATOM     22  C   UNL     1      40.977  -1.756  14.531  0.00  0.00    +0.000 A 
ATOM     23  C   UNL     1      39.813  -2.291  15.058  0.00  0.00    +0.000 A 
ATOM     24  C   UNL     1      38.687  -1.535  15.314  0.00  0.00    +0.000 A 
ATOM     25  C   UNL     1      37.377  -1.912  15.863  0.00  0.00    +0.000 A 
ATOM     26  C   UNL     1      36.905  -3.166  16.283  0.00  0.00    +0.000 A 
ATOM     27  C   UNL     1      35.614  -3.211  16.760  0.00  0.00    +0.000 A 
ATOM     28  C   UNL     1      34.823  -2.083  16.824  0.00  0.00    +0.000 A 
ATOM     29  C   UNL     1      35.295  -0.862  16.411  0.00  0.00    +0.000 A 
ATOM     30  C   UNL     1      36.609  -0.781  15.918  0.00  0.00    +0.000 A 
ENDBRANCH  17  18
ENDBRANCH  16  17
ENDBRANCH   2  16
TORSDOF 7
ENDMDL
MODEL 3
REMARK VINA RESULT:      -7.9     25.840     29.053
REMARK  Name = 
REMARK  7 active torsions:
REMARK  status: ('A' for Active; 'I' for Inactive)
REMARK    1  A    between atoms: O_2  and  C_3
REMARK    2  A    between atoms: C_7  and  C_8
REMARK    3  A    between atoms: N_9  and  N_10
REMARK    4  A    between atoms: C_11  and  C_13
REMARK    5  A    between atoms: C_13  and  S_14
REMARK    6  A    between atoms: S_14  and  C_15
REMARK    7  A    between atoms: C_28  and  O_29
REMARK                            x       y       z     vdW  Elec       q    Type
REMARK                         _______ _______ _______ _____ _____    ______ ____
ROOT
ATOM      1  N   UNL     1      26.962  15.301  39.245  0.00  0.00    +0.000 NA
ATOM      2  C   UNL     1      25.918  15.890  38.447  0.00  0.00    +0.000 C 
ATOM      3  O   UNL     1      24.981  15.145  38.077  0.00  0.00    +0.000 OA
ENDROOT
BRANCH   1   5
ATOM      4  C   UNL     1      27.605  13.473  40.592  0.00  0.00    +0.000 C 
ATOM      5  N   UNL     1      26.943  13.948  39.601  0.00  0.00    +0.000 NA
BRANCH   4  10
ATOM      6  C   UNL     1      26.384  10.229  41.930  0.00  0.00    +0.000 A 
ATOM      7  C   UNL     1      27.443   9.430  41.567  0.00  0.00    +0.000 A 
ATOM      8  C   UNL     1      28.558   9.886  40.896  0.00  0.00    +0.000 A 
ATOM      9  C   UNL     1      28.610  11.225  40.574  0.00  0.00    +0.000 A 
ATOM     10  C   UNL     1      27.556  12.054  40.929  0.00  0.00    +0.000 A 
ATOM     11  C   UNL     1      26.448  11.568  41.602  0.00  0.00    +0.000 A 
BRANCH   6  13
ATOM     12  C   UNL     1      25.414   9.479  43.998  0.00  0.00    +0.000 C 
ATOM     13  O   UNL     1      25.273   9.743  42.605  0.00  0.00    +0.000 OA
ENDBRANCH   6  13
BRANCH  11  14
ATOM     14  O   UNL     1      25.415  12.428  41.940  0.00  0.00    +0.000 OA
ATOM     15  C   UNL     1      25.341  13.136  43.155  0.00  0.00    +0.000 C 
ENDBRANCH  11  14
ENDBRANCH   4  10
ENDBRANCH   1   5
BRANCH   2  16
ATOM     16  C   UNL     1      25.986  17.346  38.093  0.00  0.00    +0.000 C 
BRANCH  16  17
ATOM     17  S   UNL     1      24.660  17.690  36.908  0.00  0.00    +0.000 S 
BRANCH  17  18
ATOM     18  C   UNL     1      25.384  17.892  35.282  0.00  0.00    +0.000 C 
ATOM     19  C   UNL     1      24.670  18.822  34.404  0.00  0.00    +0.000 A 
ATOM     20  C   UNL     1      24.265  20.156  34.538  0.00  0.00    +0.000 A 
ATOM     21  C   UNL     1      23.588  20.806  33.526  0.00  0.00    +0.000 A 
ATOM     22  C   UNL     1      23.294  20.142  32.354  0.00  0.00    +0.000 A 
ATOM     23  C   UNL     1      23.703  18.824  32.243  0.00  0.00    +0.000 A 
ATOM     24  C   UNL     1      24.381  18.160  33.244  0.00  0.00    +0.000 A 
ATOM     25  C   UNL     1      24.892  16.784  33.314  0.00  0.00    +0.000 A 
ATOM     26  C   UNL     1      24.827  15.751  32.365  0.00  0.00    +0.000 A 
ATOM     27  C   UNL     1      25.404  14.552  32.718  0.00  0.00    +0.000 A 
ATOM     28  C   UNL     1      26.015  14.371  33.941  0.00  0.00    +0.000 A 
ATOM     29  C   UNL     1      26.072  15.388  34.862  0.00  0.00    +0.000 A 
ATOM     30  C   UNL     1      25.493  16.626  34.533  0.00  0.00    +0.000 A 
ENDBRANCH  17  18
ENDBRANCH  16  17
ENDBRANCH   2  16
TORSDOF 7
ENDMDL
MODEL 4
REMARK VINA RESULT:      -7.9      2.427      2.867
REMARK  Name = 
REMARK  7 active torsions:
REMARK  status: ('A' for Active; 'I' for Inactive)
REMARK    1  A    between atoms: O_2  and  C_3
REMARK    2  A    between atoms: C_7  and  C_8
REMARK    3  A    between atoms: N_9  and  N_10
REMARK    4  A    between atoms: C_11  and  C_13
REMARK    5  A    between atoms: C_13  and  S_14
REMARK    6  A    between atoms: S_14  and  C_15
REMARK    7  A    between atoms: C_28  and  O_29
REMARK                            x       y       z     vdW  Elec       q    Type
REMARK                         _______ _______ _______ _____ _____    ______ ____
ROOT
ATOM      1  N   UNL     1      37.630   3.760  15.868  0.00  0.00    +0.000 NA
ATOM      2  C   UNL     1      36.735   2.649  16.061  0.00  0.00    +0.000 C 
ATOM      3  O   UNL     1      36.547   2.255  17.235  0.00  0.00    +0.000 OA
ENDROOT
BRANCH   1   5
ATOM      4  C   UNL     1      38.152   5.636  17.201  0.00  0.00    +0.000 C 
ATOM      5  N   UNL     1      38.272   4.386  16.941  0.00  0.00    +0.000 NA
BRANCH   4  10
ATOM      6  C   UNL     1      38.961   8.007  19.945  0.00  0.00    +0.000 A 
ATOM      7  C   UNL     1      40.097   7.403  20.429  0.00  0.00    +0.000 A 
ATOM      8  C   UNL     1      40.634   6.244  19.911  0.00  0.00    +0.000 A 
ATOM      9  C   UNL     1      39.989   5.660  18.842  0.00  0.00    +0.000 A 
ATOM     10  C   UNL     1      38.840   6.248  18.332  0.00  0.00    +0.000 A 
ATOM     11  C   UNL     1      38.323   7.413  18.874  0.00  0.00    +0.000 A 
BRANCH   6  13
ATOM     12  C   UNL     1      39.366  10.193  20.860  0.00  0.00    +0.000 C 
ATOM     13  O   UNL     1      38.442   9.176  20.485  0.00  0.00    +0.000 OA
ENDBRANCH   6  13
BRANCH  11  14
ATOM     14  O   UNL     1      37.175   7.971  18.337  0.00  0.00    +0.000 OA
ATOM     15  C   UNL     1      37.166   9.064  17.448  0.00  0.00    +0.000 C 
ENDBRANCH  11  14
ENDBRANCH   4  10
ENDBRANCH   1   5
BRANCH   2  16
ATOM     16  C   UNL     1      36.072   2.014  14.875  0.00  0.00    +0.000 C 
BRANCH  16  17
ATOM     17  S   UNL     1      37.282   0.927  14.080  0.00  0.00    +0.000 S 
BRANCH  17  18
ATOM     18  C   UNL     1      38.077  -0.064  15.344  0.00  0.00    +0.000 C 
ATOM     19  C   UNL     1      39.392  -0.591  14.972  0.00  0.00    +0.000 A 
ATOM     20  C   UNL     1      40.572   0.002  14.505  0.00  0.00    +0.000 A 
ATOM     21  C   UNL     1      41.693  -0.752  14.225  0.00  0.00    +0.000 A 
ATOM     22  C   UNL     1      41.669  -2.119  14.403  0.00  0.00    +0.000 A 
ATOM     23  C   UNL     1      40.493  -2.685  14.865  0.00  0.00    +0.000 A 
ATOM     24  C   UNL     1      39.363  -1.946  15.150  0.00  0.00    +0.000 A 
ATOM     25  C   UNL     1      38.041  -2.356  15.642  0.00  0.00    +0.000 A 
ATOM     26  C   UNL     1      37.557  -3.635  15.964  0.00  0.00    +0.000 A 
ATOM     27  C   UNL     1      36.256  -3.709  16.408  0.00  0.00    +0.000 A 
ATOM     28  C   UNL     1      35.465  -2.586  16.533  0.00  0.00    +0.000 A 
ATOM     29  C   UNL     1      35.949  -1.340  16.217  0.00  0.00    +0.000 A 
ATOM     30  C   UNL     1      37.273  -1.229  15.759  0.00  0.00    +0.000 A 
ENDBRANCH  17  18
ENDBRANCH  16  17
ENDBRANCH   2  16
TORSDOF 7
ENDMDL
MODEL 5
REMARK VINA RESULT:      -7.8      1.209      2.948
REMARK  Name = 
REMARK  7 active torsions:
REMARK  status: ('A' for Active; 'I' for Inactive)
REMARK    1  A    between atoms: O_2  and  C_3
REMARK    2  A    between atoms: C_7  and  C_8
REMARK    3  A    between atoms: N_9  and  N_10
REMARK    4  A    between atoms: C_11  and  C_13
REMARK    5  A    between atoms: C_13  and  S_14
REMARK    6  A    between atoms: S_14  and  C_15
REMARK    7  A    between atoms: C_28  and  O_29
REMARK                            x       y       z     vdW  Elec       q    Type
REMARK                         _______ _______ _______ _____ _____    ______ ____
ROOT
ATOM      1  N   UNL     1      37.218   3.425  17.169  0.00  0.00    +0.000 NA
ATOM      2  C   UNL     1      37.240   2.618  15.977  0.00  0.00    +0.000 C 
ATOM      3  O   UNL     1      38.348   2.437  15.422  0.00  0.00    +0.000 OA
ENDROOT
BRANCH   1   5
ATOM      4  C   UNL     1      38.673   5.235  17.584  0.00  0.00    +0.000 C 
ATOM      5  N   UNL     1      38.382   3.992  17.699  0.00  0.00    +0.000 NA
BRANCH   4  10
ATOM      6  C   UNL     1      42.120   6.602  17.822  0.00  0.00    +0.000 A 
ATOM      7  C   UNL     1      42.182   6.805  19.180  0.00  0.00    +0.000 A 
ATOM      8  C   UNL     1      41.150   6.522  20.050  0.00  0.00    +0.000 A 
ATOM      9  C   UNL     1      39.989   6.002  19.520  0.00  0.00    +0.000 A 
ATOM     10  C   UNL     1      39.899   5.785  18.152  0.00  0.00    +0.000 A 
ATOM     11  C   UNL     1      40.952   6.081  17.302  0.00  0.00    +0.000 A 
BRANCH   6  13
ATOM     12  C   UNL     1      43.456   8.270  16.722  0.00  0.00    +0.000 C 
ATOM     13  O   UNL     1      43.175   6.896  16.968  0.00  0.00    +0.000 OA
ENDBRANCH   6  13
BRANCH  11  14
ATOM     14  O   UNL     1      40.824   5.851  15.942  0.00  0.00    +0.000 OA
ATOM     15  C   UNL     1      40.425   6.827  15.008  0.00  0.00    +0.000 C 
ENDBRANCH  11  14
ENDBRANCH   4  10
ENDBRANCH   1   5
BRANCH   2  16
ATOM     16  C   UNL     1      35.963   2.033  15.451  0.00  0.00    +0.000 C 
BRANCH  16  17
ATOM     17  S   UNL     1      36.393   0.811  14.187  0.00  0.00    +0.000 S 
BRANCH  17  18
ATOM     18  C   UNL     1      36.517  -0.798  14.965  0.00  0.00    +0.000 C 
ATOM     19  C   UNL     1      36.348  -0.790  16.420  0.00  0.00    +0.000 A 
ATOM     20  C   UNL     1      35.347  -0.306  17.271  0.00  0.00    +0.000 A 
ATOM     21  C   UNL     1      35.445  -0.434  18.642  0.00  0.00    +0.000 A 
ATOM     22  C   UNL     1      36.546  -1.048  19.201  0.00  0.00    +0.000 A 
ATOM     23  C   UNL     1      37.524  -1.519  18.342  0.00  0.00    +0.000 A 
ATOM     24  C   UNL     1      37.441  -1.399  16.970  0.00  0.00    +0.000 A 
ATOM     25  C   UNL     1      38.360  -1.828  15.907  0.00  0.00    +0.000 A 
ATOM     26  C   UNL     1      39.596  -2.489  15.999  0.00  0.00    +0.000 A 
ATOM     27  C   UNL     1      40.238  -2.766  14.813  0.00  0.00    +0.000 A 
ATOM     28  C   UNL     1      39.697  -2.413  13.594  0.00  0.00    +0.000 A 
ATOM     29  C   UNL     1      38.487  -1.767  13.515  0.00  0.00    +0.000 A 
ATOM     30  C   UNL     1      37.806  -1.469  14.709  0.00  0.00    +0.000 A 
ENDBRANCH  17  18
ENDBRANCH  16  17
ENDBRANCH   2  16
TORSDOF 7
ENDMDL
MODEL 6
REMARK VINA RESULT:      -7.8     25.786     29.211
REMARK  Name = 
REMARK  7 active torsions:
REMARK  status: ('A' for Active; 'I' for Inactive)
REMARK    1  A    between atoms: O_2  and  C_3
REMARK    2  A    between atoms: C_7  and  C_8
REMARK    3  A    between atoms: N_9  and  N_10
REMARK    4  A    between atoms: C_11  and  C_13
REMARK    5  A    between atoms: C_13  and  S_14
REMARK    6  A    between atoms: S_14  and  C_15
REMARK    7  A    between atoms: C_28  and  O_29
REMARK                            x       y       z     vdW  Elec       q    Type
REMARK                         _______ _______ _______ _____ _____    ______ ____
ROOT
ATOM      1  N   UNL     1      26.480  13.981  39.897  0.00  0.00    +0.000 NA
ATOM      2  C   UNL     1      25.593  14.806  39.119  0.00  0.00    +0.000 C 
ATOM      3  O   UNL     1      24.396  14.448  39.032  0.00  0.00    +0.000 OA
ENDROOT
BRANCH   1   5
ATOM      4  C   UNL     1      26.722  12.199  41.425  0.00  0.00    +0.000 C 
ATOM      5  N   UNL     1      26.034  12.820  40.538  0.00  0.00    +0.000 NA
BRANCH   4  10
ATOM      6  C   UNL     1      26.372   8.627  42.389  0.00  0.00    +0.000 A 
ATOM      7  C   UNL     1      25.305   8.735  43.249  0.00  0.00    +0.000 A 
ATOM      8  C   UNL     1      24.673   9.924  43.547  0.00  0.00    +0.000 A 
ATOM      9  C   UNL     1      25.143  11.070  42.943  0.00  0.00    +0.000 A 
ATOM     10  C   UNL     1      26.218  10.990  42.069  0.00  0.00    +0.000 A 
ATOM     11  C   UNL     1      26.834   9.782  41.789  0.00  0.00    +0.000 A 
BRANCH   6  13
ATOM     12  C   UNL     1      27.987   6.960  43.015  0.00  0.00    +0.000 C 
ATOM     13  O   UNL     1      26.990   7.417  42.106  0.00  0.00    +0.000 OA
ENDBRANCH   6  13
BRANCH  11  14
ATOM     14  O   UNL     1      27.905   9.742  40.911  0.00  0.00    +0.000 OA
ATOM     15  C   UNL     1      29.240  10.003  41.279  0.00  0.00    +0.000 C 
ENDBRANCH  11  14
ENDBRANCH   4  10
ENDBRANCH   1   5
BRANCH   2  16
ATOM     16  C   UNL     1      26.122  16.041  38.452  0.00  0.00    +0.000 C 
BRANCH  16  17
ATOM     17  S   UNL     1      24.819  16.689  37.374  0.00  0.00    +0.000 S 
BRANCH  17  18
ATOM     18  C   UNL     1      25.568  17.256  35.849  0.00  0.00    +0.000 C 
ATOM     19  C   UNL     1      24.942  18.443  35.263  0.00  0.00    +0.000 A 
ATOM     20  C   UNL     1      24.652  19.723  35.754  0.00  0.00    +0.000 A 
ATOM     21  C   UNL     1      24.040  20.674  34.964  0.00  0.00    +0.000 A 
ATOM     22  C   UNL     1      23.698  20.376  33.663  0.00  0.00    +0.000 A 
ATOM     23  C   UNL     1      23.992  19.105  33.197  0.00  0.00    +0.000 A 
ATOM     24  C   UNL     1      24.604  18.143  33.973  0.00  0.00    +0.000 A 
ATOM     25  C   UNL     1      24.994  16.760  33.665  0.00  0.00    +0.000 A 
ATOM     26  C   UNL     1      24.847  16.027  32.476  0.00  0.00    +0.000 A 
ATOM     27  C   UNL     1      25.316  14.733  32.486  0.00  0.00    +0.000 A 
ATOM     28  C   UNL     1      25.901  14.181  33.607  0.00  0.00    +0.000 A 
ATOM     29  C   UNL     1      26.041  14.906  34.764  0.00  0.00    +0.000 A 
ATOM     30  C   UNL     1      25.571  16.232  34.787  0.00  0.00    +0.000 A 
ENDBRANCH  17  18
ENDBRANCH  16  17
ENDBRANCH   2  16
TORSDOF 7
ENDMDL
MODEL 7
REMARK VINA RESULT:      -7.7     25.634     27.603
REMARK  Name = 
REMARK  7 active torsions:
REMARK  status: ('A' for Active; 'I' for Inactive)
REMARK    1  A    between atoms: O_2  and  C_3
REMARK    2  A    between atoms: C_7  and  C_8
REMARK    3  A    between atoms: N_9  and  N_10
REMARK    4  A    between atoms: C_11  and  C_13
REMARK    5  A    between atoms: C_13  and  S_14
REMARK    6  A    between atoms: S_14  and  C_15
REMARK    7  A    between atoms: C_28  and  O_29
REMARK                            x       y       z     vdW  Elec       q    Type
REMARK                         _______ _______ _______ _____ _____    ______ ____
ROOT
ATOM      1  N   UNL     1      26.439  14.950  38.307  0.00  0.00    +0.000 NA
ATOM      2  C   UNL     1      25.667  14.485  39.430  0.00  0.00    +0.000 C 
ATOM      3  O   UNL     1      24.439  14.306  39.255  0.00  0.00    +0.000 OA
ENDROOT
BRANCH   1   5
ATOM      4  C   UNL     1      26.523  15.255  35.969  0.00  0.00    +0.000 C 
ATOM      5  N   UNL     1      25.853  15.198  37.061  0.00  0.00    +0.000 NA
BRANCH   4  10
ATOM      6  C   UNL     1      24.606  16.993  33.302  0.00  0.00    +0.000 A 
ATOM      7  C   UNL     1      24.655  16.023  32.329  0.00  0.00    +0.000 A 
ATOM      8  C   UNL     1      25.288  14.807  32.484  0.00  0.00    +0.000 A 
ATOM      9  C   UNL     1      25.906  14.554  33.689  0.00  0.00    +0.000 A 
ATOM     10  C   UNL     1      25.871  15.515  34.690  0.00  0.00    +0.000 A 
ATOM     11  C   UNL     1      25.228  16.728  34.506  0.00  0.00    +0.000 A 
BRANCH   6  13
ATOM     12  C   UNL     1      24.243  18.929  31.924  0.00  0.00    +0.000 C 
ATOM     13  O   UNL     1      23.961  18.208  33.120  0.00  0.00    +0.000 OA
ENDBRANCH   6  13
BRANCH  11  14
ATOM     14  O   UNL     1      25.214  17.662  35.528  0.00  0.00    +0.000 OA
ATOM     15  C   UNL     1      26.104  18.751  35.617  0.00  0.00    +0.000 C 
ENDBRANCH  11  14
ENDBRANCH   4  10
ENDBRANCH   1   5
BRANCH   2  16
ATOM     16  C   UNL     1      26.344  14.235  40.745  0.00  0.00    +0.000 C 
BRANCH  16  17
ATOM     17  S   UNL     1      26.655  12.456  40.878  0.00  0.00    +0.000 S 
BRANCH  17  18
ATOM     18  C   UNL     1      28.359  12.208  41.370  0.00  0.00    +0.000 C 
ATOM     19  C   UNL     1      29.352  12.727  40.426  0.00  0.00    +0.000 A 
ATOM     20  C   UNL     1      29.562  13.982  39.841  0.00  0.00    +0.000 A 
ATOM     21  C   UNL     1      30.602  14.198  38.960  0.00  0.00    +0.000 A 
ATOM     22  C   UNL     1      31.460  13.169  38.638  0.00  0.00    +0.000 A 
ATOM     23  C   UNL     1      31.235  11.937  39.227  0.00  0.00    +0.000 A 
ATOM     24  C   UNL     1      30.200  11.703  40.109  0.00  0.00    +0.000 A 
ATOM     25  C   UNL     1      29.802  10.485  40.828  0.00  0.00    +0.000 A 
ATOM     26  C   UNL     1      30.376   9.203  40.813  0.00  0.00    +0.000 A 
ATOM     27  C   UNL     1      29.776   8.249  41.603  0.00  0.00    +0.000 A 
ATOM     28  C   UNL     1      28.666   8.533  42.371  0.00  0.00    +0.000 A 
ATOM     29  C   UNL     1      28.113   9.790  42.379  0.00  0.00    +0.000 A 
ATOM     30  C   UNL     1      28.702  10.789  41.583  0.00  0.00    +0.000 A 
ENDBRANCH  17  18
ENDBRANCH  16  17
ENDBRANCH   2  16
TORSDOF 7
ENDMDL
MODEL 8
REMARK VINA RESULT:      -7.7      2.515      3.654
REMARK  Name = 
REMARK  7 active torsions:
REMARK  status: ('A' for Active; 'I' for Inactive)
REMARK    1  A    between atoms: O_2  and  C_3
REMARK    2  A    between atoms: C_7  and  C_8
REMARK    3  A    between atoms: N_9  and  N_10
REMARK    4  A    between atoms: C_11  and  C_13
REMARK    5  A    between atoms: C_13  and  S_14
REMARK    6  A    between atoms: S_14  and  C_15
REMARK    7  A    between atoms: C_28  and  O_29
REMARK                            x       y       z     vdW  Elec       q    Type
REMARK                         _______ _______ _______ _____ _____    ______ ____
ROOT
ATOM      1  N   UNL     1      38.401   3.513  16.089  0.00  0.00    +0.000 NA
ATOM      2  C   UNL     1      37.469   3.701  15.007  0.00  0.00    +0.000 C 
ATOM      3  O   UNL     1      36.705   4.692  15.067  0.00  0.00    +0.000 OA
ENDROOT
BRANCH   1   5
ATOM      4  C   UNL     1      39.108   5.502  17.142  0.00  0.00    +0.000 C 
ATOM      5  N   UNL     1      38.461   4.395  17.173  0.00  0.00    +0.000 NA
BRANCH   4  10
ATOM      6  C   UNL     1      38.290   8.323  19.419  0.00  0.00    +0.000 A 
ATOM      7  C   UNL     1      39.192   8.063  20.423  0.00  0.00    +0.000 A 
ATOM      8  C   UNL     1      40.073   7.002  20.412  0.00  0.00    +0.000 A 
ATOM      9  C   UNL     1      40.044   6.155  19.325  0.00  0.00    +0.000 A 
ATOM     10  C   UNL     1      39.144   6.394  18.297  0.00  0.00    +0.000 A 
ATOM     11  C   UNL     1      38.270   7.467  18.335  0.00  0.00    +0.000 A 
BRANCH   6  13
ATOM     12  C   UNL     1      37.975  10.706  19.389  0.00  0.00    +0.000 C 
ATOM     13  O   UNL     1      37.413   9.399  19.455  0.00  0.00    +0.000 OA
ENDBRANCH   6  13
BRANCH  11  14
ATOM     14  O   UNL     1      37.386   7.673  17.289  0.00  0.00    +0.000 OA
ATOM     15  C   UNL     1      37.627   8.546  16.209  0.00  0.00    +0.000 C 
ENDBRANCH  11  14
ENDBRANCH   4  10
ENDBRANCH   1   5
BRANCH   2  16
ATOM     16  C   UNL     1      37.446   2.725  13.869  0.00  0.00    +0.000 C 
BRANCH  16  17
ATOM     17  S   UNL     1      38.676   1.441  14.215  0.00  0.00    +0.000 S 
BRANCH  17  18
ATOM     18  C   UNL     1      37.820  -0.103  14.521  0.00  0.00    +0.000 C 
ATOM     19  C   UNL     1      36.825  -0.050  15.595  0.00  0.00    +0.000 A 
ATOM     20  C   UNL     1      35.716   0.769  15.842  0.00  0.00    +0.000 A 
ATOM     21  C   UNL     1      34.930   0.595  16.962  0.00  0.00    +0.000 A 
ATOM     22  C   UNL     1      35.228  -0.400  17.867  0.00  0.00    +0.000 A 
ATOM     23  C   UNL     1      36.329  -1.199  17.605  0.00  0.00    +0.000 A 
ATOM     24  C   UNL     1      37.125  -1.038  16.490  0.00  0.00    +0.000 A 
ATOM     25  C   UNL     1      38.316  -1.772  16.042  0.00  0.00    +0.000 A 
ATOM     26  C   UNL     1      38.981  -2.857  16.636  0.00  0.00    +0.000 A 
ATOM     27  C   UNL     1      40.086  -3.342  15.973  0.00  0.00    +0.000 A 
ATOM     28  C   UNL     1      40.520  -2.793  14.785  0.00  0.00    +0.000 A 
ATOM     29  C   UNL     1      39.862  -1.733  14.212  0.00  0.00    +0.000 A 
ATOM     30  C   UNL     1      38.730  -1.213  14.863  0.00  0.00    +0.000 A 
ENDBRANCH  17  18
ENDBRANCH  16  17
ENDBRANCH   2  16
TORSDOF 7
ENDMDL
MODEL 9
REMARK VINA RESULT:      -7.6     24.550     27.186
REMARK  Name = 
REMARK  7 active torsions:
REMARK  status: ('A' for Active; 'I' for Inactive)
REMARK    1  A    between atoms: O_2  and  C_3
REMARK    2  A    between atoms: C_7  and  C_8
REMARK    3  A    between atoms: N_9  and  N_10
REMARK    4  A    between atoms: C_11  and  C_13
REMARK    5  A    between atoms: C_13  and  S_14
REMARK    6  A    between atoms: S_14  and  C_15
REMARK    7  A    between atoms: C_28  and  O_29
REMARK                            x       y       z     vdW  Elec       q    Type
REMARK                         _______ _______ _______ _____ _____    ______ ____
ROOT
ATOM      1  N   UNL     1      29.248  17.144  36.245  0.00  0.00    +0.000 NA
ATOM      2  C   UNL     1      28.732  17.439  34.934  0.00  0.00    +0.000 C 
ATOM      3  O   UNL     1      29.018  16.647  34.007  0.00  0.00    +0.000 OA
ENDROOT
BRANCH   1   5
ATOM      4  C   UNL     1      29.863  15.236  37.490  0.00  0.00    +0.000 C 
ATOM      5  N   UNL     1      30.041  16.018  36.489  0.00  0.00    +0.000 NA
BRANCH   4  10
ATOM      6  C   UNL     1      31.549  12.395  39.192  0.00  0.00    +0.000 A 
ATOM      7  C   UNL     1      32.284  11.912  38.135  0.00  0.00    +0.000 A 
ATOM      8  C   UNL     1      32.269  12.461  36.870  0.00  0.00    +0.000 A 
ATOM      9  C   UNL     1      31.467  13.561  36.658  0.00  0.00    +0.000 A 
ATOM     10  C   UNL     1      30.714  14.071  37.707  0.00  0.00    +0.000 A 
ATOM     11  C   UNL     1      30.749  13.498  38.967  0.00  0.00    +0.000 A 
BRANCH   6  13
ATOM     12  C   UNL     1      31.017  10.525  40.605  0.00  0.00    +0.000 C 
ATOM     13  O   UNL     1      31.583  11.823  40.456  0.00  0.00    +0.000 OA
ENDBRANCH   6  13
BRANCH  11  14
ATOM     14  O   UNL     1      29.984  14.036  39.989  0.00  0.00    +0.000 OA
ATOM     15  C   UNL     1      28.714  13.554  40.364  0.00  0.00    +0.000 C 
ENDBRANCH  11  14
ENDBRANCH   4  10
ENDBRANCH   1   5
BRANCH   2  16
ATOM     16  C   UNL     1      27.885  18.660  34.727  0.00  0.00    +0.000 C 
BRANCH  16  17
ATOM     17  S   UNL     1      26.543  18.616  35.941  0.00  0.00    +0.000 S 
BRANCH  17  18
ATOM     18  C   UNL     1      25.075  17.964  35.148  0.00  0.00    +0.000 C 
ATOM     19  C   UNL     1      25.268  16.687  34.458  0.00  0.00    +0.000 A 
ATOM     20  C   UNL     1      25.770  15.441  34.856  0.00  0.00    +0.000 A 
ATOM     21  C   UNL     1      25.841  14.381  33.976  0.00  0.00    +0.000 A 
ATOM     22  C   UNL     1      25.414  14.533  32.675  0.00  0.00    +0.000 A 
ATOM     23  C   UNL     1      24.922  15.772  32.301  0.00  0.00    +0.000 A 
ATOM     24  C   UNL     1      24.844  16.843  33.168  0.00  0.00    +0.000 A 
ATOM     25  C   UNL     1      24.359  18.215  32.965  0.00  0.00    +0.000 A 
ATOM     26  C   UNL     1      23.834  18.822  31.812  0.00  0.00    +0.000 A 
ATOM     27  C   UNL     1      23.457  20.141  31.927  0.00  0.00    +0.000 A 
ATOM     28  C   UNL     1      23.588  20.835  33.112  0.00  0.00    +0.000 A 
ATOM     29  C   UNL     1      24.102  20.231  34.233  0.00  0.00    +0.000 A 
ATOM     30  C   UNL     1      24.497  18.884  34.150  0.00  0.00    +0.000 A 
ENDBRANCH  17  18
ENDBRANCH  16  17
ENDBRANCH   2  16
TORSDOF 7
ENDMDL
MODEL 10
REMARK VINA RESULT:      -7.5      2.394      3.628
REMARK  Name = 
REMARK  7 active torsions:
REMARK  status: ('A' for Active; 'I' for Inactive)
REMARK    1  A    between atoms: O_2  and  C_3
REMARK    2  A    between atoms: C_7  and  C_8
REMARK    3  A    between atoms: N_9  and  N_10
REMARK    4  A    between atoms: C_11  and  C_13
REMARK    5  A    between atoms: C_13  and  S_14
REMARK    6  A    between atoms: S_14  and  C_15
REMARK    7  A    between atoms: C_28  and  O_29
REMARK                            x       y       z     vdW  Elec       q    Type
REMARK                         _______ _______ _______ _____ _____    ______ ____
ROOT
ATOM      1  N   UNL     1      38.225   4.229  17.248  0.00  0.00    +0.000 NA
ATOM      2  C   UNL     1      37.635   4.522  15.967  0.00  0.00    +0.000 C 
ATOM      3  O   UNL     1      38.031   5.549  15.369  0.00  0.00    +0.000 OA
ENDROOT
BRANCH   1   5
ATOM      4  C   UNL     1      38.993   5.792  18.840  0.00  0.00    +0.000 C 
ATOM      5  N   UNL     1      39.204   5.052  17.815  0.00  0.00    +0.000 NA
BRANCH   4  10
ATOM      6  C   UNL     1      40.905   8.825  19.817  0.00  0.00    +0.000 A 
ATOM      7  C   UNL     1      41.978   8.220  20.428  0.00  0.00    +0.000 A 
ATOM      8  C   UNL     1      42.128   6.855  20.548  0.00  0.00    +0.000 A 
ATOM      9  C   UNL     1      41.139   6.052  20.022  0.00  0.00    +0.000 A 
ATOM     10  C   UNL     1      40.044   6.636  19.400  0.00  0.00    +0.000 A 
ATOM     11  C   UNL     1      39.920   8.011  19.294  0.00  0.00    +0.000 A 
BRANCH   6  13
ATOM     12  C   UNL     1      40.490  10.932  20.899  0.00  0.00    +0.000 C 
ATOM     13  O   UNL     1      40.779  10.204  19.709  0.00  0.00    +0.000 OA
ENDBRANCH   6  13
BRANCH  11  14
ATOM     14  O   UNL     1      38.813   8.556  18.665  0.00  0.00    +0.000 OA
ATOM     15  C   UNL     1      38.776   8.924  17.305  0.00  0.00    +0.000 C 
ENDBRANCH  11  14
ENDBRANCH   4  10
ENDBRANCH   1   5
BRANCH   2  16
ATOM     16  C   UNL     1      36.588   3.607  15.405  0.00  0.00    +0.000 C 
BRANCH  16  17
ATOM     17  S   UNL     1      36.553   2.113  16.426  0.00  0.00    +0.000 S 
BRANCH  17  18
ATOM     18  C   UNL     1      36.776   0.688  15.363  0.00  0.00    +0.000 C 
ATOM     19  C   UNL     1      36.291  -0.576  15.922  0.00  0.00    +0.000 A 
ATOM     20  C   UNL     1      35.058  -0.989  16.443  0.00  0.00    +0.000 A 
ATOM     21  C   UNL     1      34.872  -2.273  16.915  0.00  0.00    +0.000 A 
ATOM     22  C   UNL     1      35.910  -3.179  16.880  0.00  0.00    +0.000 A 
ATOM     23  C   UNL     1      37.120  -2.750  16.362  0.00  0.00    +0.000 A 
ATOM     24  C   UNL     1      37.323  -1.471  15.886  0.00  0.00    +0.000 A 
ATOM     25  C   UNL     1      38.514  -0.836  15.306  0.00  0.00    +0.000 A 
ATOM     26  C   UNL     1      39.794  -1.366  15.073  0.00  0.00    +0.000 A 
ATOM     27  C   UNL     1      40.719  -0.519  14.507  0.00  0.00    +0.000 A 
ATOM     28  C   UNL     1      40.409   0.786  14.184  0.00  0.00    +0.000 A 
ATOM     29  C   UNL     1      39.154   1.294  14.415  0.00  0.00    +0.000 A 
ATOM     30  C   UNL     1      38.185   0.455  14.992  0.00  0.00    +0.000 A 
ENDBRANCH  17  18
ENDBRANCH  16  17
ENDBRANCH   2  16
TORSDOF 7
ENDMDL
