MODEL 1
REMARK VINA RESULT:      -8.5      0.000      0.000
REMARK  Name = 
REMARK  7 active torsions:
REMARK  status: ('A' for Active; 'I' for Inactive)
REMARK    1  A    between atoms: C_2  and  C_3
REMARK    2  A    between atoms: C_3  and  C_4
REMARK    3  A    between atoms: C_4  and  O_5
REMARK    4  A    between atoms: O_5  and  C_6
REMARK    5  A    between atoms: C_9  and  N_10
REMARK    6  A    between atoms: C_13  and  C_14
REMARK    7  A    between atoms: C_17  and  N_18
REMARK                            x       y       z     vdW  Elec       q    Type
REMARK                         _______ _______ _______ _____ _____    ______ ____
ROOT
ATOM      1  N   UNL     1      37.010   2.642  16.300  0.00  0.00    +0.000 NA
ATOM      2  C   UNL     1      37.601   3.739  16.421  0.00  0.00    +0.000 A 
ATOM      3  N   UNL     1      38.469   4.423  17.085  0.00  0.00    +0.000 NA
ATOM      4  C   UNL     1      38.971   5.645  17.008  0.00  0.00    +0.000 A 
ATOM      5  N   UNL     1      38.521   6.365  16.066  0.00  0.00    +0.000 NA
ATOM      6  C   UNL     1      37.563   5.951  15.153  0.00  0.00    +0.000 A 
ATOM      7  C   UNL     1      37.140   6.694  14.162  0.00  0.00    +0.000 A 
ATOM      8  C   UNL     1      36.190   6.300  13.171  0.00  0.00    +0.000 A 
ATOM      9  C   UNL     1      35.705   4.946  13.350  0.00  0.00    +0.000 A 
ATOM     10  C   UNL     1      36.189   4.258  14.386  0.00  0.00    +0.000 A 
ATOM     11  C   UNL     1      37.103   4.685  15.306  0.00  0.00    +0.000 A 
ENDROOT
BRANCH   1  15
ATOM     12  C   UNL     1      35.135  -1.015  16.484  0.00  0.00    +0.000 A 
ATOM     13  C   UNL     1      36.190  -0.928  15.581  0.00  0.00    +0.000 A 
ATOM     14  C   UNL     1      36.773   0.419  15.487  0.00  0.00    +0.000 A 
ATOM     15  C   UNL     1      36.354   1.420  16.170  0.00  0.00    +0.000 A 
ATOM     16  C   UNL     1      35.267   1.376  17.104  0.00  0.00    +0.000 A 
ATOM     17  C   UNL     1      34.710   0.077  17.193  0.00  0.00    +0.000 A 
BRANCH  12  18
ATOM     18  O   UNL     1      34.383  -2.148  16.776  0.00  0.00    +0.000 OA
BRANCH  18  19
ATOM     19  C   UNL     1      33.208  -1.764  17.631  0.00  0.00    +0.000 C 
BRANCH  19  20
ATOM     20  C   UNL     1      31.998  -2.661  17.116  0.00  0.00    +0.000 C 
BRANCH  20  22
ATOM     21  C   UNL     1      30.176  -2.992  18.758  0.00  0.00    +0.000 C 
ATOM     22  C   UNL     1      30.716  -2.144  17.680  0.00  0.00    +0.000 C 
ENDBRANCH  20  22
ENDBRANCH  19  20
ENDBRANCH  18  19
ENDBRANCH  12  18
ENDBRANCH   1  15
BRANCH   4  23
ATOM     23  C   UNL     1      40.061   5.953  18.002  0.00  0.00    +0.000 A 
ATOM     24  C   UNL     1      39.880   6.021  19.306  0.00  0.00    +0.000 A 
ATOM     25  C   UNL     1      40.957   6.421  20.221  0.00  0.00    +0.000 A 
ATOM     26  C   UNL     1      42.188   6.725  19.700  0.00  0.00    +0.000 A 
ATOM     27  C   UNL     1      42.379   6.641  18.261  0.00  0.00    +0.000 A 
ATOM     28  C   UNL     1      41.327   6.274  17.552  0.00  0.00    +0.000 A 
BRANCH  26  29
ATOM     29  N   UNL     1      43.350   7.061  20.430  0.00  0.00    +0.000 N 
ATOM     30  O   UNL     1      44.369   7.527  19.858  0.00  0.00    +0.000 OA
ATOM     31  O   UNL     1      43.422   6.874  21.760  0.00  0.00    +0.000 OA
ENDBRANCH  26  29
ENDBRANCH   4  23
TORSDOF 7
ENDMDL
MODEL 2
REMARK VINA RESULT:      -8.1      3.553      7.067
REMARK  Name = 
REMARK  7 active torsions:
REMARK  status: ('A' for Active; 'I' for Inactive)
REMARK    1  A    between atoms: C_2  and  C_3
REMARK    2  A    between atoms: C_3  and  C_4
REMARK    3  A    between atoms: C_4  and  O_5
REMARK    4  A    between atoms: O_5  and  C_6
REMARK    5  A    between atoms: C_9  and  N_10
REMARK    6  A    between atoms: C_13  and  C_14
REMARK    7  A    between atoms: C_17  and  N_18
REMARK                            x       y       z     vdW  Elec       q    Type
REMARK                         _______ _______ _______ _____ _____    ______ ____
ROOT
ATOM      1  N   UNL     1      36.708   5.756  13.912  0.00  0.00    +0.000 NA
ATOM      2  C   UNL     1      37.247   5.335  14.961  0.00  0.00    +0.000 A 
ATOM      3  N   UNL     1      38.148   5.538  15.860  0.00  0.00    +0.000 NA
ATOM      4  C   UNL     1      38.547   4.917  16.958  0.00  0.00    +0.000 A 
ATOM      5  N   UNL     1      37.923   3.850  17.243  0.00  0.00    +0.000 NA
ATOM      6  C   UNL     1      36.886   3.324  16.487  0.00  0.00    +0.000 A 
ATOM      7  C   UNL     1      36.225   2.244  16.818  0.00  0.00    +0.000 A 
ATOM      8  C   UNL     1      35.124   1.687  16.099  0.00  0.00    +0.000 A 
ATOM      9  C   UNL     1      34.772   2.444  14.915  0.00  0.00    +0.000 A 
ATOM     10  C   UNL     1      35.498   3.533  14.651  0.00  0.00    +0.000 A 
ATOM     11  C   UNL     1      36.543   4.025  15.378  0.00  0.00    +0.000 A 
ENDROOT
BRANCH   1  15
ATOM     12  C   UNL     1      34.467   6.882  10.652  0.00  0.00    +0.000 A 
ATOM     13  C   UNL     1      35.661   6.229  10.361  0.00  0.00    +0.000 A 
ATOM     14  C   UNL     1      36.468   5.923  11.552  0.00  0.00    +0.000 A 
ATOM     15  C   UNL     1      36.111   6.226  12.745  0.00  0.00    +0.000 A 
ATOM     16  C   UNL     1      34.895   6.904  13.088  0.00  0.00    +0.000 A 
ATOM     17  C   UNL     1      34.119   7.196  11.939  0.00  0.00    +0.000 A 
BRANCH  12  18
ATOM     18  O   UNL     1      33.510   7.309   9.738  0.00  0.00    +0.000 OA
BRANCH  18  19
ATOM     19  C   UNL     1      34.140   7.455   8.381  0.00  0.00    +0.000 C 
BRANCH  19  20
ATOM     20  C   UNL     1      33.342   6.457   7.432  0.00  0.00    +0.000 C 
BRANCH  20  22
ATOM     21  C   UNL     1      33.227   8.503   6.046  0.00  0.00    +0.000 C 
ATOM     22  C   UNL     1      33.263   7.030   6.056  0.00  0.00    +0.000 C 
ENDBRANCH  20  22
ENDBRANCH  19  20
ENDBRANCH  18  19
ENDBRANCH  12  18
ENDBRANCH   1  15
BRANCH   4  23
ATOM     23  C   UNL     1      39.624   5.624  17.739  0.00  0.00    +0.000 A 
ATOM     24  C   UNL     1      40.788   5.989  17.239  0.00  0.00    +0.000 A 
ATOM     25  C   UNL     1      41.839   6.589  18.070  0.00  0.00    +0.000 A 
ATOM     26  C   UNL     1      41.597   6.780  19.406  0.00  0.00    +0.000 A 
ATOM     27  C   UNL     1      40.308   6.380  19.948  0.00  0.00    +0.000 A 
ATOM     28  C   UNL     1      39.454   5.848  19.092  0.00  0.00    +0.000 A 
BRANCH  26  29
ATOM     29  N   UNL     1      42.460   7.400  20.337  0.00  0.00    +0.000 N 
ATOM     30  O   UNL     1      42.883   6.782  21.347  0.00  0.00    +0.000 OA
ATOM     31  O   UNL     1      42.843   8.682  20.192  0.00  0.00    +0.000 OA
ENDBRANCH  26  29
ENDBRANCH   4  23
TORSDOF 7
ENDMDL
MODEL 3
REMARK VINA RESULT:      -8.1      1.838      2.568
REMARK  Name = 
REMARK  7 active torsions:
REMARK  status: ('A' for Active; 'I' for Inactive)
REMARK    1  A    between atoms: C_2  and  C_3
REMARK    2  A    between atoms: C_3  and  C_4
REMARK    3  A    between atoms: C_4  and  O_5
REMARK    4  A    between atoms: O_5  and  C_6
REMARK    5  A    between atoms: C_9  and  N_10
REMARK    6  A    between atoms: C_13  and  C_14
REMARK    7  A    between atoms: C_17  and  N_18
REMARK                            x       y       z     vdW  Elec       q    Type
REMARK                         _______ _______ _______ _____ _____    ______ ____
ROOT
ATOM      1  N   UNL     1      37.341   2.529  15.823  0.00  0.00    +0.000 NA
ATOM      2  C   UNL     1      37.766   3.668  16.124  0.00  0.00    +0.000 A 
ATOM      3  N   UNL     1      38.549   4.355  16.882  0.00  0.00    +0.000 NA
ATOM      4  C   UNL     1      38.858   5.636  17.012  0.00  0.00    +0.000 A 
ATOM      5  N   UNL     1      38.263   6.427  16.219  0.00  0.00    +0.000 NA
ATOM      6  C   UNL     1      37.339   6.030  15.263  0.00  0.00    +0.000 A 
ATOM      7  C   UNL     1      36.766   6.856  14.425  0.00  0.00    +0.000 A 
ATOM      8  C   UNL     1      35.844   6.493  13.397  0.00  0.00    +0.000 A 
ATOM      9  C   UNL     1      35.576   5.071  13.344  0.00  0.00    +0.000 A 
ATOM     10  C   UNL     1      36.204   4.300  14.236  0.00  0.00    +0.000 A 
ATOM     11  C   UNL     1      37.082   4.701  15.201  0.00  0.00    +0.000 A 
ENDROOT
BRANCH   1  15
ATOM     12  C   UNL     1      36.136  -1.377  15.367  0.00  0.00    +0.000 A 
ATOM     13  C   UNL     1      36.960  -0.884  14.361  0.00  0.00    +0.000 A 
ATOM     14  C   UNL     1      37.295   0.539  14.521  0.00  0.00    +0.000 A 
ATOM     15  C   UNL     1      36.871   1.260  15.492  0.00  0.00    +0.000 A 
ATOM     16  C   UNL     1      36.015   0.795  16.544  0.00  0.00    +0.000 A 
ATOM     17  C   UNL     1      35.696  -0.577  16.388  0.00  0.00    +0.000 A 
BRANCH  12  18
ATOM     18  O   UNL     1      35.644  -2.674  15.477  0.00  0.00    +0.000 OA
BRANCH  18  19
ATOM     19  C   UNL     1      36.087  -3.271  16.783  0.00  0.00    +0.000 C 
BRANCH  19  20
ATOM     20  C   UNL     1      37.065  -4.466  16.393  0.00  0.00    +0.000 C 
BRANCH  20  22
ATOM     21  C   UNL     1      39.147  -3.141  16.575  0.00  0.00    +0.000 C 
ATOM     22  C   UNL     1      38.374  -4.288  17.087  0.00  0.00    +0.000 C 
ENDBRANCH  20  22
ENDBRANCH  19  20
ENDBRANCH  18  19
ENDBRANCH  12  18
ENDBRANCH   1  15
BRANCH   4  23
ATOM     23  C   UNL     1      39.932   5.936  18.026  0.00  0.00    +0.000 A 
ATOM     24  C   UNL     1      39.720   6.049  19.322  0.00  0.00    +0.000 A 
ATOM     25  C   UNL     1      40.786   6.439  20.253  0.00  0.00    +0.000 A 
ATOM     26  C   UNL     1      42.040   6.685  19.758  0.00  0.00    +0.000 A 
ATOM     27  C   UNL     1      42.265   6.551  18.327  0.00  0.00    +0.000 A 
ATOM     28  C   UNL     1      41.220   6.200  17.601  0.00  0.00    +0.000 A 
BRANCH  26  29
ATOM     29  N   UNL     1      43.194   7.002  20.508  0.00  0.00    +0.000 N 
ATOM     30  O   UNL     1      44.115   7.707  20.023  0.00  0.00    +0.000 OA
ATOM     31  O   UNL     1      43.364   6.544  21.761  0.00  0.00    +0.000 OA
ENDBRANCH  26  29
ENDBRANCH   4  23
TORSDOF 7
ENDMDL
MODEL 4
REMARK VINA RESULT:      -7.9      2.036      9.479
REMARK  Name = 
REMARK  7 active torsions:
REMARK  status: ('A' for Active; 'I' for Inactive)
REMARK    1  A    between atoms: C_2  and  C_3
REMARK    2  A    between atoms: C_3  and  C_4
REMARK    3  A    between atoms: C_4  and  O_5
REMARK    4  A    between atoms: O_5  and  C_6
REMARK    5  A    between atoms: C_9  and  N_10
REMARK    6  A    between atoms: C_13  and  C_14
REMARK    7  A    between atoms: C_17  and  N_18
REMARK                            x       y       z     vdW  Elec       q    Type
REMARK                         _______ _______ _______ _____ _____    ______ ____
ROOT
ATOM      1  N   UNL     1      38.575   4.873  17.082  0.00  0.00    +0.000 NA
ATOM      2  C   UNL     1      37.770   4.192  16.407  0.00  0.00    +0.000 A 
ATOM      3  N   UNL     1      37.212   3.042  16.244  0.00  0.00    +0.000 NA
ATOM      4  C   UNL     1      36.319   2.532  15.411  0.00  0.00    +0.000 A 
ATOM      5  N   UNL     1      35.868   3.331  14.535  0.00  0.00    +0.000 NA
ATOM      6  C   UNL     1      36.254   4.657  14.411  0.00  0.00    +0.000 A 
ATOM      7  C   UNL     1      35.747   5.478  13.526  0.00  0.00    +0.000 A 
ATOM      8  C   UNL     1      36.078   6.860  13.386  0.00  0.00    +0.000 A 
ATOM      9  C   UNL     1      37.064   7.312  14.346  0.00  0.00    +0.000 A 
ATOM     10  C   UNL     1      37.529   6.410  15.213  0.00  0.00    +0.000 A 
ATOM     11  C   UNL     1      37.174   5.095  15.305  0.00  0.00    +0.000 A 
ENDROOT
BRANCH   1  15
ATOM     12  C   UNL     1      41.616   6.708  19.158  0.00  0.00    +0.000 A 
ATOM     13  C   UNL     1      40.467   6.438  19.895  0.00  0.00    +0.000 A 
ATOM     14  C   UNL     1      39.377   5.861  19.092  0.00  0.00    +0.000 A 
ATOM     15  C   UNL     1      39.472   5.628  17.835  0.00  0.00    +0.000 A 
ATOM     16  C   UNL     1      40.633   5.898  17.038  0.00  0.00    +0.000 A 
ATOM     17  C   UNL     1      41.681   6.451  17.814  0.00  0.00    +0.000 A 
BRANCH  12  18
ATOM     18  O   UNL     1      42.798   7.264  19.637  0.00  0.00    +0.000 OA
BRANCH  18  19
ATOM     19  C   UNL     1      42.875   7.074  21.126  0.00  0.00    +0.000 C 
BRANCH  19  20
ATOM     20  C   UNL     1      43.637   5.692  21.339  0.00  0.00    +0.000 C 
BRANCH  20  22
ATOM     21  C   UNL     1      44.090   6.468  23.644  0.00  0.00    +0.000 C 
ATOM     22  C   UNL     1      44.643   5.839  22.431  0.00  0.00    +0.000 C 
ENDBRANCH  20  22
ENDBRANCH  19  20
ENDBRANCH  18  19
ENDBRANCH  12  18
ENDBRANCH   1  15
BRANCH   4  23
ATOM     23  C   UNL     1      35.919   1.107  15.694  0.00  0.00    +0.000 A 
ATOM     24  C   UNL     1      35.125   0.739  16.679  0.00  0.00    +0.000 A 
ATOM     25  C   UNL     1      34.847  -0.673  16.967  0.00  0.00    +0.000 A 
ATOM     26  C   UNL     1      35.427  -1.636  16.182  0.00  0.00    +0.000 A 
ATOM     27  C   UNL     1      36.297  -1.220  15.094  0.00  0.00    +0.000 A 
ATOM     28  C   UNL     1      36.467   0.082  14.947  0.00  0.00    +0.000 A 
BRANCH  26  29
ATOM     29  N   UNL     1      35.220  -3.031  16.270  0.00  0.00    +0.000 N 
ATOM     30  O   UNL     1      36.048  -3.778  16.852  0.00  0.00    +0.000 OA
ATOM     31  O   UNL     1      34.143  -3.616  15.716  0.00  0.00    +0.000 OA
ENDBRANCH  26  29
ENDBRANCH   4  23
TORSDOF 7
ENDMDL
MODEL 5
REMARK VINA RESULT:      -7.8      2.030      9.478
REMARK  Name = 
REMARK  7 active torsions:
REMARK  status: ('A' for Active; 'I' for Inactive)
REMARK    1  A    between atoms: C_2  and  C_3
REMARK    2  A    between atoms: C_3  and  C_4
REMARK    3  A    between atoms: C_4  and  O_5
REMARK    4  A    between atoms: O_5  and  C_6
REMARK    5  A    between atoms: C_9  and  N_10
REMARK    6  A    between atoms: C_13  and  C_14
REMARK    7  A    between atoms: C_17  and  N_18
REMARK                            x       y       z     vdW  Elec       q    Type
REMARK                         _______ _______ _______ _____ _____    ______ ____
ROOT
ATOM      1  N   UNL     1      38.577   4.859  17.094  0.00  0.00    +0.000 NA
ATOM      2  C   UNL     1      37.755   4.187  16.429  0.00  0.00    +0.000 A 
ATOM      3  N   UNL     1      37.191   3.039  16.265  0.00  0.00    +0.000 NA
ATOM      4  C   UNL     1      36.278   2.541  15.447  0.00  0.00    +0.000 A 
ATOM      5  N   UNL     1      35.809   3.351  14.590  0.00  0.00    +0.000 NA
ATOM      6  C   UNL     1      36.195   4.678  14.472  0.00  0.00    +0.000 A 
ATOM      7  C   UNL     1      35.671   5.510  13.609  0.00  0.00    +0.000 A 
ATOM      8  C   UNL     1      36.001   6.892  13.478  0.00  0.00    +0.000 A 
ATOM      9  C   UNL     1      37.010   7.332  14.420  0.00  0.00    +0.000 A 
ATOM     10  C   UNL     1      37.491   6.418  15.266  0.00  0.00    +0.000 A 
ATOM     11  C   UNL     1      37.136   5.103  15.351  0.00  0.00    +0.000 A 
ENDROOT
BRANCH   1  15
ATOM     12  C   UNL     1      41.672   6.676  19.102  0.00  0.00    +0.000 A 
ATOM     13  C   UNL     1      40.563   6.355  19.878  0.00  0.00    +0.000 A 
ATOM     14  C   UNL     1      39.449   5.786  19.103  0.00  0.00    +0.000 A 
ATOM     15  C   UNL     1      39.492   5.603  17.834  0.00  0.00    +0.000 A 
ATOM     16  C   UNL     1      40.610   5.927  16.998  0.00  0.00    +0.000 A 
ATOM     17  C   UNL     1      41.681   6.472  17.748  0.00  0.00    +0.000 A 
BRANCH  12  18
ATOM     18  O   UNL     1      42.863   7.238  19.550  0.00  0.00    +0.000 OA
BRANCH  18  19
ATOM     19  C   UNL     1      42.571   8.247  20.624  0.00  0.00    +0.000 C 
BRANCH  19  20
ATOM     20  C   UNL     1      42.103   9.561  19.857  0.00  0.00    +0.000 C 
BRANCH  20  22
ATOM     21  C   UNL     1      39.777   9.884  20.636  0.00  0.00    +0.000 C 
ATOM     22  C   UNL     1      41.174  10.344  20.725  0.00  0.00    +0.000 C 
ENDBRANCH  20  22
ENDBRANCH  19  20
ENDBRANCH  18  19
ENDBRANCH  12  18
ENDBRANCH   1  15
BRANCH   4  23
ATOM     23  C   UNL     1      35.882   1.114  15.722  0.00  0.00    +0.000 A 
ATOM     24  C   UNL     1      35.083   0.739  16.701  0.00  0.00    +0.000 A 
ATOM     25  C   UNL     1      34.809  -0.675  16.983  0.00  0.00    +0.000 A 
ATOM     26  C   UNL     1      35.396  -1.633  16.197  0.00  0.00    +0.000 A 
ATOM     27  C   UNL     1      36.271  -1.209  15.115  0.00  0.00    +0.000 A 
ATOM     28  C   UNL     1      36.437   0.093  14.974  0.00  0.00    +0.000 A 
BRANCH  26  29
ATOM     29  N   UNL     1      35.194  -3.029  16.279  0.00  0.00    +0.000 N 
ATOM     30  O   UNL     1      36.041  -3.780  16.826  0.00  0.00    +0.000 OA
ATOM     31  O   UNL     1      34.100  -3.611  15.755  0.00  0.00    +0.000 OA
ENDBRANCH  26  29
ENDBRANCH   4  23
TORSDOF 7
ENDMDL
MODEL 6
REMARK VINA RESULT:      -7.8     20.256     26.229
REMARK  Name = 
REMARK  7 active torsions:
REMARK  status: ('A' for Active; 'I' for Inactive)
REMARK    1  A    between atoms: C_2  and  C_3
REMARK    2  A    between atoms: C_3  and  C_4
REMARK    3  A    between atoms: C_4  and  O_5
REMARK    4  A    between atoms: O_5  and  C_6
REMARK    5  A    between atoms: C_9  and  N_10
REMARK    6  A    between atoms: C_13  and  C_14
REMARK    7  A    between atoms: C_17  and  N_18
REMARK                            x       y       z     vdW  Elec       q    Type
REMARK                         _______ _______ _______ _____ _____    ______ ____
ROOT
ATOM      1  N   UNL     1      15.596   0.096  27.552  0.00  0.00    +0.000 NA
ATOM      2  C   UNL     1      14.779   0.054  28.499  0.00  0.00    +0.000 A 
ATOM      3  N   UNL     1      14.617   0.061  29.778  0.00  0.00    +0.000 NA
ATOM      4  C   UNL     1      13.583   0.018  30.602  0.00  0.00    +0.000 A 
ATOM      5  N   UNL     1      12.443  -0.047  30.049  0.00  0.00    +0.000 NA
ATOM      6  C   UNL     1      12.238  -0.079  28.678  0.00  0.00    +0.000 A 
ATOM      7  C   UNL     1      11.053  -0.105  28.124  0.00  0.00    +0.000 A 
ATOM      8  C   UNL     1      10.788  -0.095  26.721  0.00  0.00    +0.000 A 
ATOM      9  C   UNL     1      11.989  -0.049  25.912  0.00  0.00    +0.000 A 
ATOM     10  C   UNL     1      13.157  -0.024  26.558  0.00  0.00    +0.000 A 
ATOM     11  C   UNL     1      13.354  -0.033  27.909  0.00  0.00    +0.000 A 
ENDROOT
BRANCH   1  15
ATOM     12  C   UNL     1      18.582  -0.170  24.735  0.00  0.00    +0.000 A 
ATOM     13  C   UNL     1      18.326   1.110  25.216  0.00  0.00    +0.000 A 
ATOM     14  C   UNL     1      17.194   1.169  26.155  0.00  0.00    +0.000 A 
ATOM     15  C   UNL     1      16.508   0.143  26.500  0.00  0.00    +0.000 A 
ATOM     16  C   UNL     1      16.734  -1.190  26.024  0.00  0.00    +0.000 A 
ATOM     17  C   UNL     1      17.825  -1.244  25.122  0.00  0.00    +0.000 A 
BRANCH  12  18
ATOM     18  O   UNL     1      19.573  -0.534  23.829  0.00  0.00    +0.000 OA
BRANCH  18  19
ATOM     19  C   UNL     1      20.671   0.492  23.847  0.00  0.00    +0.000 C 
BRANCH  19  20
ATOM     20  C   UNL     1      20.486   1.335  22.509  0.00  0.00    +0.000 C 
BRANCH  20  22
ATOM     21  C   UNL     1      19.443   0.999  20.290  0.00  0.00    +0.000 C 
ATOM     22  C   UNL     1      20.265   0.407  21.360  0.00  0.00    +0.000 C 
ENDBRANCH  20  22
ENDBRANCH  19  20
ENDBRANCH  18  19
ENDBRANCH  12  18
ENDBRANCH   1  15
BRANCH   4  23
ATOM     23  C   UNL     1      13.924   0.141  32.065  0.00  0.00    +0.000 A 
ATOM     24  C   UNL     1      14.415   1.228  32.626  0.00  0.00    +0.000 A 
ATOM     25  C   UNL     1      14.820   1.261  34.036  0.00  0.00    +0.000 A 
ATOM     26  C   UNL     1      14.675   0.127  34.792  0.00  0.00    +0.000 A 
ATOM     27  C   UNL     1      14.127  -1.066  34.167  0.00  0.00    +0.000 A 
ATOM     28  C   UNL     1      13.808  -0.962  32.889  0.00  0.00    +0.000 A 
BRANCH  26  29
ATOM     29  N   UNL     1      14.947  -0.005  36.173  0.00  0.00    +0.000 N 
ATOM     30  O   UNL     1      15.817   0.707  36.737  0.00  0.00    +0.000 OA
ATOM     31  O   UNL     1      14.303  -0.910  36.931  0.00  0.00    +0.000 OA
ENDBRANCH  26  29
ENDBRANCH   4  23
TORSDOF 7
ENDMDL
MODEL 7
REMARK VINA RESULT:      -7.5      2.575      3.140
REMARK  Name = 
REMARK  7 active torsions:
REMARK  status: ('A' for Active; 'I' for Inactive)
REMARK    1  A    between atoms: C_2  and  C_3
REMARK    2  A    between atoms: C_3  and  C_4
REMARK    3  A    between atoms: C_4  and  O_5
REMARK    4  A    between atoms: O_5  and  C_6
REMARK    5  A    between atoms: C_9  and  N_10
REMARK    6  A    between atoms: C_13  and  C_14
REMARK    7  A    between atoms: C_17  and  N_18
REMARK                            x       y       z     vdW  Elec       q    Type
REMARK                         _______ _______ _______ _____ _____    ______ ____
ROOT
ATOM      1  N   UNL     1      36.689   1.674  16.513  0.00  0.00    +0.000 NA
ATOM      2  C   UNL     1      37.177   2.814  16.336  0.00  0.00    +0.000 A 
ATOM      3  N   UNL     1      37.602   3.897  16.891  0.00  0.00    +0.000 NA
ATOM      4  C   UNL     1      38.121   5.038  16.467  0.00  0.00    +0.000 A 
ATOM      5  N   UNL     1      38.256   5.146  15.210  0.00  0.00    +0.000 NA
ATOM      6  C   UNL     1      37.894   4.166  14.297  0.00  0.00    +0.000 A 
ATOM      7  C   UNL     1      38.078   4.278  13.006  0.00  0.00    +0.000 A 
ATOM      8  C   UNL     1      37.766   3.285  12.030  0.00  0.00    +0.000 A 
ATOM      9  C   UNL     1      37.202   2.079  12.602  0.00  0.00    +0.000 A 
ATOM     10  C   UNL     1      37.049   2.048  13.928  0.00  0.00    +0.000 A 
ATOM     11  C   UNL     1      37.369   3.031  14.819  0.00  0.00    +0.000 A 
ENDROOT
BRANCH   1  15
ATOM     12  C   UNL     1      35.115  -2.126  16.531  0.00  0.00    +0.000 A 
ATOM     13  C   UNL     1      34.352  -1.160  17.179  0.00  0.00    +0.000 A 
ATOM     14  C   UNL     1      34.994   0.164  17.222  0.00  0.00    +0.000 A 
ATOM     15  C   UNL     1      36.145   0.408  16.712  0.00  0.00    +0.000 A 
ATOM     16  C   UNL     1      36.965  -0.559  16.044  0.00  0.00    +0.000 A 
ATOM     17  C   UNL     1      36.344  -1.831  16.003  0.00  0.00    +0.000 A 
BRANCH  12  18
ATOM     18  O   UNL     1      34.779  -3.463  16.347  0.00  0.00    +0.000 OA
BRANCH  18  19
ATOM     19  C   UNL     1      34.960  -3.832  14.901  0.00  0.00    +0.000 C 
BRANCH  19  20
ATOM     20  C   UNL     1      33.664  -4.671  14.511  0.00  0.00    +0.000 C 
BRANCH  20  22
ATOM     21  C   UNL     1      33.555  -6.950  15.469  0.00  0.00    +0.000 C 
ATOM     22  C   UNL     1      34.029  -6.110  14.354  0.00  0.00    +0.000 C 
ENDBRANCH  20  22
ENDBRANCH  19  20
ENDBRANCH  18  19
ENDBRANCH  12  18
ENDBRANCH   1  15
BRANCH   4  23
ATOM     23  C   UNL     1      38.549   5.990  17.554  0.00  0.00    +0.000 A 
ATOM     24  C   UNL     1      39.212   5.634  18.636  0.00  0.00    +0.000 A 
ATOM     25  C   UNL     1      39.517   6.588  19.709  0.00  0.00    +0.000 A 
ATOM     26  C   UNL     1      39.106   7.889  19.576  0.00  0.00    +0.000 A 
ATOM     27  C   UNL     1      38.380   8.273  18.375  0.00  0.00    +0.000 A 
ATOM     28  C   UNL     1      38.167   7.316  17.490  0.00  0.00    +0.000 A 
BRANCH  26  29
ATOM     29  N   UNL     1      39.369   8.951  20.470  0.00  0.00    +0.000 N 
ATOM     30  O   UNL     1      40.537   9.382  20.646  0.00  0.00    +0.000 OA
ATOM     31  O   UNL     1      38.385   9.525  21.185  0.00  0.00    +0.000 OA
ENDBRANCH  26  29
ENDBRANCH   4  23
TORSDOF 7
ENDMDL
MODEL 8
REMARK VINA RESULT:      -7.4     21.235     27.414
REMARK  Name = 
REMARK  7 active torsions:
REMARK  status: ('A' for Active; 'I' for Inactive)
REMARK    1  A    between atoms: C_2  and  C_3
REMARK    2  A    between atoms: C_3  and  C_4
REMARK    3  A    between atoms: C_4  and  O_5
REMARK    4  A    between atoms: O_5  and  C_6
REMARK    5  A    between atoms: C_9  and  N_10
REMARK    6  A    between atoms: C_13  and  C_14
REMARK    7  A    between atoms: C_17  and  N_18
REMARK                            x       y       z     vdW  Elec       q    Type
REMARK                         _______ _______ _______ _____ _____    ______ ____
ROOT
ATOM      1  N   UNL     1      14.610   0.113  27.325  0.00  0.00    +0.000 NA
ATOM      2  C   UNL     1      13.463   0.187  27.823  0.00  0.00    +0.000 A 
ATOM      3  N   UNL     1      12.624   0.910  28.481  0.00  0.00    +0.000 NA
ATOM      4  C   UNL     1      11.379   0.766  28.905  0.00  0.00    +0.000 A 
ATOM      5  N   UNL     1      10.827  -0.340  28.622  0.00  0.00    +0.000 NA
ATOM      6  C   UNL     1      11.443  -1.367  27.921  0.00  0.00    +0.000 A 
ATOM      7  C   UNL     1      10.845  -2.486  27.602  0.00  0.00    +0.000 A 
ATOM      8  C   UNL     1      11.419  -3.552  26.846  0.00  0.00    +0.000 A 
ATOM      9  C   UNL     1      12.784  -3.291  26.434  0.00  0.00    +0.000 A 
ATOM     10  C   UNL     1      13.318  -2.124  26.802  0.00  0.00    +0.000 A 
ATOM     11  C   UNL     1      12.719  -1.134  27.526  0.00  0.00    +0.000 A 
ENDROOT
BRANCH   1  15
ATOM     12  C   UNL     1      18.262   0.391  25.452  0.00  0.00    +0.000 A 
ATOM     13  C   UNL     1      17.551  -0.779  25.205  0.00  0.00    +0.000 A 
ATOM     14  C   UNL     1      16.293  -0.872  25.962  0.00  0.00    +0.000 A 
ATOM     15  C   UNL     1      15.887   0.035  26.773  0.00  0.00    +0.000 A 
ATOM     16  C   UNL     1      16.591   1.249  27.061  0.00  0.00    +0.000 A 
ATOM     17  C   UNL     1      17.801   1.337  26.330  0.00  0.00    +0.000 A 
BRANCH  12  18
ATOM     18  O   UNL     1      19.486   0.752  24.897  0.00  0.00    +0.000 OA
BRANCH  18  19
ATOM     19  C   UNL     1      19.778  -0.125  23.712  0.00  0.00    +0.000 C 
BRANCH  19  20
ATOM     20  C   UNL     1      20.794   0.705  22.810  0.00  0.00    +0.000 C 
BRANCH  20  22
ATOM     21  C   UNL     1      21.169  -1.291  21.398  0.00  0.00    +0.000 C 
ATOM     22  C   UNL     1      20.814   0.139  21.429  0.00  0.00    +0.000 C 
ENDBRANCH  20  22
ENDBRANCH  19  20
ENDBRANCH  18  19
ENDBRANCH  12  18
ENDBRANCH   1  15
BRANCH   4  23
ATOM     23  C   UNL     1      10.789   1.976  29.582  0.00  0.00    +0.000 A 
ATOM     24  C   UNL     1      10.758   2.157  30.887  0.00  0.00    +0.000 A 
ATOM     25  C   UNL     1      10.084   3.309  31.497  0.00  0.00    +0.000 A 
ATOM     26  C   UNL     1       9.475   4.227  30.682  0.00  0.00    +0.000 A 
ATOM     27  C   UNL     1       9.519   4.023  29.242  0.00  0.00    +0.000 A 
ATOM     28  C   UNL     1      10.153   2.942  28.825  0.00  0.00    +0.000 A 
BRANCH  26  29
ATOM     29  N   UNL     1       8.842   5.424  31.087  0.00  0.00    +0.000 N 
ATOM     30  O   UNL     1       7.594   5.561  31.010  0.00  0.00    +0.000 OA
ATOM     31  O   UNL     1       9.550   6.470  31.548  0.00  0.00    +0.000 OA
ENDBRANCH  26  29
ENDBRANCH   4  23
TORSDOF 7
ENDMDL
MODEL 9
REMARK VINA RESULT:      -7.3     23.906     26.248
REMARK  Name = 
REMARK  7 active torsions:
REMARK  status: ('A' for Active; 'I' for Inactive)
REMARK    1  A    between atoms: C_2  and  C_3
REMARK    2  A    between atoms: C_3  and  C_4
REMARK    3  A    between atoms: C_4  and  O_5
REMARK    4  A    between atoms: O_5  and  C_6
REMARK    5  A    between atoms: C_9  and  N_10
REMARK    6  A    between atoms: C_13  and  C_14
REMARK    7  A    between atoms: C_17  and  N_18
REMARK                            x       y       z     vdW  Elec       q    Type
REMARK                         _______ _______ _______ _____ _____    ______ ____
ROOT
ATOM      1  N   UNL     1      16.364  -2.222   5.335  0.00  0.00    +0.000 NA
ATOM      2  C   UNL     1      16.007  -3.149   6.099  0.00  0.00    +0.000 A 
ATOM      3  N   UNL     1      16.195  -4.370   6.464  0.00  0.00    +0.000 NA
ATOM      4  C   UNL     1      15.667  -5.181   7.367  0.00  0.00    +0.000 A 
ATOM      5  N   UNL     1      14.739  -4.683   8.075  0.00  0.00    +0.000 NA
ATOM      6  C   UNL     1      14.270  -3.384   7.950  0.00  0.00    +0.000 A 
ATOM      7  C   UNL     1      13.340  -2.874   8.717  0.00  0.00    +0.000 A 
ATOM      8  C   UNL     1      12.854  -1.533   8.659  0.00  0.00    +0.000 A 
ATOM      9  C   UNL     1      13.499  -0.735   7.637  0.00  0.00    +0.000 A 
ATOM     10  C   UNL     1      14.438  -1.333   6.899  0.00  0.00    +0.000 A 
ATOM     11  C   UNL     1      14.868  -2.624   7.000  0.00  0.00    +0.000 A 
ENDROOT
BRANCH   1  15
ATOM     12  C   UNL     1      17.400   1.170   3.251  0.00  0.00    +0.000 A 
ATOM     13  C   UNL     1      16.507   0.320   2.606  0.00  0.00    +0.000 A 
ATOM     14  C   UNL     1      16.233  -0.919   3.350  0.00  0.00    +0.000 A 
ATOM     15  C   UNL     1      16.763  -1.194   4.484  0.00  0.00    +0.000 A 
ATOM     16  C   UNL     1      17.692  -0.352   5.179  0.00  0.00    +0.000 A 
ATOM     17  C   UNL     1      17.952   0.841   4.461  0.00  0.00    +0.000 A 
BRANCH  12  18
ATOM     18  O   UNL     1      17.858   2.399   2.790  0.00  0.00    +0.000 OA
BRANCH  18  19
ATOM     19  C   UNL     1      18.368   2.250   1.384  0.00  0.00    +0.000 C 
BRANCH  19  20
ATOM     20  C   UNL     1      19.905   1.862   1.529  0.00  0.00    +0.000 C 
BRANCH  20  22
ATOM     21  C   UNL     1      20.476  -0.510   1.939  0.00  0.00    +0.000 C 
ATOM     22  C   UNL     1      20.139   0.513   0.933  0.00  0.00    +0.000 C 
ENDBRANCH  20  22
ENDBRANCH  19  20
ENDBRANCH  18  19
ENDBRANCH  12  18
ENDBRANCH   1  15
BRANCH   4  23
ATOM     23  C   UNL     1      16.312  -6.539   7.464  0.00  0.00    +0.000 A 
ATOM     24  C   UNL     1      17.305  -6.834   8.278  0.00  0.00    +0.000 A 
ATOM     25  C   UNL     1      17.961  -8.147   8.262  0.00  0.00    +0.000 A 
ATOM     26  C   UNL     1      17.519  -9.096   7.377  0.00  0.00    +0.000 A 
ATOM     27  C   UNL     1      16.418  -8.764   6.486  0.00  0.00    +0.000 A 
ATOM     28  C   UNL     1      15.923  -7.545   6.600  0.00  0.00    +0.000 A 
BRANCH  26  29
ATOM     29  N   UNL     1      17.983 -10.427   7.269  0.00  0.00    +0.000 N 
ATOM     30  O   UNL     1      17.977 -11.202   8.259  0.00  0.00    +0.000 OA
ATOM     31  O   UNL     1      18.468 -10.909   6.111  0.00  0.00    +0.000 OA
ENDBRANCH  26  29
ENDBRANCH   4  23
TORSDOF 7
ENDMDL
MODEL 10
REMARK VINA RESULT:      -7.2     20.336     26.169
REMARK  Name = 
REMARK  7 active torsions:
REMARK  status: ('A' for Active; 'I' for Inactive)
REMARK    1  A    between atoms: C_2  and  C_3
REMARK    2  A    between atoms: C_3  and  C_4
REMARK    3  A    between atoms: C_4  and  O_5
REMARK    4  A    between atoms: O_5  and  C_6
REMARK    5  A    between atoms: C_9  and  N_10
REMARK    6  A    between atoms: C_13  and  C_14
REMARK    7  A    between atoms: C_17  and  N_18
REMARK                            x       y       z     vdW  Elec       q    Type
REMARK                         _______ _______ _______ _____ _____    ______ ____
ROOT
ATOM      1  N   UNL     1      12.182  -0.971  25.866  0.00  0.00    +0.000 NA
ATOM      2  C   UNL     1      13.289  -0.663  26.362  0.00  0.00    +0.000 A 
ATOM      3  N   UNL     1      14.550  -0.497  26.152  0.00  0.00    +0.000 NA
ATOM      4  C   UNL     1      15.591  -0.128  26.881  0.00  0.00    +0.000 A 
ATOM      5  N   UNL     1      15.343   0.138  28.097  0.00  0.00    +0.000 NA
ATOM      6  C   UNL     1      14.085   0.060  28.675  0.00  0.00    +0.000 A 
ATOM      7  C   UNL     1      13.840   0.377  29.921  0.00  0.00    +0.000 A 
ATOM      8  C   UNL     1      12.559   0.356  30.550  0.00  0.00    +0.000 A 
ATOM      9  C   UNL     1      11.492  -0.062  29.663  0.00  0.00    +0.000 A 
ATOM     10  C   UNL     1      11.829  -0.368  28.408  0.00  0.00    +0.000 A 
ATOM     11  C   UNL     1      13.077  -0.327  27.855  0.00  0.00    +0.000 A 
ENDROOT
BRANCH   1  15
ATOM     12  C   UNL     1       8.833  -2.037  23.728  0.00  0.00    +0.000 A 
ATOM     13  C   UNL     1       8.727  -0.856  24.456  0.00  0.00    +0.000 A 
ATOM     14  C   UNL     1       9.916  -0.560  25.271  0.00  0.00    +0.000 A 
ATOM     15  C   UNL     1      10.951  -1.315  25.311  0.00  0.00    +0.000 A 
ATOM     16  C   UNL     1      11.098  -2.542  24.584  0.00  0.00    +0.000 A 
ATOM     17  C   UNL     1       9.953  -2.822  23.798  0.00  0.00    +0.000 A 
BRANCH  12  18
ATOM     18  O   UNL     1       7.871  -2.581  22.883  0.00  0.00    +0.000 OA
BRANCH  18  19
ATOM     19  C   UNL     1       8.093  -2.083  21.483  0.00  0.00    +0.000 C 
BRANCH  19  20
ATOM     20  C   UNL     1       8.057  -3.379  20.560  0.00  0.00    +0.000 C 
BRANCH  20  22
ATOM     21  C   UNL     1       9.869  -5.047  20.801  0.00  0.00    +0.000 C 
ATOM     22  C   UNL     1       9.450  -3.771  20.193  0.00  0.00    +0.000 C 
ENDBRANCH  20  22
ENDBRANCH  19  20
ENDBRANCH  18  19
ENDBRANCH  12  18
ENDBRANCH   1  15
BRANCH   4  23
ATOM     23  C   UNL     1      16.889  -0.001  26.127  0.00  0.00    +0.000 A 
ATOM     24  C   UNL     1      17.436   1.145  25.774  0.00  0.00    +0.000 A 
ATOM     25  C   UNL     1      18.652   1.208  24.955  0.00  0.00    +0.000 A 
ATOM     26  C   UNL     1      19.239   0.036  24.552  0.00  0.00    +0.000 A 
ATOM     27  C   UNL     1      18.632  -1.224  24.951  0.00  0.00    +0.000 A 
ATOM     28  C   UNL     1      17.536  -1.138  25.683  0.00  0.00    +0.000 A 
BRANCH  26  29
ATOM     29  N   UNL     1      20.442  -0.095  23.822  0.00  0.00    +0.000 N 
ATOM     30  O   UNL     1      21.450   0.607  24.094  0.00  0.00    +0.000 OA
ATOM     31  O   UNL     1      20.550  -0.957  22.796  0.00  0.00    +0.000 OA
ENDBRANCH  26  29
ENDBRANCH   4  23
TORSDOF 7
ENDMDL
