MODEL 1
REMARK VINA RESULT:      -8.2      0.000      0.000
REMARK  Name = 
REMARK  6 active torsions:
REMARK  status: ('A' for Active; 'I' for Inactive)
REMARK    1  A    between atoms: C_5  and  S_6
REMARK    2  A    between atoms: S_6  and  C_7
REMARK    3  A    between atoms: C_8  and  N_9
REMARK    4  A    between atoms: N_9  and  C_10
REMARK    5  A    between atoms: N_20  and  C_21
REMARK    6  A    between atoms: C_21  and  C_22
REMARK                            x       y       z     vdW  Elec       q    Type
REMARK                         _______ _______ _______ _____ _____    ______ ____
ROOT
ATOM      1  C   UNL     1      38.074   1.648  14.433  0.00  0.00    +0.000 C 
ATOM      2  C   UNL     1      37.090   1.541  15.344  0.00  0.00    +0.000 C 
ATOM      3  C   UNL     1      36.842   2.858  15.892  0.00  0.00    +0.000 C 
ATOM      4  O   UNL     1      35.998   3.185  16.771  0.00  0.00    +0.000 OA
ATOM      5  N   UNL     1      37.711   3.799  15.285  0.00  0.00    +0.000 N 
ATOM      6  C   UNL     1      38.499   3.032  14.353  0.00  0.00    +0.000 C 
ATOM      7  O   UNL     1      39.382   3.591  13.643  0.00  0.00    +0.000 OA
ENDROOT
BRANCH   1   8
ATOM      8  S   UNL     1      38.682   0.276  13.532  0.00  0.00    +0.000 S 
BRANCH   8  13
ATOM      9  C   UNL     1      44.222  -1.799  14.789  0.00  0.00    +0.000 C 
ATOM     10  C   UNL     1      42.894  -1.225  14.460  0.00  0.00    +0.000 A 
ATOM     11  C   UNL     1      41.771  -1.984  14.636  0.00  0.00    +0.000 A 
ATOM     12  C   UNL     1      40.528  -1.514  14.353  0.00  0.00    +0.000 A 
ATOM     13  C   UNL     1      40.328  -0.215  13.859  0.00  0.00    +0.000 A 
ATOM     14  C   UNL     1      41.465   0.520  13.692  0.00  0.00    +0.000 A 
ATOM     15  C   UNL     1      42.723   0.056  13.975  0.00  0.00    +0.000 A 
ENDBRANCH   8  13
ENDBRANCH   1   8
BRANCH   2  16
ATOM     16  N   UNL     1      36.427   0.355  15.698  0.00  0.00    +0.000 NA
BRANCH  16  17
ATOM     17  C   UNL     1      36.745  -0.417  16.854  0.00  0.00    +0.000 A 
ATOM     18  C   UNL     1      36.199  -0.132  18.088  0.00  0.00    +0.000 A 
ATOM     19  C   UNL     1      36.500  -0.875  19.221  0.00  0.00    +0.000 A 
ATOM     20  C   UNL     1      37.371  -1.940  19.142  0.00  0.00    +0.000 A 
ATOM     21  C   UNL     1      37.681  -2.722  20.369  0.00  0.00    +0.000 C 
ATOM     22  C   UNL     1      37.926  -2.235  17.914  0.00  0.00    +0.000 A 
ATOM     23  C   UNL     1      38.864  -3.387  17.854  0.00  0.00    +0.000 C 
ATOM     24  C   UNL     1      37.616  -1.484  16.793  0.00  0.00    +0.000 A 
ENDBRANCH  16  17
ENDBRANCH   2  16
BRANCH   5  25
ATOM     25  C   UNL     1      37.769   5.216  15.563  0.00  0.00    +0.000 C 
BRANCH  25  26
ATOM     26  C   UNL     1      38.797   5.526  16.592  0.00  0.00    +0.000 A 
ATOM     27  C   UNL     1      38.509   5.392  17.926  0.00  0.00    +0.000 A 
ATOM     28  C   UNL     1      39.490   5.690  18.839  0.00  0.00    +0.000 A 
ATOM     29  C   UNL     1      40.749   6.114  18.468  0.00  0.00    +0.000 A 
ATOM     30  C   UNL     1      41.020   6.242  17.130  0.00  0.00    +0.000 A 
ATOM     31  C   UNL     1      40.044   5.947  16.209  0.00  0.00    +0.000 A 
ENDBRANCH  25  26
ENDBRANCH   5  25
TORSDOF 6
ENDMDL
MODEL 2
REMARK VINA RESULT:      -8.1      3.138      8.288
REMARK  Name = 
REMARK  6 active torsions:
REMARK  status: ('A' for Active; 'I' for Inactive)
REMARK    1  A    between atoms: C_5  and  S_6
REMARK    2  A    between atoms: S_6  and  C_7
REMARK    3  A    between atoms: C_8  and  N_9
REMARK    4  A    between atoms: N_9  and  C_10
REMARK    5  A    between atoms: N_20  and  C_21
REMARK    6  A    between atoms: C_21  and  C_22
REMARK                            x       y       z     vdW  Elec       q    Type
REMARK                         _______ _______ _______ _____ _____    ______ ____
ROOT
ATOM      1  C   UNL     1      37.595   3.740  15.889  0.00  0.00    +0.000 C 
ATOM      2  C   UNL     1      36.998   3.362  14.745  0.00  0.00    +0.000 C 
ATOM      3  C   UNL     1      36.061   2.303  15.058  0.00  0.00    +0.000 C 
ATOM      4  O   UNL     1      35.304   1.679  14.265  0.00  0.00    +0.000 OA
ATOM      5  N   UNL     1      36.095   2.032  16.449  0.00  0.00    +0.000 N 
ATOM      6  C   UNL     1      37.072   2.947  16.984  0.00  0.00    +0.000 C 
ATOM      7  O   UNL     1      37.337   2.956  18.220  0.00  0.00    +0.000 OA
ENDROOT
BRANCH   1   8
ATOM      8  S   UNL     1      38.806   5.004  15.952  0.00  0.00    +0.000 S 
BRANCH   8  13
ATOM      9  C   UNL     1      38.754   8.601  20.815  0.00  0.00    +0.000 C 
ATOM     10  C   UNL     1      38.814   7.672  19.658  0.00  0.00    +0.000 A 
ATOM     11  C   UNL     1      38.101   7.960  18.528  0.00  0.00    +0.000 A 
ATOM     12  C   UNL     1      38.115   7.149  17.438  0.00  0.00    +0.000 A 
ATOM     13  C   UNL     1      38.867   5.963  17.412  0.00  0.00    +0.000 A 
ATOM     14  C   UNL     1      39.569   5.702  18.553  0.00  0.00    +0.000 A 
ATOM     15  C   UNL     1      39.562   6.512  19.657  0.00  0.00    +0.000 A 
ENDBRANCH   8  13
ENDBRANCH   1   8
BRANCH   2  16
ATOM     16  N   UNL     1      37.247   3.904  13.474  0.00  0.00    +0.000 NA
BRANCH  16  17
ATOM     17  C   UNL     1      36.400   4.861  12.841  0.00  0.00    +0.000 A 
ATOM     18  C   UNL     1      36.521   5.160  11.500  0.00  0.00    +0.000 A 
ATOM     19  C   UNL     1      35.704   6.089  10.871  0.00  0.00    +0.000 A 
ATOM     20  C   UNL     1      34.729   6.753  11.585  0.00  0.00    +0.000 A 
ATOM     21  C   UNL     1      33.865   7.746  10.892  0.00  0.00    +0.000 C 
ATOM     22  C   UNL     1      34.598   6.463  12.927  0.00  0.00    +0.000 A 
ATOM     23  C   UNL     1      33.540   7.192  13.677  0.00  0.00    +0.000 C 
ATOM     24  C   UNL     1      35.422   5.534  13.540  0.00  0.00    +0.000 A 
ENDBRANCH  16  17
ENDBRANCH   2  16
BRANCH   5  25
ATOM     25  C   UNL     1      35.304   1.045  17.150  0.00  0.00    +0.000 C 
BRANCH  25  26
ATOM     26  C   UNL     1      36.148  -0.083  17.631  0.00  0.00    +0.000 A 
ATOM     27  C   UNL     1      36.901  -0.813  16.749  0.00  0.00    +0.000 A 
ATOM     28  C   UNL     1      37.663  -1.844  17.240  0.00  0.00    +0.000 A 
ATOM     29  C   UNL     1      37.701  -2.171  18.580  0.00  0.00    +0.000 A 
ATOM     30  C   UNL     1      36.941  -1.430  19.447  0.00  0.00    +0.000 A 
ATOM     31  C   UNL     1      36.175  -0.396  18.965  0.00  0.00    +0.000 A 
ENDBRANCH  25  26
ENDBRANCH   5  25
TORSDOF 6
ENDMDL
MODEL 3
REMARK VINA RESULT:      -8.0      3.216      7.874
REMARK  Name = 
REMARK  6 active torsions:
REMARK  status: ('A' for Active; 'I' for Inactive)
REMARK    1  A    between atoms: C_5  and  S_6
REMARK    2  A    between atoms: S_6  and  C_7
REMARK    3  A    between atoms: C_8  and  N_9
REMARK    4  A    between atoms: N_9  and  C_10
REMARK    5  A    between atoms: N_20  and  C_21
REMARK    6  A    between atoms: C_21  and  C_22
REMARK                            x       y       z     vdW  Elec       q    Type
REMARK                         _______ _______ _______ _____ _____    ______ ____
ROOT
ATOM      1  C   UNL     1      36.352   4.146  14.634  0.00  0.00    +0.000 C 
ATOM      2  C   UNL     1      37.634   3.846  14.904  0.00  0.00    +0.000 C 
ATOM      3  C   UNL     1      37.730   2.412  15.081  0.00  0.00    +0.000 C 
ATOM      4  O   UNL     1      38.759   1.731  15.346  0.00  0.00    +0.000 OA
ATOM      5  N   UNL     1      36.452   1.823  14.909  0.00  0.00    +0.000 N 
ATOM      6  C   UNL     1      35.568   2.926  14.624  0.00  0.00    +0.000 C 
ATOM      7  O   UNL     1      34.338   2.729  14.417  0.00  0.00    +0.000 OA
ENDROOT
BRANCH   1   8
ATOM      8  S   UNL     1      35.803   5.785  14.351  0.00  0.00    +0.000 S 
BRANCH   8  13
ATOM      9  C   UNL     1      34.067   7.425   8.794  0.00  0.00    +0.000 C 
ATOM     10  C   UNL     1      34.555   6.994  10.128  0.00  0.00    +0.000 A 
ATOM     11  C   UNL     1      33.799   7.251  11.237  0.00  0.00    +0.000 A 
ATOM     12  C   UNL     1      34.193   6.881  12.483  0.00  0.00    +0.000 A 
ATOM     13  C   UNL     1      35.406   6.209  12.703  0.00  0.00    +0.000 A 
ATOM     14  C   UNL     1      36.141   5.965  11.579  0.00  0.00    +0.000 A 
ATOM     15  C   UNL     1      35.753   6.334  10.318  0.00  0.00    +0.000 A 
ENDBRANCH   8  13
ENDBRANCH   1   8
BRANCH   2  16
ATOM     16  N   UNL     1      38.689   4.767  14.998  0.00  0.00    +0.000 NA
BRANCH  16  17
ATOM     17  C   UNL     1      39.253   5.203  16.233  0.00  0.00    +0.000 A 
ATOM     18  C   UNL     1      38.593   5.033  17.431  0.00  0.00    +0.000 A 
ATOM     19  C   UNL     1      39.130   5.453  18.640  0.00  0.00    +0.000 A 
ATOM     20  C   UNL     1      40.365   6.064  18.676  0.00  0.00    +0.000 A 
ATOM     21  C   UNL     1      40.922   6.507  19.983  0.00  0.00    +0.000 C 
ATOM     22  C   UNL     1      41.036   6.241  17.485  0.00  0.00    +0.000 A 
ATOM     23  C   UNL     1      42.366   6.904  17.548  0.00  0.00    +0.000 C 
ATOM     24  C   UNL     1      40.486   5.817  16.286  0.00  0.00    +0.000 A 
ENDBRANCH  16  17
ENDBRANCH   2  16
BRANCH   5  25
ATOM     25  C   UNL     1      36.136   0.416  15.006  0.00  0.00    +0.000 C 
BRANCH  25  26
ATOM     26  C   UNL     1      36.152  -0.048  16.419  0.00  0.00    +0.000 A 
ATOM     27  C   UNL     1      35.350   0.548  17.357  0.00  0.00    +0.000 A 
ATOM     28  C   UNL     1      35.400   0.086  18.649  0.00  0.00    +0.000 A 
ATOM     29  C   UNL     1      36.221  -0.952  19.037  0.00  0.00    +0.000 A 
ATOM     30  C   UNL     1      37.016  -1.537  18.086  0.00  0.00    +0.000 A 
ATOM     31  C   UNL     1      36.974  -1.081  16.791  0.00  0.00    +0.000 A 
ENDBRANCH  25  26
ENDBRANCH   5  25
TORSDOF 6
ENDMDL
MODEL 4
REMARK VINA RESULT:      -7.9      2.914      5.244
REMARK  Name = 
REMARK  6 active torsions:
REMARK  status: ('A' for Active; 'I' for Inactive)
REMARK    1  A    between atoms: C_5  and  S_6
REMARK    2  A    between atoms: S_6  and  C_7
REMARK    3  A    between atoms: C_8  and  N_9
REMARK    4  A    between atoms: N_9  and  C_10
REMARK    5  A    between atoms: N_20  and  C_21
REMARK    6  A    between atoms: C_21  and  C_22
REMARK                            x       y       z     vdW  Elec       q    Type
REMARK                         _______ _______ _______ _____ _____    ______ ____
ROOT
ATOM      1  C   UNL     1      36.228   2.618  15.544  0.00  0.00    +0.000 C 
ATOM      2  C   UNL     1      37.378   2.756  14.860  0.00  0.00    +0.000 C 
ATOM      3  C   UNL     1      37.192   3.804  13.878  0.00  0.00    +0.000 C 
ATOM      4  O   UNL     1      38.029   4.238  13.040  0.00  0.00    +0.000 OA
ATOM      5  N   UNL     1      35.875   4.321  13.975  0.00  0.00    +0.000 N 
ATOM      6  C   UNL     1      35.256   3.567  15.036  0.00  0.00    +0.000 C 
ATOM      7  O   UNL     1      34.059   3.793  15.373  0.00  0.00    +0.000 OA
ENDROOT
BRANCH   1   8
ATOM      8  S   UNL     1      36.027   1.449  16.831  0.00  0.00    +0.000 S 
BRANCH   8  13
ATOM      9  C   UNL     1      37.094  -4.409  15.763  0.00  0.00    +0.000 C 
ATOM     10  C   UNL     1      36.797  -2.968  15.959  0.00  0.00    +0.000 A 
ATOM     11  C   UNL     1      37.213  -2.345  17.102  0.00  0.00    +0.000 A 
ATOM     12  C   UNL     1      36.971  -1.029  17.338  0.00  0.00    +0.000 A 
ATOM     13  C   UNL     1      36.276  -0.231  16.415  0.00  0.00    +0.000 A 
ATOM     14  C   UNL     1      35.874  -0.878  15.282  0.00  0.00    +0.000 A 
ATOM     15  C   UNL     1      36.112  -2.204  15.035  0.00  0.00    +0.000 A 
ENDBRANCH   8  13
ENDBRANCH   1   8
BRANCH   2  16
ATOM     16  N   UNL     1      38.548   2.009  15.067  0.00  0.00    +0.000 NA
BRANCH  16  17
ATOM     17  C   UNL     1      38.836   0.785  14.395  0.00  0.00    +0.000 A 
ATOM     18  C   UNL     1      38.413   0.550  13.104  0.00  0.00    +0.000 A 
ATOM     19  C   UNL     1      38.686  -0.638  12.438  0.00  0.00    +0.000 A 
ATOM     20  C   UNL     1      39.403  -1.635  13.064  0.00  0.00    +0.000 A 
ATOM     21  C   UNL     1      39.684  -2.900  12.333  0.00  0.00    +0.000 C 
ATOM     22  C   UNL     1      39.832  -1.413  14.355  0.00  0.00    +0.000 A 
ATOM     23  C   UNL     1      40.604  -2.504  15.010  0.00  0.00    +0.000 C 
ATOM     24  C   UNL     1      39.551  -0.223  15.006  0.00  0.00    +0.000 A 
ENDBRANCH  16  17
ENDBRANCH   2  16
BRANCH   5  25
ATOM     25  C   UNL     1      35.307   5.377  13.168  0.00  0.00    +0.000 C 
BRANCH  25  26
ATOM     26  C   UNL     1      35.132   6.627  13.956  0.00  0.00    +0.000 A 
ATOM     27  C   UNL     1      36.221   7.296  14.451  0.00  0.00    +0.000 A 
ATOM     28  C   UNL     1      36.008   8.445  15.173  0.00  0.00    +0.000 A 
ATOM     29  C   UNL     1      34.748   8.950  15.416  0.00  0.00    +0.000 A 
ATOM     30  C   UNL     1      33.671   8.268  14.913  0.00  0.00    +0.000 A 
ATOM     31  C   UNL     1      33.873   7.117  14.190  0.00  0.00    +0.000 A 
ENDBRANCH  25  26
ENDBRANCH   5  25
TORSDOF 6
ENDMDL
MODEL 5
REMARK VINA RESULT:      -7.8      3.377      5.942
REMARK  Name = 
REMARK  6 active torsions:
REMARK  status: ('A' for Active; 'I' for Inactive)
REMARK    1  A    between atoms: C_5  and  S_6
REMARK    2  A    between atoms: S_6  and  C_7
REMARK    3  A    between atoms: C_8  and  N_9
REMARK    4  A    between atoms: N_9  and  C_10
REMARK    5  A    between atoms: N_20  and  C_21
REMARK    6  A    between atoms: C_21  and  C_22
REMARK                            x       y       z     vdW  Elec       q    Type
REMARK                         _______ _______ _______ _____ _____    ______ ____
ROOT
ATOM      1  C   UNL     1      37.504   4.682  14.863  0.00  0.00    +0.000 C 
ATOM      2  C   UNL     1      36.498   3.950  15.375  0.00  0.00    +0.000 C 
ATOM      3  C   UNL     1      35.265   4.392  14.758  0.00  0.00    +0.000 C 
ATOM      4  O   UNL     1      34.097   3.959  14.964  0.00  0.00    +0.000 OA
ATOM      5  N   UNL     1      35.538   5.432  13.835  0.00  0.00    +0.000 N 
ATOM      6  C   UNL     1      36.966   5.621  13.898  0.00  0.00    +0.000 C 
ATOM      7  O   UNL     1      37.532   6.493  13.180  0.00  0.00    +0.000 OA
ENDROOT
BRANCH   1   8
ATOM      8  S   UNL     1      39.172   4.464  15.345  0.00  0.00    +0.000 S 
BRANCH   8  13
ATOM      9  C   UNL     1      41.226   7.262  20.299  0.00  0.00    +0.000 C 
ATOM     10  C   UNL     1      40.664   6.551  19.123  0.00  0.00    +0.000 A 
ATOM     11  C   UNL     1      41.324   6.601  17.928  0.00  0.00    +0.000 A 
ATOM     12  C   UNL     1      40.859   5.971  16.817  0.00  0.00    +0.000 A 
ATOM     13  C   UNL     1      39.667   5.229  16.837  0.00  0.00    +0.000 A 
ATOM     14  C   UNL     1      39.029   5.196  18.043  0.00  0.00    +0.000 A 
ATOM     15  C   UNL     1      39.489   5.827  19.168  0.00  0.00    +0.000 A 
ENDBRANCH   8  13
ENDBRANCH   1   8
BRANCH   2  16
ATOM     16  N   UNL     1      36.630   2.939  16.339  0.00  0.00    +0.000 NA
BRANCH  16  17
ATOM     17  C   UNL     1      36.376   1.559  16.081  0.00  0.00    +0.000 A 
ATOM     18  C   UNL     1      37.010   0.885  15.058  0.00  0.00    +0.000 A 
ATOM     19  C   UNL     1      36.773  -0.457  14.796  0.00  0.00    +0.000 A 
ATOM     20  C   UNL     1      35.878  -1.167  15.566  0.00  0.00    +0.000 A 
ATOM     21  C   UNL     1      35.638  -2.605  15.267  0.00  0.00    +0.000 C 
ATOM     22  C   UNL     1      35.237  -0.506  16.592  0.00  0.00    +0.000 A 
ATOM     23  C   UNL     1      34.275  -1.293  17.409  0.00  0.00    +0.000 C 
ATOM     24  C   UNL     1      35.484   0.835  16.841  0.00  0.00    +0.000 A 
ENDBRANCH  16  17
ENDBRANCH   2  16
BRANCH   5  25
ATOM     25  C   UNL     1      34.571   6.132  13.020  0.00  0.00    +0.000 C 
BRANCH  25  26
ATOM     26  C   UNL     1      34.365   7.525  13.500  0.00  0.00    +0.000 A 
ATOM     27  C   UNL     1      34.725   8.591  12.717  0.00  0.00    +0.000 A 
ATOM     28  C   UNL     1      34.516   9.858  13.203  0.00  0.00    +0.000 A 
ATOM     29  C   UNL     1      33.958  10.099  14.441  0.00  0.00    +0.000 A 
ATOM     30  C   UNL     1      33.603   9.021  15.210  0.00  0.00    +0.000 A 
ATOM     31  C   UNL     1      33.809   7.749  14.733  0.00  0.00    +0.000 A 
ENDBRANCH  25  26
ENDBRANCH   5  25
TORSDOF 6
ENDMDL
MODEL 6
REMARK VINA RESULT:      -7.8      3.630      7.082
REMARK  Name = 
REMARK  6 active torsions:
REMARK  status: ('A' for Active; 'I' for Inactive)
REMARK    1  A    between atoms: C_5  and  S_6
REMARK    2  A    between atoms: S_6  and  C_7
REMARK    3  A    between atoms: C_8  and  N_9
REMARK    4  A    between atoms: N_9  and  C_10
REMARK    5  A    between atoms: N_20  and  C_21
REMARK    6  A    between atoms: C_21  and  C_22
REMARK                            x       y       z     vdW  Elec       q    Type
REMARK                         _______ _______ _______ _____ _____    ______ ____
ROOT
ATOM      1  C   UNL     1      38.214   4.265  15.650  0.00  0.00    +0.000 C 
ATOM      2  C   UNL     1      38.278   5.395  14.924  0.00  0.00    +0.000 C 
ATOM      3  C   UNL     1      38.502   6.499  15.834  0.00  0.00    +0.000 C 
ATOM      4  O   UNL     1      38.622   7.723  15.552  0.00  0.00    +0.000 OA
ATOM      5  N   UNL     1      38.577   6.014  17.164  0.00  0.00    +0.000 N 
ATOM      6  C   UNL     1      38.395   4.589  17.052  0.00  0.00    +0.000 C 
ATOM      7  O   UNL     1      38.410   3.855  18.081  0.00  0.00    +0.000 OA
ENDROOT
BRANCH   1   8
ATOM      8  S   UNL     1      37.952   2.691  14.930  0.00  0.00    +0.000 S 
BRANCH   8  13
ATOM      9  C   UNL     1      34.033  -1.210  17.382  0.00  0.00    +0.000 C 
ATOM     10  C   UNL     1      34.963  -0.198  16.820  0.00  0.00    +0.000 A 
ATOM     11  C   UNL     1      35.913  -0.586  15.917  0.00  0.00    +0.000 A 
ATOM     12  C   UNL     1      36.791   0.294  15.369  0.00  0.00    +0.000 A 
ATOM     13  C   UNL     1      36.772   1.658  15.702  0.00  0.00    +0.000 A 
ATOM     14  C   UNL     1      35.813   2.017  16.604  0.00  0.00    +0.000 A 
ATOM     15  C   UNL     1      34.923   1.139  17.163  0.00  0.00    +0.000 A 
ENDBRANCH   8  13
ENDBRANCH   1   8
BRANCH   2  16
ATOM     16  N   UNL     1      38.148   5.480  13.529  0.00  0.00    +0.000 NA
BRANCH  16  17
ATOM     17  C   UNL     1      36.963   5.922  12.869  0.00  0.00    +0.000 A 
ATOM     18  C   UNL     1      36.891   6.015  11.495  0.00  0.00    +0.000 A 
ATOM     19  C   UNL     1      35.745   6.443  10.840  0.00  0.00    +0.000 A 
ATOM     20  C   UNL     1      34.624   6.795  11.560  0.00  0.00    +0.000 A 
ATOM     21  C   UNL     1      33.406   7.252  10.838  0.00  0.00    +0.000 C 
ATOM     22  C   UNL     1      34.682   6.707  12.935  0.00  0.00    +0.000 A 
ATOM     23  C   UNL     1      33.461   7.093  13.692  0.00  0.00    +0.000 C 
ATOM     24  C   UNL     1      35.834   6.278  13.574  0.00  0.00    +0.000 A 
ENDBRANCH  16  17
ENDBRANCH   2  16
BRANCH   5  25
ATOM     25  C   UNL     1      38.793   6.806  18.354  0.00  0.00    +0.000 C 
BRANCH  25  26
ATOM     26  C   UNL     1      40.206   6.721  18.813  0.00  0.00    +0.000 A 
ATOM     27  C   UNL     1      41.237   6.855  17.920  0.00  0.00    +0.000 A 
ATOM     28  C   UNL     1      42.524   6.769  18.391  0.00  0.00    +0.000 A 
ATOM     29  C   UNL     1      42.818   6.555  19.722  0.00  0.00    +0.000 A 
ATOM     30  C   UNL     1      41.774   6.423  20.601  0.00  0.00    +0.000 A 
ATOM     31  C   UNL     1      40.483   6.507  20.139  0.00  0.00    +0.000 A 
ENDBRANCH  25  26
ENDBRANCH   5  25
TORSDOF 6
ENDMDL
MODEL 7
REMARK VINA RESULT:      -7.7      3.519      8.319
REMARK  Name = 
REMARK  6 active torsions:
REMARK  status: ('A' for Active; 'I' for Inactive)
REMARK    1  A    between atoms: C_5  and  S_6
REMARK    2  A    between atoms: S_6  and  C_7
REMARK    3  A    between atoms: C_8  and  N_9
REMARK    4  A    between atoms: N_9  and  C_10
REMARK    5  A    between atoms: N_20  and  C_21
REMARK    6  A    between atoms: C_21  and  C_22
REMARK                            x       y       z     vdW  Elec       q    Type
REMARK                         _______ _______ _______ _____ _____    ______ ____
ROOT
ATOM      1  C   UNL     1      37.378   4.659  15.228  0.00  0.00    +0.000 C 
ATOM      2  C   UNL     1      37.864   4.290  16.427  0.00  0.00    +0.000 C 
ATOM      3  C   UNL     1      36.993   3.269  16.969  0.00  0.00    +0.000 C 
ATOM      4  O   UNL     1      37.101   2.663  18.071  0.00  0.00    +0.000 OA
ATOM      5  N   UNL     1      35.937   3.010  16.059  0.00  0.00    +0.000 N 
ATOM      6  C   UNL     1      36.178   3.894  14.946  0.00  0.00    +0.000 C 
ATOM      7  O   UNL     1      35.399   3.905  13.952  0.00  0.00    +0.000 OA
ENDROOT
BRANCH   1   8
ATOM      8  S   UNL     1      38.140   5.880  14.232  0.00  0.00    +0.000 S 
BRANCH   8  13
ATOM      9  C   UNL     1      36.990  11.570  15.931  0.00  0.00    +0.000 C 
ATOM     10  C   UNL     1      37.346  10.190  15.517  0.00  0.00    +0.000 A 
ATOM     11  C   UNL     1      36.352   9.284  15.273  0.00  0.00    +0.000 A 
ATOM     12  C   UNL     1      36.614   8.007  14.891  0.00  0.00    +0.000 A 
ATOM     13  C   UNL     1      37.930   7.544  14.727  0.00  0.00    +0.000 A 
ATOM     14  C   UNL     1      38.902   8.468  14.977  0.00  0.00    +0.000 A 
ATOM     15  C   UNL     1      38.648   9.758  15.362  0.00  0.00    +0.000 A 
ENDBRANCH   8  13
ENDBRANCH   1   8
BRANCH   2  16
ATOM     16  N   UNL     1      39.016   4.811  17.038  0.00  0.00    +0.000 NA
BRANCH  16  17
ATOM     17  C   UNL     1      38.992   5.831  18.035  0.00  0.00    +0.000 A 
ATOM     18  C   UNL     1      39.917   5.867  19.057  0.00  0.00    +0.000 A 
ATOM     19  C   UNL     1      39.905   6.853  20.033  0.00  0.00    +0.000 A 
ATOM     20  C   UNL     1      38.947   7.843  20.008  0.00  0.00    +0.000 A 
ATOM     21  C   UNL     1      38.952   8.890  21.065  0.00  0.00    +0.000 C 
ATOM     22  C   UNL     1      38.015   7.819  18.992  0.00  0.00    +0.000 A 
ATOM     23  C   UNL     1      36.990   8.897  18.986  0.00  0.00    +0.000 C 
ATOM     24  C   UNL     1      38.040   6.827  18.025  0.00  0.00    +0.000 A 
ENDBRANCH  16  17
ENDBRANCH   2  16
BRANCH   5  25
ATOM     25  C   UNL     1      34.865   2.056  16.238  0.00  0.00    +0.000 C 
BRANCH  25  26
ATOM     26  C   UNL     1      35.339   0.662  16.027  0.00  0.00    +0.000 A 
ATOM     27  C   UNL     1      34.960  -0.339  16.883  0.00  0.00    +0.000 A 
ATOM     28  C   UNL     1      35.423  -1.610  16.648  0.00  0.00    +0.000 A 
ATOM     29  C   UNL     1      36.250  -1.918  15.587  0.00  0.00    +0.000 A 
ATOM     30  C   UNL     1      36.618  -0.905  14.741  0.00  0.00    +0.000 A 
ATOM     31  C   UNL     1      36.161   0.371  14.969  0.00  0.00    +0.000 A 
ENDBRANCH  25  26
ENDBRANCH   5  25
TORSDOF 6
ENDMDL
MODEL 8
REMARK VINA RESULT:      -7.6      3.656      7.140
REMARK  Name = 
REMARK  6 active torsions:
REMARK  status: ('A' for Active; 'I' for Inactive)
REMARK    1  A    between atoms: C_5  and  S_6
REMARK    2  A    between atoms: S_6  and  C_7
REMARK    3  A    between atoms: C_8  and  N_9
REMARK    4  A    between atoms: N_9  and  C_10
REMARK    5  A    between atoms: N_20  and  C_21
REMARK    6  A    between atoms: C_21  and  C_22
REMARK                            x       y       z     vdW  Elec       q    Type
REMARK                         _______ _______ _______ _____ _____    ______ ____
ROOT
ATOM      1  C   UNL     1      37.119   4.397  14.799  0.00  0.00    +0.000 C 
ATOM      2  C   UNL     1      37.825   5.537  14.907  0.00  0.00    +0.000 C 
ATOM      3  C   UNL     1      36.921   6.646  14.689  0.00  0.00    +0.000 C 
ATOM      4  O   UNL     1      37.190   7.879  14.705  0.00  0.00    +0.000 OA
ATOM      5  N   UNL     1      35.615   6.156  14.439  0.00  0.00    +0.000 N 
ATOM      6  C   UNL     1      35.735   4.721  14.508  0.00  0.00    +0.000 C 
ATOM      7  O   UNL     1      34.728   3.980  14.328  0.00  0.00    +0.000 OA
ENDROOT
BRANCH   1   8
ATOM      8  S   UNL     1      37.840   2.814  14.995  0.00  0.00    +0.000 S 
BRANCH   8  13
ATOM      9  C   UNL     1      34.137  -1.297  17.438  0.00  0.00    +0.000 C 
ATOM     10  C   UNL     1      35.065  -0.339  16.787  0.00  0.00    +0.000 A 
ATOM     11  C   UNL     1      35.202   0.920  17.302  0.00  0.00    +0.000 A 
ATOM     12  C   UNL     1      36.036   1.841  16.749  0.00  0.00    +0.000 A 
ATOM     13  C   UNL     1      36.806   1.548  15.612  0.00  0.00    +0.000 A 
ATOM     14  C   UNL     1      36.649   0.285  15.120  0.00  0.00    +0.000 A 
ATOM     15  C   UNL     1      35.812  -0.651  15.669  0.00  0.00    +0.000 A 
ENDBRANCH   8  13
ENDBRANCH   1   8
BRANCH   2  16
ATOM     16  N   UNL     1      39.199   5.625  15.183  0.00  0.00    +0.000 NA
BRANCH  16  17
ATOM     17  C   UNL     1      39.734   5.825  16.489  0.00  0.00    +0.000 A 
ATOM     18  C   UNL     1      38.973   5.627  17.622  0.00  0.00    +0.000 A 
ATOM     19  C   UNL     1      39.481   5.818  18.899  0.00  0.00    +0.000 A 
ATOM     20  C   UNL     1      40.788   6.220  19.074  0.00  0.00    +0.000 A 
ATOM     21  C   UNL     1      41.313   6.420  20.452  0.00  0.00    +0.000 C 
ATOM     22  C   UNL     1      41.560   6.423  17.949  0.00  0.00    +0.000 A 
ATOM     23  C   UNL     1      42.967   6.857  18.162  0.00  0.00    +0.000 C 
ATOM     24  C   UNL     1      41.038   6.228  16.681  0.00  0.00    +0.000 A 
ENDBRANCH  16  17
ENDBRANCH   2  16
BRANCH   5  25
ATOM     25  C   UNL     1      34.436   6.950  14.176  0.00  0.00    +0.000 C 
BRANCH  25  26
ATOM     26  C   UNL     1      34.476   7.545  12.813  0.00  0.00    +0.000 A 
ATOM     27  C   UNL     1      34.492   6.741  11.703  0.00  0.00    +0.000 A 
ATOM     28  C   UNL     1      34.529   7.336  10.466  0.00  0.00    +0.000 A 
ATOM     29  C   UNL     1      34.550   8.705  10.298  0.00  0.00    +0.000 A 
ATOM     30  C   UNL     1      34.534   9.494  11.419  0.00  0.00    +0.000 A 
ATOM     31  C   UNL     1      34.497   8.907  12.661  0.00  0.00    +0.000 A 
ENDBRANCH  25  26
ENDBRANCH   5  25
TORSDOF 6
ENDMDL
MODEL 9
REMARK VINA RESULT:      -7.6      2.123      3.340
REMARK  Name = 
REMARK  6 active torsions:
REMARK  status: ('A' for Active; 'I' for Inactive)
REMARK    1  A    between atoms: C_5  and  S_6
REMARK    2  A    between atoms: S_6  and  C_7
REMARK    3  A    between atoms: C_8  and  N_9
REMARK    4  A    between atoms: N_9  and  C_10
REMARK    5  A    between atoms: N_20  and  C_21
REMARK    6  A    between atoms: C_21  and  C_22
REMARK                            x       y       z     vdW  Elec       q    Type
REMARK                         _______ _______ _______ _____ _____    ______ ____
ROOT
ATOM      1  C   UNL     1      37.159   1.563  13.874  0.00  0.00    +0.000 C 
ATOM      2  C   UNL     1      36.238   1.510  14.852  0.00  0.00    +0.000 C 
ATOM      3  C   UNL     1      35.949   2.867  15.268  0.00  0.00    +0.000 C 
ATOM      4  O   UNL     1      35.141   3.248  16.159  0.00  0.00    +0.000 OA
ATOM      5  N   UNL     1      36.728   3.775  14.509  0.00  0.00    +0.000 N 
ATOM      6  C   UNL     1      37.502   2.949  13.618  0.00  0.00    +0.000 C 
ATOM      7  O   UNL     1      38.310   3.468  12.796  0.00  0.00    +0.000 OA
ENDROOT
BRANCH   1   8
ATOM      8  S   UNL     1      37.789   0.131  13.089  0.00  0.00    +0.000 S 
BRANCH   8  13
ATOM      9  C   UNL     1      43.460  -1.281  14.650  0.00  0.00    +0.000 C 
ATOM     10  C   UNL     1      42.048  -1.005  14.284  0.00  0.00    +0.000 A 
ATOM     11  C   UNL     1      41.701   0.238  13.834  0.00  0.00    +0.000 A 
ATOM     12  C   UNL     1      40.426   0.551  13.484  0.00  0.00    +0.000 A 
ATOM     13  C   UNL     1      39.388  -0.391  13.567  0.00  0.00    +0.000 A 
ATOM     14  C   UNL     1      39.762  -1.623  14.019  0.00  0.00    +0.000 A 
ATOM     15  C   UNL     1      41.044  -1.949  14.374  0.00  0.00    +0.000 A 
ENDBRANCH   8  13
ENDBRANCH   1   8
BRANCH   2  16
ATOM     16  N   UNL     1      35.663   0.340  15.373  0.00  0.00    +0.000 NA
BRANCH  16  17
ATOM     17  C   UNL     1      36.136  -0.322  16.544  0.00  0.00    +0.000 A 
ATOM     18  C   UNL     1      35.590  -0.076  17.786  0.00  0.00    +0.000 A 
ATOM     19  C   UNL     1      36.042  -0.714  18.934  0.00  0.00    +0.000 A 
ATOM     20  C   UNL     1      37.070  -1.629  18.861  0.00  0.00    +0.000 A 
ATOM     21  C   UNL     1      37.539  -2.300  20.103  0.00  0.00    +0.000 C 
ATOM     22  C   UNL     1      37.625  -1.883  17.625  0.00  0.00    +0.000 A 
ATOM     23  C   UNL     1      38.734  -2.874  17.571  0.00  0.00    +0.000 C 
ATOM     24  C   UNL     1      37.164  -1.238  16.489  0.00  0.00    +0.000 A 
ENDBRANCH  16  17
ENDBRANCH   2  16
BRANCH   5  25
ATOM     25  C   UNL     1      36.723   5.216  14.627  0.00  0.00    +0.000 C 
BRANCH  25  26
ATOM     26  C   UNL     1      35.714   5.831  13.723  0.00  0.00    +0.000 A 
ATOM     27  C   UNL     1      34.502   6.244  14.212  0.00  0.00    +0.000 A 
ATOM     28  C   UNL     1      33.603   6.805  13.339  0.00  0.00    +0.000 A 
ATOM     29  C   UNL     1      33.872   6.971  11.996  0.00  0.00    +0.000 A 
ATOM     30  C   UNL     1      35.089   6.553  11.525  0.00  0.00    +0.000 A 
ATOM     31  C   UNL     1      35.995   5.989  12.391  0.00  0.00    +0.000 A 
ENDBRANCH  25  26
ENDBRANCH   5  25
TORSDOF 6
ENDMDL
MODEL 10
REMARK VINA RESULT:      -7.6      3.953      7.518
REMARK  Name = 
REMARK  6 active torsions:
REMARK  status: ('A' for Active; 'I' for Inactive)
REMARK    1  A    between atoms: C_5  and  S_6
REMARK    2  A    between atoms: S_6  and  C_7
REMARK    3  A    between atoms: C_8  and  N_9
REMARK    4  A    between atoms: N_9  and  C_10
REMARK    5  A    between atoms: N_20  and  C_21
REMARK    6  A    between atoms: C_21  and  C_22
REMARK                            x       y       z     vdW  Elec       q    Type
REMARK                         _______ _______ _______ _____ _____    ______ ____
ROOT
ATOM      1  C   UNL     1      39.805  -1.820  15.362  0.00  0.00    +0.000 C 
ATOM      2  C   UNL     1      39.019  -0.729  15.339  0.00  0.00    +0.000 C 
ATOM      3  C   UNL     1      37.832  -1.017  16.117  0.00  0.00    +0.000 C 
ATOM      4  O   UNL     1      36.850  -0.257  16.342  0.00  0.00    +0.000 OA
ATOM      5  N   UNL     1      37.906  -2.335  16.631  0.00  0.00    +0.000 N 
ATOM      6  C   UNL     1      39.164  -2.852  16.153  0.00  0.00    +0.000 C 
ATOM      7  O   UNL     1      39.531  -4.026  16.444  0.00  0.00    +0.000 OA
ENDROOT
BRANCH   1   8
ATOM      8  S   UNL     1      41.348  -1.892  14.537  0.00  0.00    +0.000 S 
BRANCH   8  13
ATOM      9  C   UNL     1      40.835  -1.995   8.511  0.00  0.00    +0.000 C 
ATOM     10  C   UNL     1      41.027  -1.935   9.981  0.00  0.00    +0.000 A 
ATOM     11  C   UNL     1      40.072  -2.461  10.806  0.00  0.00    +0.000 A 
ATOM     12  C   UNL     1      40.192  -2.436  12.159  0.00  0.00    +0.000 A 
ATOM     13  C   UNL     1      41.309  -1.863  12.789  0.00  0.00    +0.000 A 
ATOM     14  C   UNL     1      42.245  -1.346  11.942  0.00  0.00    +0.000 A 
ATOM     15  C   UNL     1      42.135  -1.366  10.577  0.00  0.00    +0.000 A 
ENDBRANCH   8  13
ENDBRANCH   1   8
BRANCH   2  16
ATOM     16  N   UNL     1      39.306   0.473  14.673  0.00  0.00    +0.000 NA
BRANCH  16  17
ATOM     17  C   UNL     1      38.993   0.714  13.302  0.00  0.00    +0.000 A 
ATOM     18  C   UNL     1      37.770   0.367  12.767  0.00  0.00    +0.000 A 
ATOM     19  C   UNL     1      37.453   0.596  11.435  0.00  0.00    +0.000 A 
ATOM     20  C   UNL     1      38.370   1.189  10.594  0.00  0.00    +0.000 A 
ATOM     21  C   UNL     1      38.010   1.424   9.170  0.00  0.00    +0.000 C 
ATOM     22  C   UNL     1      39.597   1.540  11.117  0.00  0.00    +0.000 A 
ATOM     23  C   UNL     1      40.571   2.177  10.191  0.00  0.00    +0.000 C 
ATOM     24  C   UNL     1      39.899   1.304  12.448  0.00  0.00    +0.000 A 
ENDBRANCH  16  17
ENDBRANCH   2  16
BRANCH   5  25
ATOM     25  C   UNL     1      36.917  -2.991  17.457  0.00  0.00    +0.000 C 
BRANCH  25  26
ATOM     26  C   UNL     1      35.899  -3.693  16.629  0.00  0.00    +0.000 A 
ATOM     27  C   UNL     1      34.768  -3.039  16.215  0.00  0.00    +0.000 A 
ATOM     28  C   UNL     1      33.857  -3.729  15.453  0.00  0.00    +0.000 A 
ATOM     29  C   UNL     1      34.037  -5.047  15.089  0.00  0.00    +0.000 A 
ATOM     30  C   UNL     1      35.174  -5.685  15.511  0.00  0.00    +0.000 A 
ATOM     31  C   UNL     1      36.091  -5.003  16.275  0.00  0.00    +0.000 A 
ENDBRANCH  25  26
ENDBRANCH   5  25
TORSDOF 6
ENDMDL
