MODEL 1
REMARK VINA RESULT:      -6.5      0.000      0.000
REMARK  Name = 
REMARK  4 active torsions:
REMARK  status: ('A' for Active; 'I' for Inactive)
REMARK    1  A    between atoms: O_2  and  C_3
REMARK    2  A    between atoms: C_3  and  C_5
REMARK    3  A    between atoms: C_12  and  C_13
REMARK    4  A    between atoms: C_14  and  O_15
REMARK                            x       y       z     vdW  Elec       q    Type
REMARK                         _______ _______ _______ _____ _____    ______ ____
ROOT
ATOM      1  C   UNL     1      27.079  24.301  28.891  0.00  0.00    +0.000 C 
ATOM      2  C   UNL     1      26.514  24.492  30.029  0.00  0.00    +0.000 C 
ATOM      3  C   UNL     1      26.425  25.888  30.560  0.00  0.00    +0.000 C 
ATOM      4  N   UNL     1      26.028  23.471  30.874  0.00  0.00    +0.000 NA
ATOM      5  C   UNL     1      26.203  22.135  30.407  0.00  0.00    +0.000 C 
ATOM      6  O   UNL     1      25.756  21.169  31.167  0.00  0.00    +0.000 OA
ATOM      7  N   UNL     1      26.814  21.914  29.217  0.00  0.00    +0.000 NA
ATOM      8  C   UNL     1      27.148  22.910  28.188  0.00  0.00    +0.000 C 
ENDROOT
BRANCH   8   9
ATOM      9  C   UNL     1      28.731  22.829  28.031  0.00  0.00    +0.000 A 
ATOM     10  C   UNL     1      29.562  22.735  29.068  0.00  0.00    +0.000 A 
ATOM     11  C   UNL     1      30.913  22.668  28.874  0.00  0.00    +0.000 A 
ATOM     12  C   UNL     1      31.434  22.696  27.617  0.00  0.00    +0.000 A 
ATOM     13  C   UNL     1      30.594  22.792  26.535  0.00  0.00    +0.000 A 
ATOM     14  C   UNL     1      31.136  22.819  25.273  0.00  0.00    +0.000 A 
ATOM     15  C   UNL     1      30.336  22.913  24.175  0.00  0.00    +0.000 A 
ATOM     16  C   UNL     1      28.970  22.982  24.354  0.00  0.00    +0.000 A 
ATOM     17  C   UNL     1      28.429  22.955  25.623  0.00  0.00    +0.000 A 
ATOM     18  C   UNL     1      29.208  22.860  26.751  0.00  0.00    +0.000 A 
BRANCH  10  19
ATOM     19  O   UNL     1      29.062  22.705  30.336  0.00  0.00    +0.000 OA
ATOM     20  C   UNL     1      29.896  22.401  31.423  0.00  0.00    +0.000 C 
ENDBRANCH  10  19
ENDBRANCH   8   9
BRANCH   1  21
ATOM     21  C   UNL     1      27.619  25.444  28.166  0.00  0.00    +0.000 C 
ATOM     22  O   UNL     1      26.993  25.857  27.168  0.00  0.00    +0.000 OA
BRANCH  21  24
ATOM     23  C   UNL     1      29.836  26.401  27.661  0.00  0.00    +0.000 C 
ATOM     24  O   UNL     1      28.786  26.084  28.530  0.00  0.00    +0.000 OA
ENDBRANCH  21  24
ENDBRANCH   1  21
TORSDOF 4
ENDMDL
MODEL 2
REMARK VINA RESULT:      -6.3      2.947      6.080
REMARK  Name = 
REMARK  4 active torsions:
REMARK  status: ('A' for Active; 'I' for Inactive)
REMARK    1  A    between atoms: O_2  and  C_3
REMARK    2  A    between atoms: C_3  and  C_5
REMARK    3  A    between atoms: C_12  and  C_13
REMARK    4  A    between atoms: C_14  and  O_15
REMARK                            x       y       z     vdW  Elec       q    Type
REMARK                         _______ _______ _______ _____ _____    ______ ____
ROOT
ATOM      1  C   UNL     1      27.976  23.529  25.139  0.00  0.00    +0.000 C 
ATOM      2  C   UNL     1      28.302  23.511  23.896  0.00  0.00    +0.000 C 
ATOM      3  C   UNL     1      29.708  23.853  23.519  0.00  0.00    +0.000 C 
ATOM      4  N   UNL     1      27.411  23.265  22.828  0.00  0.00    +0.000 NA
ATOM      5  C   UNL     1      26.051  23.035  23.188  0.00  0.00    +0.000 C 
ATOM      6  O   UNL     1      25.205  22.798  22.219  0.00  0.00    +0.000 OA
ATOM      7  N   UNL     1      25.685  23.069  24.493  0.00  0.00    +0.000 NA
ATOM      8  C   UNL     1      26.572  23.099  25.666  0.00  0.00    +0.000 C 
ENDROOT
BRANCH   8   9
ATOM      9  C   UNL     1      26.207  24.450  26.427  0.00  0.00    +0.000 A 
ATOM     10  C   UNL     1      25.972  25.600  25.798  0.00  0.00    +0.000 A 
ATOM     11  C   UNL     1      25.663  26.728  26.502  0.00  0.00    +0.000 A 
ATOM     12  C   UNL     1      25.589  26.698  27.860  0.00  0.00    +0.000 A 
ATOM     13  C   UNL     1      25.828  25.523  28.528  0.00  0.00    +0.000 A 
ATOM     14  C   UNL     1      25.749  25.509  29.900  0.00  0.00    +0.000 A 
ATOM     15  C   UNL     1      25.978  24.363  30.597  0.00  0.00    +0.000 A 
ATOM     16  C   UNL     1      26.292  23.214  29.901  0.00  0.00    +0.000 A 
ATOM     17  C   UNL     1      26.371  23.231  28.523  0.00  0.00    +0.000 A 
ATOM     18  C   UNL     1      26.145  24.371  27.790  0.00  0.00    +0.000 A 
BRANCH  10  19
ATOM     19  O   UNL     1      26.040  25.653  24.436  0.00  0.00    +0.000 OA
ATOM     20  C   UNL     1      26.597  26.770  23.795  0.00  0.00    +0.000 C 
ENDBRANCH  10  19
ENDBRANCH   8   9
BRANCH   1  21
ATOM     21  C   UNL     1      28.980  23.889  26.131  0.00  0.00    +0.000 C 
ATOM     22  O   UNL     1      29.467  22.979  26.835  0.00  0.00    +0.000 OA
BRANCH  21  24
ATOM     23  C   UNL     1      29.526  25.817  27.571  0.00  0.00    +0.000 C 
ATOM     24  O   UNL     1      29.414  25.184  26.327  0.00  0.00    +0.000 OA
ENDBRANCH  21  24
ENDBRANCH   1  21
TORSDOF 4
ENDMDL
MODEL 3
REMARK VINA RESULT:      -6.0      3.454      5.765
REMARK  Name = 
REMARK  4 active torsions:
REMARK  status: ('A' for Active; 'I' for Inactive)
REMARK    1  A    between atoms: O_2  and  C_3
REMARK    2  A    between atoms: C_3  and  C_5
REMARK    3  A    between atoms: C_12  and  C_13
REMARK    4  A    between atoms: C_14  and  O_15
REMARK                            x       y       z     vdW  Elec       q    Type
REMARK                         _______ _______ _______ _____ _____    ______ ____
ROOT
ATOM      1  C   UNL     1      28.469  25.082  23.504  0.00  0.00    +0.000 C 
ATOM      2  C   UNL     1      27.861  25.714  22.565  0.00  0.00    +0.000 C 
ATOM      3  C   UNL     1      28.108  27.182  22.414  0.00  0.00    +0.000 C 
ATOM      4  N   UNL     1      26.903  25.149  21.695  0.00  0.00    +0.000 NA
ATOM      5  C   UNL     1      26.599  23.773  21.907  0.00  0.00    +0.000 C 
ATOM      6  O   UNL     1      25.721  23.221  21.111  0.00  0.00    +0.000 OA
ATOM      7  N   UNL     1      27.218  23.094  22.905  0.00  0.00    +0.000 NA
ATOM      8  C   UNL     1      28.370  23.538  23.704  0.00  0.00    +0.000 C 
ENDROOT
BRANCH   8   9
ATOM      9  C   UNL     1      27.850  23.550  25.209  0.00  0.00    +0.000 A 
ATOM     10  C   UNL     1      26.627  23.949  25.555  0.00  0.00    +0.000 A 
ATOM     11  C   UNL     1      26.235  23.939  26.863  0.00  0.00    +0.000 A 
ATOM     12  C   UNL     1      27.087  23.521  27.838  0.00  0.00    +0.000 A 
ATOM     13  C   UNL     1      28.352  23.105  27.503  0.00  0.00    +0.000 A 
ATOM     14  C   UNL     1      29.200  22.685  28.499  0.00  0.00    +0.000 A 
ATOM     15  C   UNL     1      30.461  22.265  28.207  0.00  0.00    +0.000 A 
ATOM     16  C   UNL     1      30.873  22.270  26.890  0.00  0.00    +0.000 A 
ATOM     17  C   UNL     1      30.019  22.692  25.892  0.00  0.00    +0.000 A 
ATOM     18  C   UNL     1      28.740  23.122  26.153  0.00  0.00    +0.000 A 
BRANCH  10  19
ATOM     19  O   UNL     1      25.757  24.373  24.594  0.00  0.00    +0.000 OA
ATOM     20  C   UNL     1      24.942  25.493  24.816  0.00  0.00    +0.000 C 
ENDBRANCH  10  19
ENDBRANCH   8   9
BRANCH   1  21
ATOM     21  C   UNL     1      29.366  25.814  24.388  0.00  0.00    +0.000 C 
ATOM     22  O   UNL     1      30.596  25.692  24.212  0.00  0.00    +0.000 OA
BRANCH  21  24
ATOM     23  C   UNL     1      29.415  26.632  26.715  0.00  0.00    +0.000 C 
ATOM     24  O   UNL     1      28.918  26.630  25.407  0.00  0.00    +0.000 OA
ENDBRANCH  21  24
ENDBRANCH   1  21
TORSDOF 4
ENDMDL
MODEL 4
REMARK VINA RESULT:      -5.7     32.038     33.894
REMARK  Name = 
REMARK  4 active torsions:
REMARK  status: ('A' for Active; 'I' for Inactive)
REMARK    1  A    between atoms: O_2  and  C_3
REMARK    2  A    between atoms: C_3  and  C_5
REMARK    3  A    between atoms: C_12  and  C_13
REMARK    4  A    between atoms: C_14  and  O_15
REMARK                            x       y       z     vdW  Elec       q    Type
REMARK                         _______ _______ _______ _____ _____    ______ ____
ROOT
ATOM      1  C   UNL     1      18.395 -10.178  26.389  0.00  0.00    +0.000 C 
ATOM      2  C   UNL     1      17.251 -10.528  26.856  0.00  0.00    +0.000 C 
ATOM      3  C   UNL     1      16.204 -11.009  25.902  0.00  0.00    +0.000 C 
ATOM      4  N   UNL     1      16.861 -10.424  28.209  0.00  0.00    +0.000 NA
ATOM      5  C   UNL     1      17.830  -9.873  29.099  0.00  0.00    +0.000 C 
ATOM      6  O   UNL     1      17.498  -9.772  30.360  0.00  0.00    +0.000 OA
ATOM      7  N   UNL     1      19.036  -9.481  28.620  0.00  0.00    +0.000 NA
ATOM      8  C   UNL     1      19.597  -9.752  27.288  0.00  0.00    +0.000 C 
ENDROOT
BRANCH   8   9
ATOM      9  C   UNL     1      19.847  -8.316  26.644  0.00  0.00    +0.000 A 
ATOM     10  C   UNL     1      18.995  -7.301  26.776  0.00  0.00    +0.000 A 
ATOM     11  C   UNL     1      19.261  -6.090  26.202  0.00  0.00    +0.000 A 
ATOM     12  C   UNL     1      20.401  -5.900  25.485  0.00  0.00    +0.000 A 
ATOM     13  C   UNL     1      21.291  -6.934  25.337  0.00  0.00    +0.000 A 
ATOM     14  C   UNL     1      22.439  -6.725  24.609  0.00  0.00    +0.000 A 
ATOM     15  C   UNL     1      23.347  -7.726  24.441  0.00  0.00    +0.000 A 
ATOM     16  C   UNL     1      23.093  -8.955  25.014  0.00  0.00    +0.000 A 
ATOM     17  C   UNL     1      21.940  -9.161  25.744  0.00  0.00    +0.000 A 
ATOM     18  C   UNL     1      21.004  -8.173  25.933  0.00  0.00    +0.000 A 
BRANCH  10  19
ATOM     19  O   UNL     1      17.846  -7.469  27.491  0.00  0.00    +0.000 OA
ATOM     20  C   UNL     1      16.625  -6.978  27.002  0.00  0.00    +0.000 C 
ENDBRANCH  10  19
ENDBRANCH   8   9
BRANCH   1  21
ATOM     21  C   UNL     1      18.629 -10.253  24.953  0.00  0.00    +0.000 C 
ATOM     22  O   UNL     1      18.126  -9.371  24.227  0.00  0.00    +0.000 OA
BRANCH  21  24
ATOM     23  C   UNL     1      19.002 -11.976  23.227  0.00  0.00    +0.000 C 
ATOM     24  O   UNL     1      19.379 -11.250  24.363  0.00  0.00    +0.000 OA
ENDBRANCH  21  24
ENDBRANCH   1  21
TORSDOF 4
ENDMDL
MODEL 5
REMARK VINA RESULT:      -5.6      2.709      5.860
REMARK  Name = 
REMARK  4 active torsions:
REMARK  status: ('A' for Active; 'I' for Inactive)
REMARK    1  A    between atoms: O_2  and  C_3
REMARK    2  A    between atoms: C_3  and  C_5
REMARK    3  A    between atoms: C_12  and  C_13
REMARK    4  A    between atoms: C_14  and  O_15
REMARK                            x       y       z     vdW  Elec       q    Type
REMARK                         _______ _______ _______ _____ _____    ______ ____
ROOT
ATOM      1  C   UNL     1      29.951  23.397  25.616  0.00  0.00    +0.000 C 
ATOM      2  C   UNL     1      30.579  23.668  24.529  0.00  0.00    +0.000 C 
ATOM      3  C   UNL     1      32.000  24.128  24.617  0.00  0.00    +0.000 C 
ATOM      4  N   UNL     1      30.012  23.640  23.236  0.00  0.00    +0.000 NA
ATOM      5  C   UNL     1      28.630  23.295  23.167  0.00  0.00    +0.000 C 
ATOM      6  O   UNL     1      28.080  23.254  21.981  0.00  0.00    +0.000 OA
ATOM      7  N   UNL     1      27.946  23.024  24.306  0.00  0.00    +0.000 NA
ATOM      8  C   UNL     1      28.503  22.818  25.652  0.00  0.00    +0.000 C 
ENDROOT
BRANCH   8   9
ATOM      9  C   UNL     1      27.841  23.953  26.552  0.00  0.00    +0.000 A 
ATOM     10  C   UNL     1      27.680  25.209  26.139  0.00  0.00    +0.000 A 
ATOM     11  C   UNL     1      27.105  26.142  26.955  0.00  0.00    +0.000 A 
ATOM     12  C   UNL     1      26.686  25.804  28.205  0.00  0.00    +0.000 A 
ATOM     13  C   UNL     1      26.842  24.515  28.648  0.00  0.00    +0.000 A 
ATOM     14  C   UNL     1      26.413  24.190  29.913  0.00  0.00    +0.000 A 
ATOM     15  C   UNL     1      26.550  22.921  30.389  0.00  0.00    +0.000 A 
ATOM     16  C   UNL     1      27.129  21.968  29.578  0.00  0.00    +0.000 A 
ATOM     17  C   UNL     1      27.559  22.297  28.308  0.00  0.00    +0.000 A 
ATOM     18  C   UNL     1      27.435  23.567  27.798  0.00  0.00    +0.000 A 
BRANCH  10  19
ATOM     19  O   UNL     1      28.094  25.570  24.891  0.00  0.00    +0.000 OA
ATOM     20  C   UNL     1      28.641  26.842  24.662  0.00  0.00    +0.000 C 
ENDBRANCH  10  19
ENDBRANCH   8   9
BRANCH   1  21
ATOM     21  C   UNL     1      30.637  23.557  26.892  0.00  0.00    +0.000 C 
ATOM     22  O   UNL     1      30.807  24.714  27.329  0.00  0.00    +0.000 OA
BRANCH  21  24
ATOM     23  C   UNL     1      31.190  22.458  29.030  0.00  0.00    +0.000 C 
ATOM     24  O   UNL     1      31.106  22.492  27.633  0.00  0.00    +0.000 OA
ENDBRANCH  21  24
ENDBRANCH   1  21
TORSDOF 4
ENDMDL
MODEL 6
REMARK VINA RESULT:      -5.6      3.517      5.709
REMARK  Name = 
REMARK  4 active torsions:
REMARK  status: ('A' for Active; 'I' for Inactive)
REMARK    1  A    between atoms: O_2  and  C_3
REMARK    2  A    between atoms: C_3  and  C_5
REMARK    3  A    between atoms: C_12  and  C_13
REMARK    4  A    between atoms: C_14  and  O_15
REMARK                            x       y       z     vdW  Elec       q    Type
REMARK                         _______ _______ _______ _____ _____    ______ ____
ROOT
ATOM      1  C   UNL     1      29.336  25.975  24.471  0.00  0.00    +0.000 C 
ATOM      2  C   UNL     1      28.621  26.409  23.497  0.00  0.00    +0.000 C 
ATOM      3  C   UNL     1      27.641  27.508  23.761  0.00  0.00    +0.000 C 
ATOM      4  N   UNL     1      28.624  25.877  22.189  0.00  0.00    +0.000 NA
ATOM      5  C   UNL     1      29.489  24.766  21.967  0.00  0.00    +0.000 C 
ATOM      6  O   UNL     1      29.517  24.257  20.763  0.00  0.00    +0.000 OA
ATOM      7  N   UNL     1      30.238  24.282  22.989  0.00  0.00    +0.000 NA
ATOM      8  C   UNL     1      30.457  24.903  24.304  0.00  0.00    +0.000 C 
ENDROOT
BRANCH   8   9
ATOM      9  C   UNL     1      29.901  23.846  25.359  0.00  0.00    +0.000 A 
ATOM     10  C   UNL     1      28.724  23.238  25.229  0.00  0.00    +0.000 A 
ATOM     11  C   UNL     1      28.297  22.339  26.165  0.00  0.00    +0.000 A 
ATOM     12  C   UNL     1      29.068  22.050  27.248  0.00  0.00    +0.000 A 
ATOM     13  C   UNL     1      30.285  22.667  27.401  0.00  0.00    +0.000 A 
ATOM     14  C   UNL     1      31.052  22.363  28.500  0.00  0.00    +0.000 A 
ATOM     15  C   UNL     1      32.265  22.953  28.686  0.00  0.00    +0.000 A 
ATOM     16  C   UNL     1      32.710  23.863  27.750  0.00  0.00    +0.000 A 
ATOM     17  C   UNL     1      31.937  24.166  26.647  0.00  0.00    +0.000 A 
ATOM     18  C   UNL     1      30.710  23.588  26.430  0.00  0.00    +0.000 A 
BRANCH  10  19
ATOM     19  O   UNL     1      27.935  23.513  24.151  0.00  0.00    +0.000 OA
ATOM     20  C   UNL     1      26.540  23.387  24.239  0.00  0.00    +0.000 C 
ENDBRANCH  10  19
ENDBRANCH   8   9
BRANCH   1  21
ATOM     21  C   UNL     1      29.163  26.559  25.795  0.00  0.00    +0.000 C 
ATOM     22  O   UNL     1      30.065  27.303  26.234  0.00  0.00    +0.000 OA
BRANCH  21  24
ATOM     23  C   UNL     1      28.084  25.850  27.897  0.00  0.00    +0.000 C 
ATOM     24  O   UNL     1      28.053  26.327  26.581  0.00  0.00    +0.000 OA
ENDBRANCH  21  24
ENDBRANCH   1  21
TORSDOF 4
ENDMDL
MODEL 7
REMARK VINA RESULT:      -5.5     16.360     18.628
REMARK  Name = 
REMARK  4 active torsions:
REMARK  status: ('A' for Active; 'I' for Inactive)
REMARK    1  A    between atoms: O_2  and  C_3
REMARK    2  A    between atoms: C_3  and  C_5
REMARK    3  A    between atoms: C_12  and  C_13
REMARK    4  A    between atoms: C_14  and  O_15
REMARK                            x       y       z     vdW  Elec       q    Type
REMARK                         _______ _______ _______ _____ _____    ______ ____
ROOT
ATOM      1  C   UNL     1      18.961  10.399  39.429  0.00  0.00    +0.000 C 
ATOM      2  C   UNL     1      17.790   9.872  39.418  0.00  0.00    +0.000 C 
ATOM      3  C   UNL     1      17.520   8.704  40.312  0.00  0.00    +0.000 C 
ATOM      4  N   UNL     1      16.735  10.260  38.563  0.00  0.00    +0.000 NA
ATOM      5  C   UNL     1      17.028  11.311  37.644  0.00  0.00    +0.000 C 
ATOM      6  O   UNL     1      16.066  11.695  36.845  0.00  0.00    +0.000 OA
ATOM      7  N   UNL     1      18.265  11.866  37.630  0.00  0.00    +0.000 NA
ATOM      8  C   UNL     1      19.338  11.677  38.618  0.00  0.00    +0.000 C 
ENDROOT
BRANCH   8   9
ATOM      9  C   UNL     1      20.553  11.057  37.795  0.00  0.00    +0.000 A 
ATOM     10  C   UNL     1      20.417  10.036  36.951  0.00  0.00    +0.000 A 
ATOM     11  C   UNL     1      21.495   9.545  36.272  0.00  0.00    +0.000 A 
ATOM     12  C   UNL     1      22.729  10.090  36.446  0.00  0.00    +0.000 A 
ATOM     13  C   UNL     1      22.891  11.144  37.311  0.00  0.00    +0.000 A 
ATOM     14  C   UNL     1      24.144  11.684  37.474  0.00  0.00    +0.000 A 
ATOM     15  C   UNL     1      24.345  12.730  38.323  0.00  0.00    +0.000 A 
ATOM     16  C   UNL     1      23.266  13.237  39.017  0.00  0.00    +0.000 A 
ATOM     17  C   UNL     1      22.009  12.692  38.850  0.00  0.00    +0.000 A 
ATOM     18  C   UNL     1      21.773  11.637  38.002  0.00  0.00    +0.000 A 
BRANCH  10  19
ATOM     19  O   UNL     1      19.188   9.473  36.763  0.00  0.00    +0.000 OA
ATOM     20  C   UNL     1      18.671   9.311  35.468  0.00  0.00    +0.000 C 
ENDBRANCH  10  19
ENDBRANCH   8   9
BRANCH   1  21
ATOM     21  C   UNL     1      19.984   9.837  40.301  0.00  0.00    +0.000 C 
ATOM     22  O   UNL     1      20.263  10.448  41.353  0.00  0.00    +0.000 OA
BRANCH  21  24
ATOM     23  C   UNL     1      22.038   8.481  40.128  0.00  0.00    +0.000 C 
ATOM     24  O   UNL     1      20.655   8.665  40.016  0.00  0.00    +0.000 OA
ENDBRANCH  21  24
ENDBRANCH   1  21
TORSDOF 4
ENDMDL
MODEL 8
REMARK VINA RESULT:      -5.4     32.455     34.423
REMARK  Name = 
REMARK  4 active torsions:
REMARK  status: ('A' for Active; 'I' for Inactive)
REMARK    1  A    between atoms: O_2  and  C_3
REMARK    2  A    between atoms: C_3  and  C_5
REMARK    3  A    between atoms: C_12  and  C_13
REMARK    4  A    between atoms: C_14  and  O_15
REMARK                            x       y       z     vdW  Elec       q    Type
REMARK                         _______ _______ _______ _____ _____    ______ ____
ROOT
ATOM      1  C   UNL     1      21.171 -10.348  24.789  0.00  0.00    +0.000 C 
ATOM      2  C   UNL     1      21.741 -11.489  24.636  0.00  0.00    +0.000 C 
ATOM      3  C   UNL     1      21.194 -12.432  23.612  0.00  0.00    +0.000 C 
ATOM      4  N   UNL     1      22.814 -11.970  25.418  0.00  0.00    +0.000 NA
ATOM      5  C   UNL     1      23.269 -11.106  26.457  0.00  0.00    +0.000 C 
ATOM      6  O   UNL     1      24.266 -11.523  27.193  0.00  0.00    +0.000 OA
ATOM      7  N   UNL     1      22.666  -9.905  26.645  0.00  0.00    +0.000 NA
ATOM      8  C   UNL     1      21.704  -9.242  25.752  0.00  0.00    +0.000 C 
ENDROOT
BRANCH   8   9
ATOM      9  C   UNL     1      20.383  -9.065  26.625  0.00  0.00    +0.000 A 
ATOM     10  C   UNL     1      19.861 -10.043  27.362  0.00  0.00    +0.000 A 
ATOM     11  C   UNL     1      18.725  -9.834  28.092  0.00  0.00    +0.000 A 
ATOM     12  C   UNL     1      18.107  -8.622  28.078  0.00  0.00    +0.000 A 
ATOM     13  C   UNL     1      18.630  -7.601  27.325  0.00  0.00    +0.000 A 
ATOM     14  C   UNL     1      17.993  -6.383  27.322  0.00  0.00    +0.000 A 
ATOM     15  C   UNL     1      18.482  -5.345  26.588  0.00  0.00    +0.000 A 
ATOM     16  C   UNL     1      19.628  -5.540  25.845  0.00  0.00    +0.000 A 
ATOM     17  C   UNL     1      20.264  -6.765  25.850  0.00  0.00    +0.000 A 
ATOM     18  C   UNL     1      19.798  -7.831  26.580  0.00  0.00    +0.000 A 
BRANCH  10  19
ATOM     19  O   UNL     1      20.464 -11.266  27.390  0.00  0.00    +0.000 OA
ATOM     20  C   UNL     1      19.727 -12.416  27.713  0.00  0.00    +0.000 C 
ENDBRANCH  10  19
ENDBRANCH   8   9
BRANCH   1  21
ATOM     21  C   UNL     1      20.012 -10.018  23.970  0.00  0.00    +0.000 C 
ATOM     22  O   UNL     1      20.163  -9.206  23.034  0.00  0.00    +0.000 OA
BRANCH  21  24
ATOM     23  C   UNL     1      17.580  -9.825  24.337  0.00  0.00    +0.000 C 
ATOM     24  O   UNL     1      18.761 -10.561  24.184  0.00  0.00    +0.000 OA
ENDBRANCH  21  24
ENDBRANCH   1  21
TORSDOF 4
ENDMDL
MODEL 9
REMARK VINA RESULT:      -5.4     28.920     30.734
REMARK  Name = 
REMARK  4 active torsions:
REMARK  status: ('A' for Active; 'I' for Inactive)
REMARK    1  A    between atoms: O_2  and  C_3
REMARK    2  A    between atoms: C_3  and  C_5
REMARK    3  A    between atoms: C_12  and  C_13
REMARK    4  A    between atoms: C_14  and  O_15
REMARK                            x       y       z     vdW  Elec       q    Type
REMARK                         _______ _______ _______ _____ _____    ______ ____
ROOT
ATOM      1  C   UNL     1      32.276  -6.696  31.023  0.00  0.00    +0.000 C 
ATOM      2  C   UNL     1      32.047  -7.548  30.089  0.00  0.00    +0.000 C 
ATOM      3  C   UNL     1      31.103  -8.675  30.363  0.00  0.00    +0.000 C 
ATOM      4  N   UNL     1      32.679  -7.556  28.827  0.00  0.00    +0.000 NA
ATOM      5  C   UNL     1      33.651  -6.536  28.607  0.00  0.00    +0.000 C 
ATOM      6  O   UNL     1      34.247  -6.515  27.443  0.00  0.00    +0.000 OA
ATOM      7  N   UNL     1      33.919  -5.639  29.588  0.00  0.00    +0.000 NA
ATOM      8  C   UNL     1      33.162  -5.426  30.831  0.00  0.00    +0.000 C 
ENDROOT
BRANCH   8   9
ATOM      9  C   UNL     1      34.202  -5.713  32.003  0.00  0.00    +0.000 A 
ATOM     10  C   UNL     1      35.074  -6.720  31.974  0.00  0.00    +0.000 A 
ATOM     11  C   UNL     1      35.943  -6.918  33.008  0.00  0.00    +0.000 A 
ATOM     12  C   UNL     1      35.936  -6.089  34.088  0.00  0.00    +0.000 A 
ATOM     13  C   UNL     1      35.046  -5.046  34.137  0.00  0.00    +0.000 A 
ATOM     14  C   UNL     1      35.051  -4.218  35.234  0.00  0.00    +0.000 A 
ATOM     15  C   UNL     1      34.184  -3.171  35.319  0.00  0.00    +0.000 A 
ATOM     16  C   UNL     1      33.299  -2.958  34.283  0.00  0.00    +0.000 A 
ATOM     17  C   UNL     1      33.296  -3.791  33.183  0.00  0.00    +0.000 A 
ATOM     18  C   UNL     1      34.157  -4.855  33.066  0.00  0.00    +0.000 A 
BRANCH  10  19
ATOM     19  O   UNL     1      35.098  -7.563  30.902  0.00  0.00    +0.000 OA
ATOM     20  C   UNL     1      35.321  -8.937  31.082  0.00  0.00    +0.000 C 
ENDBRANCH  10  19
ENDBRANCH   8   9
BRANCH   1  21
ATOM     21  C   UNL     1      31.619  -6.862  32.313  0.00  0.00    +0.000 C 
ATOM     22  O   UNL     1      30.637  -6.136  32.572  0.00  0.00    +0.000 OA
BRANCH  21  24
ATOM     23  C   UNL     1      32.182  -7.522  34.622  0.00  0.00    +0.000 C 
ATOM     24  O   UNL     1      32.032  -7.782  33.255  0.00  0.00    +0.000 OA
ENDBRANCH  21  24
ENDBRANCH   1  21
TORSDOF 4
ENDMDL
MODEL 10
REMARK VINA RESULT:      -5.3     16.724     19.924
REMARK  Name = 
REMARK  4 active torsions:
REMARK  status: ('A' for Active; 'I' for Inactive)
REMARK    1  A    between atoms: O_2  and  C_3
REMARK    2  A    between atoms: C_3  and  C_5
REMARK    3  A    between atoms: C_12  and  C_13
REMARK    4  A    between atoms: C_14  and  O_15
REMARK                            x       y       z     vdW  Elec       q    Type
REMARK                         _______ _______ _______ _____ _____    ______ ____
ROOT
ATOM      1  C   UNL     1      32.052  20.613  10.685  0.00  0.00    +0.000 C 
ATOM      2  C   UNL     1      32.589  20.740  11.845  0.00  0.00    +0.000 C 
ATOM      3  C   UNL     1      31.811  21.424  12.924  0.00  0.00    +0.000 C 
ATOM      4  N   UNL     1      33.904  20.348  12.177  0.00  0.00    +0.000 NA
ATOM      5  C   UNL     1      34.675  19.784  11.119  0.00  0.00    +0.000 C 
ATOM      6  O   UNL     1      35.895  19.405  11.400  0.00  0.00    +0.000 OA
ATOM      7  N   UNL     1      34.131  19.660   9.883  0.00  0.00    +0.000 NA
ATOM      8  C   UNL     1      32.720  19.836   9.509  0.00  0.00    +0.000 C 
ENDROOT
BRANCH   8   9
ATOM      9  C   UNL     1      32.718  21.020   8.443  0.00  0.00    +0.000 A 
ATOM     10  C   UNL     1      33.507  22.089   8.540  0.00  0.00    +0.000 A 
ATOM     11  C   UNL     1      33.464  23.074   7.595  0.00  0.00    +0.000 A 
ATOM     12  C   UNL     1      32.613  22.981   6.537  0.00  0.00    +0.000 A 
ATOM     13  C   UNL     1      31.792  21.888   6.419  0.00  0.00    +0.000 A 
ATOM     14  C   UNL     1      30.939  21.809   5.344  0.00  0.00    +0.000 A 
ATOM     15  C   UNL     1      30.111  20.740   5.191  0.00  0.00    +0.000 A 
ATOM     16  C   UNL     1      30.142  19.736   6.137  0.00  0.00    +0.000 A 
ATOM     17  C   UNL     1      31.000  19.818   7.215  0.00  0.00    +0.000 A 
ATOM     18  C   UNL     1      31.849  20.883   7.398  0.00  0.00    +0.000 A 
BRANCH  10  19
ATOM     19  O   UNL     1      34.367  22.202   9.592  0.00  0.00    +0.000 OA
ATOM     20  C   UNL     1      34.604  23.452  10.186  0.00  0.00    +0.000 C 
ENDBRANCH  10  19
ENDBRANCH   8   9
BRANCH   1  21
ATOM     21  C   UNL     1      30.716  21.148  10.459  0.00  0.00    +0.000 C 
ATOM     22  O   UNL     1      29.759  20.346  10.424  0.00  0.00    +0.000 OA
BRANCH  21  24
ATOM     23  C   UNL     1      29.607  23.262  11.079  0.00  0.00    +0.000 C 
ATOM     24  O   UNL     1      30.463  22.493  10.282  0.00  0.00    +0.000 OA
ENDBRANCH  21  24
ENDBRANCH   1  21
TORSDOF 4
ENDMDL
