MODEL 1
REMARK VINA RESULT:      -7.1      0.000      0.000
REMARK  Name = 
REMARK  3 active torsions:
REMARK  status: ('A' for Active; 'I' for Inactive)
REMARK    1  A    between atoms: C_2  and  C_11
REMARK    2  A    between atoms: N_3  and  C_4
REMARK    3  A    between atoms: C_4  and  C_5
REMARK                            x       y       z     vdW  Elec       q    Type
REMARK                         _______ _______ _______ _____ _____    ______ ____
ROOT
ATOM      1  O   UNL     1      14.128  12.104  37.210  0.00  0.00    +0.000 OA
ATOM      2  C   UNL     1      15.212  11.754  36.629  0.00  0.00    +0.000 C 
ATOM      3  N   UNL     1      15.357  12.233  35.297  0.00  0.00    +0.000 NA
ENDROOT
BRANCH   2   4
ATOM      4  C   UNL     1      16.203  10.932  37.291  0.00  0.00    +0.000 A 
ATOM      5  C   UNL     1      17.235  10.416  36.549  0.00  0.00    +0.000 A 
ATOM      6  C   UNL     1      18.229   9.633  37.036  0.00  0.00    +0.000 A 
ATOM      7  C   UNL     1      18.235   9.302  38.411  0.00  0.00    +0.000 A 
ATOM      8  N   UNL     1      19.122   8.564  39.016  0.00  0.00    +0.000 NA
ATOM      9  C   UNL     1      19.012   8.328  40.311  0.00  0.00    +0.000 A 
ATOM     10  S   UNL     1      17.591   9.183  40.719  0.00  0.00    +0.000 S 
ATOM     11  C   UNL     1      17.213   9.805  39.176  0.00  0.00    +0.000 A 
ATOM     12  C   UNL     1      16.199  10.615  38.631  0.00  0.00    +0.000 A 
ENDBRANCH   2   4
BRANCH   3  13
ATOM     13  C   UNL     1      14.380  13.045  34.642  0.00  0.00    +0.000 C 
BRANCH  13  14
ATOM     14  C   UNL     1      14.313  12.857  33.161  0.00  0.00    +0.000 C 
ATOM     15  C   UNL     1      13.827  14.033  32.402  0.00  0.00    +0.000 C 
ATOM     16  C   UNL     1      13.619  13.634  30.979  0.00  0.00    +0.000 C 
ATOM     17  C   UNL     1      14.921  13.217  30.367  0.00  0.00    +0.000 C 
ATOM     18  C   UNL     1      15.742  12.301  31.161  0.00  0.00    +0.000 C 
ATOM     19  C   UNL     1      15.415  12.093  32.569  0.00  0.00    +0.000 C 
ENDBRANCH  13  14
ENDBRANCH   3  13
TORSDOF 3
ENDMDL
MODEL 2
REMARK VINA RESULT:      -6.8      2.909      7.779
REMARK  Name = 
REMARK  3 active torsions:
REMARK  status: ('A' for Active; 'I' for Inactive)
REMARK    1  A    between atoms: C_2  and  C_11
REMARK    2  A    between atoms: N_3  and  C_4
REMARK    3  A    between atoms: C_4  and  C_5
REMARK                            x       y       z     vdW  Elec       q    Type
REMARK                         _______ _______ _______ _____ _____    ______ ____
ROOT
ATOM      1  O   UNL     1      18.600  11.723  37.594  0.00  0.00    +0.000 OA
ATOM      2  C   UNL     1      17.803  10.870  37.073  0.00  0.00    +0.000 C 
ATOM      3  N   UNL     1      17.781   9.602  37.718  0.00  0.00    +0.000 NA
ENDROOT
BRANCH   2   4
ATOM      4  C   UNL     1      16.995  11.187  35.914  0.00  0.00    +0.000 A 
ATOM      5  C   UNL     1      15.956  12.071  36.056  0.00  0.00    +0.000 A 
ATOM      6  C   UNL     1      15.121  12.457  35.061  0.00  0.00    +0.000 A 
ATOM      7  C   UNL     1      15.305  11.930  33.762  0.00  0.00    +0.000 A 
ATOM      8  N   UNL     1      14.583  12.209  32.714  0.00  0.00    +0.000 NA
ATOM      9  C   UNL     1      14.860  11.644  31.552  0.00  0.00    +0.000 A 
ATOM     10  S   UNL     1      16.206  10.664  31.935  0.00  0.00    +0.000 S 
ATOM     11  C   UNL     1      16.337  11.043  33.592  0.00  0.00    +0.000 A 
ATOM     12  C   UNL     1      17.183  10.666  34.653  0.00  0.00    +0.000 A 
ENDBRANCH   2   4
BRANCH   3  13
ATOM     13  C   UNL     1      18.578   9.286  38.861  0.00  0.00    +0.000 C 
BRANCH  13  14
ATOM     14  C   UNL     1      17.795   8.922  40.080  0.00  0.00    +0.000 C 
ATOM     15  C   UNL     1      16.493   9.617  40.218  0.00  0.00    +0.000 C 
ATOM     16  C   UNL     1      15.927   9.314  41.565  0.00  0.00    +0.000 C 
ATOM     17  C   UNL     1      15.664   7.846  41.694  0.00  0.00    +0.000 C 
ATOM     18  C   UNL     1      16.740   6.957  41.253  0.00  0.00    +0.000 C 
ATOM     19  C   UNL     1      17.837   7.508  40.462  0.00  0.00    +0.000 C 
ENDBRANCH  13  14
ENDBRANCH   3  13
TORSDOF 3
ENDMDL
MODEL 3
REMARK VINA RESULT:      -6.3      4.576      5.827
REMARK  Name = 
REMARK  3 active torsions:
REMARK  status: ('A' for Active; 'I' for Inactive)
REMARK    1  A    between atoms: C_2  and  C_11
REMARK    2  A    between atoms: N_3  and  C_4
REMARK    3  A    between atoms: C_4  and  C_5
REMARK                            x       y       z     vdW  Elec       q    Type
REMARK                         _______ _______ _______ _____ _____    ______ ____
ROOT
ATOM      1  O   UNL     1      19.753  11.586  38.308  0.00  0.00    +0.000 OA
ATOM      2  C   UNL     1      20.269  10.557  37.752  0.00  0.00    +0.000 C 
ATOM      3  N   UNL     1      19.331   9.581  37.313  0.00  0.00    +0.000 NA
ENDROOT
BRANCH   2   4
ATOM      4  C   UNL     1      21.701  10.413  37.590  0.00  0.00    +0.000 A 
ATOM      5  C   UNL     1      22.190   9.989  36.381  0.00  0.00    +0.000 A 
ATOM      6  C   UNL     1      23.502   9.811  36.091  0.00  0.00    +0.000 A 
ATOM      7  C   UNL     1      24.470  10.074  37.087  0.00  0.00    +0.000 A 
ATOM      8  N   UNL     1      25.760   9.947  36.952  0.00  0.00    +0.000 NA
ATOM      9  C   UNL     1      26.561  10.226  37.966  0.00  0.00    +0.000 A 
ATOM     10  S   UNL     1      25.458  10.691  39.184  0.00  0.00    +0.000 S 
ATOM     11  C   UNL     1      24.008  10.499  38.306  0.00  0.00    +0.000 A 
ATOM     12  C   UNL     1      22.635  10.671  38.568  0.00  0.00    +0.000 A 
ENDBRANCH   2   4
BRANCH   3  13
ATOM     13  C   UNL     1      17.918   9.720  37.472  0.00  0.00    +0.000 C 
BRANCH  13  14
ATOM     14  C   UNL     1      17.190  10.102  36.224  0.00  0.00    +0.000 C 
ATOM     15  C   UNL     1      16.778  11.523  36.149  0.00  0.00    +0.000 C 
ATOM     16  C   UNL     1      15.894  11.706  34.961  0.00  0.00    +0.000 C 
ATOM     17  C   UNL     1      16.650  11.395  33.706  0.00  0.00    +0.000 C 
ATOM     18  C   UNL     1      17.438  10.161  33.717  0.00  0.00    +0.000 C 
ATOM     19  C   UNL     1      17.685   9.488  34.989  0.00  0.00    +0.000 C 
ENDBRANCH  13  14
ENDBRANCH   3  13
TORSDOF 3
ENDMDL
MODEL 4
REMARK VINA RESULT:      -6.1      2.874      4.319
REMARK  Name = 
REMARK  3 active torsions:
REMARK  status: ('A' for Active; 'I' for Inactive)
REMARK    1  A    between atoms: C_2  and  C_11
REMARK    2  A    between atoms: N_3  and  C_4
REMARK    3  A    between atoms: C_4  and  C_5
REMARK                            x       y       z     vdW  Elec       q    Type
REMARK                         _______ _______ _______ _____ _____    ______ ____
ROOT
ATOM      1  O   UNL     1      19.030  10.019  38.558  0.00  0.00    +0.000 OA
ATOM      2  C   UNL     1      17.860   9.668  38.937  0.00  0.00    +0.000 C 
ATOM      3  N   UNL     1      16.793  10.365  38.305  0.00  0.00    +0.000 NA
ENDROOT
BRANCH   2   4
ATOM      4  C   UNL     1      17.657   8.640  39.936  0.00  0.00    +0.000 A 
ATOM      5  C   UNL     1      16.663   8.808  40.865  0.00  0.00    +0.000 A 
ATOM      6  C   UNL     1      16.363   7.930  41.853  0.00  0.00    +0.000 A 
ATOM      7  C   UNL     1      17.112   6.736  41.965  0.00  0.00    +0.000 A 
ATOM      8  N   UNL     1      16.938   5.805  42.859  0.00  0.00    +0.000 NA
ATOM      9  C   UNL     1      17.709   4.732  42.856  0.00  0.00    +0.000 A 
ATOM     10  S   UNL     1      18.743   5.032  41.529  0.00  0.00    +0.000 S 
ATOM     11  C   UNL     1      18.113   6.542  41.048  0.00  0.00    +0.000 A 
ATOM     12  C   UNL     1      18.393   7.480  40.036  0.00  0.00    +0.000 A 
ENDBRANCH   2   4
BRANCH   3  13
ATOM     13  C   UNL     1      16.990  11.381  37.319  0.00  0.00    +0.000 C 
BRANCH  13  14
ATOM     14  C   UNL     1      16.553  10.999  35.942  0.00  0.00    +0.000 C 
ATOM     15  C   UNL     1      15.827  12.057  35.200  0.00  0.00    +0.000 C 
ATOM     16  C   UNL     1      15.280  11.472  33.941  0.00  0.00    +0.000 C 
ATOM     17  C   UNL     1      16.399  11.002  33.065  0.00  0.00    +0.000 C 
ATOM     18  C   UNL     1      17.444  10.212  33.720  0.00  0.00    +0.000 C 
ATOM     19  C   UNL     1      17.502  10.184  35.179  0.00  0.00    +0.000 C 
ENDBRANCH  13  14
ENDBRANCH   3  13
TORSDOF 3
ENDMDL
MODEL 5
REMARK VINA RESULT:      -5.9     21.033     22.324
REMARK  Name = 
REMARK  3 active torsions:
REMARK  status: ('A' for Active; 'I' for Inactive)
REMARK    1  A    between atoms: C_2  and  C_11
REMARK    2  A    between atoms: N_3  and  C_4
REMARK    3  A    between atoms: C_4  and  C_5
REMARK                            x       y       z     vdW  Elec       q    Type
REMARK                         _______ _______ _______ _____ _____    ______ ____
ROOT
ATOM      1  O   UNL     1      24.661   1.722  17.344  0.00  0.00    +0.000 OA
ATOM      2  C   UNL     1      23.704   2.483  17.721  0.00  0.00    +0.000 C 
ATOM      3  N   UNL     1      24.109   3.634  18.452  0.00  0.00    +0.000 NA
ENDROOT
BRANCH   2   4
ATOM      4  C   UNL     1      22.321   2.178  17.419  0.00  0.00    +0.000 A 
ATOM      5  C   UNL     1      21.335   2.844  18.099  0.00  0.00    +0.000 A 
ATOM      6  C   UNL     1      20.004   2.659  17.919  0.00  0.00    +0.000 A 
ATOM      7  C   UNL     1      19.561   1.715  16.964  0.00  0.00    +0.000 A 
ATOM      8  N   UNL     1      18.320   1.433  16.684  0.00  0.00    +0.000 NA
ATOM      9  C   UNL     1      18.039   0.526  15.766  0.00  0.00    +0.000 A 
ATOM     10  S   UNL     1      19.592   0.031  15.256  0.00  0.00    +0.000 S 
ATOM     11  C   UNL     1      20.529   1.035  16.269  0.00  0.00    +0.000 A 
ATOM     12  C   UNL     1      21.902   1.256  16.486  0.00  0.00    +0.000 A 
ENDBRANCH   2   4
BRANCH   3  13
ATOM     13  C   UNL     1      25.473   3.937  18.752  0.00  0.00    +0.000 C 
BRANCH  13  14
ATOM     14  C   UNL     1      25.950   5.246  18.210  0.00  0.00    +0.000 C 
ATOM     15  C   UNL     1      27.319   5.633  18.624  0.00  0.00    +0.000 C 
ATOM     16  C   UNL     1      27.575   7.036  18.184  0.00  0.00    +0.000 C 
ATOM     17  C   UNL     1      27.519   7.124  16.690  0.00  0.00    +0.000 C 
ATOM     18  C   UNL     1      26.381   6.464  16.047  0.00  0.00    +0.000 C 
ATOM     19  C   UNL     1      25.565   5.536  16.827  0.00  0.00    +0.000 C 
ENDBRANCH  13  14
ENDBRANCH   3  13
TORSDOF 3
ENDMDL
MODEL 6
REMARK VINA RESULT:      -5.8      2.854      8.270
REMARK  Name = 
REMARK  3 active torsions:
REMARK  status: ('A' for Active; 'I' for Inactive)
REMARK    1  A    between atoms: C_2  and  C_11
REMARK    2  A    between atoms: N_3  and  C_4
REMARK    3  A    between atoms: C_4  and  C_5
REMARK                            x       y       z     vdW  Elec       q    Type
REMARK                         _______ _______ _______ _____ _____    ______ ____
ROOT
ATOM      1  O   UNL     1      19.572  11.015  38.489  0.00  0.00    +0.000 OA
ATOM      2  C   UNL     1      18.684  10.180  38.104  0.00  0.00    +0.000 C 
ATOM      3  N   UNL     1      18.419   9.125  39.020  0.00  0.00    +0.000 NA
ENDROOT
BRANCH   2   4
ATOM      4  C   UNL     1      18.011  10.313  36.829  0.00  0.00    +0.000 A 
ATOM      5  C   UNL     1      18.456   9.569  35.766  0.00  0.00    +0.000 A 
ATOM      6  C   UNL     1      17.922   9.595  34.520  0.00  0.00    +0.000 A 
ATOM      7  C   UNL     1      16.820  10.441  34.259  0.00  0.00    +0.000 A 
ATOM      8  N   UNL     1      16.208  10.569  33.116  0.00  0.00    +0.000 NA
ATOM      9  C   UNL     1      15.187  11.399  33.002  0.00  0.00    +0.000 A 
ATOM     10  S   UNL     1      15.066  12.045  34.579  0.00  0.00    +0.000 S 
ATOM     11  C   UNL     1      16.356  11.197  35.305  0.00  0.00    +0.000 A 
ATOM     12  C   UNL     1      16.938  11.142  36.585  0.00  0.00    +0.000 A 
ENDBRANCH   2   4
BRANCH   3  13
ATOM     13  C   UNL     1      19.082   8.990  40.280  0.00  0.00    +0.000 C 
BRANCH  13  14
ATOM     14  C   UNL     1      19.110   7.597  40.818  0.00  0.00    +0.000 C 
ATOM     15  C   UNL     1      17.888   6.800  40.557  0.00  0.00    +0.000 C 
ATOM     16  C   UNL     1      17.976   5.521  41.321  0.00  0.00    +0.000 C 
ATOM     17  C   UNL     1      19.144   4.716  40.842  0.00  0.00    +0.000 C 
ATOM     18  C   UNL     1      20.407   5.440  40.686  0.00  0.00    +0.000 C 
ATOM     19  C   UNL     1      20.395   6.900  40.706  0.00  0.00    +0.000 C 
ENDBRANCH  13  14
ENDBRANCH   3  13
TORSDOF 3
ENDMDL
MODEL 7
REMARK VINA RESULT:      -5.8     19.100     21.199
REMARK  Name = 
REMARK  3 active torsions:
REMARK  status: ('A' for Active; 'I' for Inactive)
REMARK    1  A    between atoms: C_2  and  C_11
REMARK    2  A    between atoms: N_3  and  C_4
REMARK    3  A    between atoms: C_4  and  C_5
REMARK                            x       y       z     vdW  Elec       q    Type
REMARK                         _______ _______ _______ _____ _____    ______ ____
ROOT
ATOM      1  O   UNL     1      27.867  21.940  28.482  0.00  0.00    +0.000 OA
ATOM      2  C   UNL     1      28.840  22.527  27.897  0.00  0.00    +0.000 C 
ATOM      3  N   UNL     1      29.909  22.910  28.753  0.00  0.00    +0.000 NA
ENDROOT
BRANCH   2   4
ATOM      4  C   UNL     1      28.837  22.774  26.470  0.00  0.00    +0.000 A 
ATOM      5  C   UNL     1      29.980  22.529  25.755  0.00  0.00    +0.000 A 
ATOM      6  C   UNL     1      30.118  22.716  24.419  0.00  0.00    +0.000 A 
ATOM      7  C   UNL     1      29.018  23.197  23.672  0.00  0.00    +0.000 A 
ATOM      8  N   UNL     1      29.005  23.423  22.389  0.00  0.00    +0.000 NA
ATOM      9  C   UNL     1      27.907  23.876  21.810  0.00  0.00    +0.000 A 
ATOM     10  S   UNL     1      26.825  23.998  23.125  0.00  0.00    +0.000 S 
ATOM     11  C   UNL     1      27.861  23.450  24.364  0.00  0.00    +0.000 A 
ATOM     12  C   UNL     1      27.759  23.244  25.753  0.00  0.00    +0.000 A 
ENDBRANCH   2   4
BRANCH   3  13
ATOM     13  C   UNL     1      29.915  22.668  30.162  0.00  0.00    +0.000 C 
BRANCH  13  14
ATOM     14  C   UNL     1      31.269  22.413  30.740  0.00  0.00    +0.000 C 
ATOM     15  C   UNL     1      31.287  21.521  31.923  0.00  0.00    +0.000 C 
ATOM     16  C   UNL     1      32.660  21.525  32.508  0.00  0.00    +0.000 C 
ATOM     17  C   UNL     1      33.641  20.975  31.519  0.00  0.00    +0.000 C 
ATOM     18  C   UNL     1      33.540  21.493  30.153  0.00  0.00    +0.000 C 
ATOM     19  C   UNL     1      32.353  22.250  29.767  0.00  0.00    +0.000 C 
ENDBRANCH  13  14
ENDBRANCH   3  13
TORSDOF 3
ENDMDL
MODEL 8
REMARK VINA RESULT:      -5.7     18.719     19.874
REMARK  Name = 
REMARK  3 active torsions:
REMARK  status: ('A' for Active; 'I' for Inactive)
REMARK    1  A    between atoms: C_2  and  C_11
REMARK    2  A    between atoms: N_3  and  C_4
REMARK    3  A    between atoms: C_4  and  C_5
REMARK                            x       y       z     vdW  Elec       q    Type
REMARK                         _______ _______ _______ _____ _____    ______ ____
ROOT
ATOM      1  O   UNL     1      31.960  23.656  26.277  0.00  0.00    +0.000 OA
ATOM      2  C   UNL     1      31.161  22.858  26.877  0.00  0.00    +0.000 C 
ATOM      3  N   UNL     1      30.067  22.404  26.090  0.00  0.00    +0.000 NA
ENDROOT
BRANCH   2   4
ATOM      4  C   UNL     1      31.371  22.459  28.253  0.00  0.00    +0.000 A 
ATOM      5  C   UNL     1      32.528  21.800  28.581  0.00  0.00    +0.000 A 
ATOM      6  C   UNL     1      32.854  21.369  29.824  0.00  0.00    +0.000 A 
ATOM      7  C   UNL     1      31.956  21.600  30.892  0.00  0.00    +0.000 A 
ATOM      8  N   UNL     1      32.135  21.246  32.132  0.00  0.00    +0.000 NA
ATOM      9  C   UNL     1      31.214  21.522  33.038  0.00  0.00    +0.000 A 
ATOM     10  S   UNL     1      30.023  22.325  32.113  0.00  0.00    +0.000 S 
ATOM     11  C   UNL     1      30.790  22.258  30.591  0.00  0.00    +0.000 A 
ATOM     12  C   UNL     1      30.489  22.689  29.285  0.00  0.00    +0.000 A 
ENDBRANCH   2   4
BRANCH   3  13
ATOM     13  C   UNL     1      29.858  22.797  24.732  0.00  0.00    +0.000 C 
BRANCH  13  14
ATOM     14  C   UNL     1      28.485  23.313  24.442  0.00  0.00    +0.000 C 
ATOM     15  C   UNL     1      28.099  23.296  23.012  0.00  0.00    +0.000 C 
ATOM     16  C   UNL     1      26.805  24.021  22.854  0.00  0.00    +0.000 C 
ATOM     17  C   UNL     1      25.725  23.317  23.616  0.00  0.00    +0.000 C 
ATOM     18  C   UNL     1      26.057  22.917  24.985  0.00  0.00    +0.000 C 
ATOM     19  C   UNL     1      27.452  22.946  25.414  0.00  0.00    +0.000 C 
ENDBRANCH  13  14
ENDBRANCH   3  13
TORSDOF 3
ENDMDL
MODEL 9
REMARK VINA RESULT:      -5.7     18.956     21.085
REMARK  Name = 
REMARK  3 active torsions:
REMARK  status: ('A' for Active; 'I' for Inactive)
REMARK    1  A    between atoms: C_2  and  C_11
REMARK    2  A    between atoms: N_3  and  C_4
REMARK    3  A    between atoms: C_4  and  C_5
REMARK                            x       y       z     vdW  Elec       q    Type
REMARK                         _______ _______ _______ _____ _____    ______ ____
ROOT
ATOM      1  O   UNL     1      31.819  23.916  27.247  0.00  0.00    +0.000 OA
ATOM      2  C   UNL     1      31.002  22.956  27.037  0.00  0.00    +0.000 C 
ATOM      3  N   UNL     1      31.183  21.823  27.878  0.00  0.00    +0.000 NA
ENDROOT
BRANCH   2   4
ATOM      4  C   UNL     1      29.978  23.034  26.017  0.00  0.00    +0.000 A 
ATOM      5  C   UNL     1      30.360  23.123  24.703  0.00  0.00    +0.000 A 
ATOM      6  C   UNL     1      29.511  23.202  23.649  0.00  0.00    +0.000 A 
ATOM      7  C   UNL     1      28.117  23.194  23.883  0.00  0.00    +0.000 A 
ATOM      8  N   UNL     1      27.188  23.264  22.973  0.00  0.00    +0.000 NA
ATOM      9  C   UNL     1      25.915  23.247  23.325  0.00  0.00    +0.000 A 
ATOM     10  S   UNL     1      26.010  23.128  25.027  0.00  0.00    +0.000 S 
ATOM     11  C   UNL     1      27.708  23.106  25.189  0.00  0.00    +0.000 A 
ATOM     12  C   UNL     1      28.622  23.025  26.257  0.00  0.00    +0.000 A 
ENDBRANCH   2   4
BRANCH   3  13
ATOM     13  C   UNL     1      32.194  21.743  28.885  0.00  0.00    +0.000 C 
BRANCH  13  14
ATOM     14  C   UNL     1      31.729  22.110  30.257  0.00  0.00    +0.000 C 
ATOM     15  C   UNL     1      30.300  22.488  30.354  0.00  0.00    +0.000 C 
ATOM     16  C   UNL     1      30.035  23.022  31.722  0.00  0.00    +0.000 C 
ATOM     17  C   UNL     1      30.285  21.957  32.745  0.00  0.00    +0.000 C 
ATOM     18  C   UNL     1      31.529  21.200  32.598  0.00  0.00    +0.000 C 
ATOM     19  C   UNL     1      32.279  21.303  31.349  0.00  0.00    +0.000 C 
ENDBRANCH  13  14
ENDBRANCH   3  13
TORSDOF 3
ENDMDL
MODEL 10
REMARK VINA RESULT:      -5.7     22.874     25.347
REMARK  Name = 
REMARK  3 active torsions:
REMARK  status: ('A' for Active; 'I' for Inactive)
REMARK    1  A    between atoms: C_2  and  C_11
REMARK    2  A    between atoms: N_3  and  C_4
REMARK    3  A    between atoms: C_4  and  C_5
REMARK                            x       y       z     vdW  Elec       q    Type
REMARK                         _______ _______ _______ _____ _____    ______ ____
ROOT
ATOM      1  O   UNL     1      29.417  28.158  21.003  0.00  0.00    +0.000 OA
ATOM      2  C   UNL     1      29.382  26.920  20.686  0.00  0.00    +0.000 C 
ATOM      3  N   UNL     1      30.040  26.596  19.467  0.00  0.00    +0.000 NA
ENDROOT
BRANCH   2   4
ATOM      4  C   UNL     1      28.719  25.937  21.517  0.00  0.00    +0.000 A 
ATOM      5  C   UNL     1      29.055  24.615  21.372  0.00  0.00    +0.000 A 
ATOM      6  C   UNL     1      28.515  23.593  22.081  0.00  0.00    +0.000 A 
ATOM      7  C   UNL     1      27.528  23.873  23.053  0.00  0.00    +0.000 A 
ATOM      8  N   UNL     1      26.925  22.997  23.805  0.00  0.00    +0.000 NA
ATOM      9  C   UNL     1      26.016  23.390  24.679  0.00  0.00    +0.000 A 
ATOM     10  S   UNL     1      25.993  25.082  24.445  0.00  0.00    +0.000 S 
ATOM     11  C   UNL     1      27.173  25.188  23.218  0.00  0.00    +0.000 A 
ATOM     12  C   UNL     1      27.758  26.221  22.461  0.00  0.00    +0.000 A 
ENDBRANCH   2   4
BRANCH   3  13
ATOM     13  C   UNL     1      30.696  27.565  18.645  0.00  0.00    +0.000 C 
BRANCH  13  14
ATOM     14  C   UNL     1      29.952  27.924  17.400  0.00  0.00    +0.000 C 
ATOM     15  C   UNL     1      29.130  29.154  17.494  0.00  0.00    +0.000 C 
ATOM     16  C   UNL     1      28.295  29.270  16.263  0.00  0.00    +0.000 C 
ATOM     17  C   UNL     1      29.173  29.412  15.059  0.00  0.00    +0.000 C 
ATOM     18  C   UNL     1      30.298  28.480  14.967  0.00  0.00    +0.000 C 
ATOM     19  C   UNL     1      30.673  27.701  16.144  0.00  0.00    +0.000 C 
ENDBRANCH  13  14
ENDBRANCH   3  13
TORSDOF 3
ENDMDL
