MODEL 1
REMARK VINA RESULT:      -7.7      0.000      0.000
REMARK  Name = 
REMARK  8 active torsions:
REMARK  status: ('A' for Active; 'I' for Inactive)
REMARK    1  A    between atoms: C_2  and  O_3
REMARK    2  A    between atoms: O_3  and  C_4
REMARK    3  A    between atoms: C_4  and  C_6
REMARK    4  A    between atoms: C_7  and  N_8
REMARK    5  A    between atoms: N_8  and  C_9
REMARK    6  A    between atoms: C_21  and  C_22
REMARK    7  A    between atoms: C_27  and  O_28
REMARK    8  A    between atoms: O_28  and  C_29
REMARK                            x       y       z     vdW  Elec       q    Type
REMARK                         _______ _______ _______ _____ _____    ______ ____
ROOT
ATOM      1  C   UNL     1      36.667   1.530  16.137  0.00  0.00    +0.000 C 
ATOM      2  C   UNL     1      37.054   0.718  15.198  0.00  0.00    +0.000 C 
ATOM      3  S   UNL     1      38.381   1.509  14.302  0.00  0.00    +0.000 S 
ATOM      4  C   UNL     1      38.244   3.117  15.151  0.00  0.00    +0.000 C 
ATOM      5  C   UNL     1      38.918   4.191  14.843  0.00  0.00    +0.000 C 
ATOM      6  C   UNL     1      37.264   2.838  16.180  0.00  0.00    +0.000 C 
ATOM      7  O   UNL     1      36.991   3.747  17.058  0.00  0.00    +0.000 OA
ENDROOT
BRANCH   5   8
ATOM      8  C   UNL     1      38.749   5.432  15.564  0.00  0.00    +0.000 A 
ATOM      9  C   UNL     1      37.862   6.395  15.172  0.00  0.00    +0.000 A 
ATOM     10  C   UNL     1      37.677   7.576  15.828  0.00  0.00    +0.000 A 
ATOM     11  C   UNL     1      38.420   7.839  16.960  0.00  0.00    +0.000 A 
ATOM     12  O   UNL     1      38.276   9.031  17.675  0.00  0.00    +0.000 OA
ATOM     13  C   UNL     1      39.320   6.888  17.378  0.00  0.00    +0.000 A 
ATOM     14  C   UNL     1      39.506   5.695  16.716  0.00  0.00    +0.000 A 
BRANCH  13  15
ATOM     15  O   UNL     1      40.054   7.185  18.528  0.00  0.00    +0.000 OA
BRANCH  15  16
ATOM     16  C   UNL     1      40.102   6.358  19.661  0.00  0.00    +0.000 C 
ATOM     17  C   UNL     1      41.501   6.373  20.211  0.00  0.00    +0.000 C 
ENDBRANCH  15  16
ENDBRANCH  13  15
ENDBRANCH   5   8
BRANCH   1  18
ATOM     18  C   UNL     1      35.602   1.146  17.103  0.00  0.00    +0.000 C 
ATOM     19  O   UNL     1      34.403   1.356  16.762  0.00  0.00    +0.000 OA
BRANCH  18  20
ATOM     20  O   UNL     1      35.875   0.579  18.332  0.00  0.00    +0.000 OA
BRANCH  20  22
ATOM     21  C   UNL     1      36.889  -1.443  19.245  0.00  0.00    +0.000 C 
ATOM     22  C   UNL     1      35.682  -0.795  18.601  0.00  0.00    +0.000 C 
ENDBRANCH  20  22
ENDBRANCH  18  20
ENDBRANCH   1  18
BRANCH   2  23
ATOM     23  N   UNL     1      36.623  -0.597  14.862  0.00  0.00    +0.000 NA
BRANCH  23  24
ATOM     24  C   UNL     1      37.265  -1.702  15.457  0.00  0.00    +0.000 A 
ATOM     25  C   UNL     1      38.553  -1.579  15.930  0.00  0.00    +0.000 A 
ATOM     26  C   UNL     1      39.188  -2.680  16.524  0.00  0.00    +0.000 A 
ATOM     27  C   UNL     1      38.533  -3.886  16.639  0.00  0.00    +0.000 A 
ATOM     28  C   UNL     1      37.247  -4.011  16.165  0.00  0.00    +0.000 A 
ATOM     29  C   UNL     1      36.623  -5.229  16.296  0.00  0.00    +0.000 A 
ATOM     30  C   UNL     1      35.336  -5.338  15.816  0.00  0.00    +0.000 A 
ATOM     31  C   UNL     1      34.701  -4.252  15.228  0.00  0.00    +0.000 A 
ATOM     32  C   UNL     1      35.338  -3.032  15.104  0.00  0.00    +0.000 A 
ATOM     33  C   UNL     1      36.634  -2.909  15.581  0.00  0.00    +0.000 A 
ENDBRANCH  23  24
ENDBRANCH   2  23
TORSDOF 8
ENDMDL
MODEL 2
REMARK VINA RESULT:      -7.3      2.608      8.379
REMARK  Name = 
REMARK  8 active torsions:
REMARK  status: ('A' for Active; 'I' for Inactive)
REMARK    1  A    between atoms: C_2  and  O_3
REMARK    2  A    between atoms: O_3  and  C_4
REMARK    3  A    between atoms: C_4  and  C_6
REMARK    4  A    between atoms: C_7  and  N_8
REMARK    5  A    between atoms: N_8  and  C_9
REMARK    6  A    between atoms: C_21  and  C_22
REMARK    7  A    between atoms: C_27  and  O_28
REMARK    8  A    between atoms: O_28  and  C_29
REMARK                            x       y       z     vdW  Elec       q    Type
REMARK                         _______ _______ _______ _____ _____    ______ ____
ROOT
ATOM      1  C   UNL     1      37.917   2.853  14.529  0.00  0.00    +0.000 C 
ATOM      2  C   UNL     1      38.992   3.561  14.348  0.00  0.00    +0.000 C 
ATOM      3  S   UNL     1      40.337   2.437  14.007  0.00  0.00    +0.000 S 
ATOM      4  C   UNL     1      39.391   0.912  14.334  0.00  0.00    +0.000 C 
ATOM      5  C   UNL     1      39.888  -0.293  14.349  0.00  0.00    +0.000 C 
ATOM      6  C   UNL     1      38.050   1.421  14.530  0.00  0.00    +0.000 C 
ATOM      7  O   UNL     1      37.073   0.588  14.687  0.00  0.00    +0.000 OA
ENDROOT
BRANCH   5   8
ATOM      8  C   UNL     1      39.071  -1.454  14.621  0.00  0.00    +0.000 A 
ATOM      9  C   UNL     1      38.438  -2.155  13.634  0.00  0.00    +0.000 A 
ATOM     10  C   UNL     1      37.661  -3.253  13.855  0.00  0.00    +0.000 A 
ATOM     11  C   UNL     1      37.486  -3.703  15.147  0.00  0.00    +0.000 A 
ATOM     12  O   UNL     1      36.701  -4.822  15.437  0.00  0.00    +0.000 OA
ATOM     13  C   UNL     1      38.110  -3.016  16.160  0.00  0.00    +0.000 A 
ATOM     14  C   UNL     1      38.896  -1.908  15.937  0.00  0.00    +0.000 A 
BRANCH  13  15
ATOM     15  O   UNL     1      37.913  -3.499  17.456  0.00  0.00    +0.000 OA
BRANCH  15  16
ATOM     16  C   UNL     1      38.557  -2.980  18.591  0.00  0.00    +0.000 C 
ATOM     17  C   UNL     1      37.581  -2.125  19.350  0.00  0.00    +0.000 C 
ENDBRANCH  15  16
ENDBRANCH  13  15
ENDBRANCH   5   8
BRANCH   1  18
ATOM     18  C   UNL     1      36.600   3.497  14.783  0.00  0.00    +0.000 C 
ATOM     19  O   UNL     1      36.086   4.166  13.842  0.00  0.00    +0.000 OA
BRANCH  18  20
ATOM     20  O   UNL     1      35.934   3.389  15.988  0.00  0.00    +0.000 OA
BRANCH  20  22
ATOM     21  C   UNL     1      34.838   1.416  16.914  0.00  0.00    +0.000 C 
ATOM     22  C   UNL     1      34.707   2.703  16.126  0.00  0.00    +0.000 C 
ENDBRANCH  20  22
ENDBRANCH  18  20
ENDBRANCH   1  18
BRANCH   2  23
ATOM     23  N   UNL     1      39.195   4.971  14.347  0.00  0.00    +0.000 NA
BRANCH  23  24
ATOM     24  C   UNL     1      40.255   5.510  15.104  0.00  0.00    +0.000 A 
ATOM     25  C   UNL     1      41.426   5.882  14.483  0.00  0.00    +0.000 A 
ATOM     26  C   UNL     1      42.478   6.421  15.240  0.00  0.00    +0.000 A 
ATOM     27  C   UNL     1      42.349   6.582  16.601  0.00  0.00    +0.000 A 
ATOM     28  C   UNL     1      41.180   6.209  17.223  0.00  0.00    +0.000 A 
ATOM     29  C   UNL     1      41.084   6.382  18.584  0.00  0.00    +0.000 A 
ATOM     30  C   UNL     1      39.907   6.003  19.191  0.00  0.00    +0.000 A 
ATOM     31  C   UNL     1      38.862   5.470  18.448  0.00  0.00    +0.000 A 
ATOM     32  C   UNL     1      38.969   5.302  17.081  0.00  0.00    +0.000 A 
ATOM     33  C   UNL     1      40.148   5.677  16.457  0.00  0.00    +0.000 A 
ENDBRANCH  23  24
ENDBRANCH   2  23
TORSDOF 8
ENDMDL
MODEL 3
REMARK VINA RESULT:      -7.2      1.815      2.866
REMARK  Name = 
REMARK  8 active torsions:
REMARK  status: ('A' for Active; 'I' for Inactive)
REMARK    1  A    between atoms: C_2  and  O_3
REMARK    2  A    between atoms: O_3  and  C_4
REMARK    3  A    between atoms: C_4  and  C_6
REMARK    4  A    between atoms: C_7  and  N_8
REMARK    5  A    between atoms: N_8  and  C_9
REMARK    6  A    between atoms: C_21  and  C_22
REMARK    7  A    between atoms: C_27  and  O_28
REMARK    8  A    between atoms: O_28  and  C_29
REMARK                            x       y       z     vdW  Elec       q    Type
REMARK                         _______ _______ _______ _____ _____    ______ ____
ROOT
ATOM      1  C   UNL     1      36.542   1.482  15.453  0.00  0.00    +0.000 C 
ATOM      2  C   UNL     1      36.786   0.660  14.476  0.00  0.00    +0.000 C 
ATOM      3  S   UNL     1      37.583   1.583  13.170  0.00  0.00    +0.000 S 
ATOM      4  C   UNL     1      37.377   3.219  13.948  0.00  0.00    +0.000 C 
ATOM      5  C   UNL     1      37.685   4.360  13.396  0.00  0.00    +0.000 C 
ATOM      6  C   UNL     1      36.837   2.875  15.247  0.00  0.00    +0.000 C 
ATOM      7  O   UNL     1      36.659   3.806  16.126  0.00  0.00    +0.000 OA
ENDROOT
BRANCH   5   8
ATOM      8  C   UNL     1      37.488   5.618  14.079  0.00  0.00    +0.000 A 
ATOM      9  C   UNL     1      38.405   6.133  14.951  0.00  0.00    +0.000 A 
ATOM     10  C   UNL     1      38.252   7.316  15.611  0.00  0.00    +0.000 A 
ATOM     11  C   UNL     1      37.107   8.057  15.404  0.00  0.00    +0.000 A 
ATOM     12  O   UNL     1      36.892   9.276  16.052  0.00  0.00    +0.000 OA
ATOM     13  C   UNL     1      36.167   7.563  14.533  0.00  0.00    +0.000 A 
ATOM     14  C   UNL     1      36.322   6.369  13.865  0.00  0.00    +0.000 A 
BRANCH  13  15
ATOM     15  O   UNL     1      35.021   8.339  14.345  0.00  0.00    +0.000 OA
BRANCH  15  16
ATOM     16  C   UNL     1      33.736   7.949  14.756  0.00  0.00    +0.000 C 
ATOM     17  C   UNL     1      33.324   8.801  15.925  0.00  0.00    +0.000 C 
ENDBRANCH  15  16
ENDBRANCH  13  15
ENDBRANCH   5   8
BRANCH   1  18
ATOM     18  C   UNL     1      35.926   1.013  16.723  0.00  0.00    +0.000 C 
ATOM     19  O   UNL     1      34.674   1.139  16.846  0.00  0.00    +0.000 OA
BRANCH  18  20
ATOM     20  O   UNL     1      36.661   0.455  17.751  0.00  0.00    +0.000 OA
BRANCH  20  22
ATOM     21  C   UNL     1      37.420  -1.452  19.068  0.00  0.00    +0.000 C 
ATOM     22  C   UNL     1      36.260  -0.717  18.430  0.00  0.00    +0.000 C 
ENDBRANCH  20  22
ENDBRANCH  18  20
ENDBRANCH   1  18
BRANCH   2  23
ATOM     23  N   UNL     1      36.559  -0.740  14.351  0.00  0.00    +0.000 NA
BRANCH  23  24
ATOM     24  C   UNL     1      37.418  -1.636  15.018  0.00  0.00    +0.000 A 
ATOM     25  C   UNL     1      38.729  -1.287  15.256  0.00  0.00    +0.000 A 
ATOM     26  C   UNL     1      39.581  -2.181  15.922  0.00  0.00    +0.000 A 
ATOM     27  C   UNL     1      39.117  -3.407  16.342  0.00  0.00    +0.000 A 
ATOM     28  C   UNL     1      37.808  -3.758  16.103  0.00  0.00    +0.000 A 
ATOM     29  C   UNL     1      37.378  -4.991  16.536  0.00  0.00    +0.000 A 
ATOM     30  C   UNL     1      36.064  -5.327  16.289  0.00  0.00    +0.000 A 
ATOM     31  C   UNL     1      35.216  -4.447  15.631  0.00  0.00    +0.000 A 
ATOM     32  C   UNL     1      35.659  -3.210  15.202  0.00  0.00    +0.000 A 
ATOM     33  C   UNL     1      36.978  -2.859  15.443  0.00  0.00    +0.000 A 
ENDBRANCH  23  24
ENDBRANCH   2  23
TORSDOF 8
ENDMDL
MODEL 4
REMARK VINA RESULT:      -7.1      2.141      3.317
REMARK  Name = 
REMARK  8 active torsions:
REMARK  status: ('A' for Active; 'I' for Inactive)
REMARK    1  A    between atoms: C_2  and  O_3
REMARK    2  A    between atoms: O_3  and  C_4
REMARK    3  A    between atoms: C_4  and  C_6
REMARK    4  A    between atoms: C_7  and  N_8
REMARK    5  A    between atoms: N_8  and  C_9
REMARK    6  A    between atoms: C_21  and  C_22
REMARK    7  A    between atoms: C_27  and  O_28
REMARK    8  A    between atoms: O_28  and  C_29
REMARK                            x       y       z     vdW  Elec       q    Type
REMARK                         _______ _______ _______ _____ _____    ______ ____
ROOT
ATOM      1  C   UNL     1      37.094   2.625  15.670  0.00  0.00    +0.000 C 
ATOM      2  C   UNL     1      37.388   2.511  14.409  0.00  0.00    +0.000 C 
ATOM      3  S   UNL     1      38.677   3.691  14.038  0.00  0.00    +0.000 S 
ATOM      4  C   UNL     1      38.652   4.509  15.667  0.00  0.00    +0.000 C 
ATOM      5  C   UNL     1      39.338   5.572  15.987  0.00  0.00    +0.000 C 
ATOM      6  C   UNL     1      37.736   3.674  16.416  0.00  0.00    +0.000 C 
ATOM      7  O   UNL     1      37.553   3.904  17.675  0.00  0.00    +0.000 OA
ENDROOT
BRANCH   5   8
ATOM      8  C   UNL     1      39.260   6.165  17.302  0.00  0.00    +0.000 A 
ATOM      9  C   UNL     1      40.034   5.742  18.346  0.00  0.00    +0.000 A 
ATOM     10  C   UNL     1      39.987   6.279  19.598  0.00  0.00    +0.000 A 
ATOM     11  C   UNL     1      39.111   7.313  19.853  0.00  0.00    +0.000 A 
ATOM     12  O   UNL     1      39.016   7.904  21.116  0.00  0.00    +0.000 OA
ATOM     13  C   UNL     1      38.319   7.758  18.822  0.00  0.00    +0.000 A 
ATOM     14  C   UNL     1      38.367   7.217  17.557  0.00  0.00    +0.000 A 
BRANCH  13  15
ATOM     15  O   UNL     1      37.445   8.807  19.114  0.00  0.00    +0.000 OA
BRANCH  15  16
ATOM     16  C   UNL     1      36.255   9.053  18.409  0.00  0.00    +0.000 C 
ATOM     17  C   UNL     1      36.329  10.426  17.803  0.00  0.00    +0.000 C 
ENDBRANCH  15  16
ENDBRANCH  13  15
ENDBRANCH   5   8
BRANCH   1  18
ATOM     18  C   UNL     1      36.086   1.740  16.313  0.00  0.00    +0.000 C 
ATOM     19  O   UNL     1      34.866   1.983  16.085  0.00  0.00    +0.000 OA
BRANCH  18  20
ATOM     20  O   UNL     1      36.431   0.683  17.132  0.00  0.00    +0.000 OA
BRANCH  20  22
ATOM     21  C   UNL     1      35.817  -0.405  19.227  0.00  0.00    +0.000 C 
ATOM     22  C   UNL     1      35.472  -0.129  17.779  0.00  0.00    +0.000 C 
ENDBRANCH  20  22
ENDBRANCH  18  20
ENDBRANCH   1  18
BRANCH   2  23
ATOM     23  N   UNL     1      36.892   1.627  13.408  0.00  0.00    +0.000 NA
BRANCH  23  24
ATOM     24  C   UNL     1      37.755   0.655  12.863  0.00  0.00    +0.000 A 
ATOM     25  C   UNL     1      38.689   1.014  11.917  0.00  0.00    +0.000 A 
ATOM     26  C   UNL     1      39.548   0.044  11.379  0.00  0.00    +0.000 A 
ATOM     27  C   UNL     1      39.464  -1.268  11.789  0.00  0.00    +0.000 A 
ATOM     28  C   UNL     1      38.530  -1.629  12.732  0.00  0.00    +0.000 A 
ATOM     29  C   UNL     1      38.474  -2.948  13.119  0.00  0.00    +0.000 A 
ATOM     30  C   UNL     1      37.532  -3.292  14.064  0.00  0.00    +0.000 A 
ATOM     31  C   UNL     1      36.680  -2.337  14.602  0.00  0.00    +0.000 A 
ATOM     32  C   UNL     1      36.747  -1.015  14.206  0.00  0.00    +0.000 A 
ATOM     33  C   UNL     1      37.688  -0.654  13.255  0.00  0.00    +0.000 A 
ENDBRANCH  23  24
ENDBRANCH   2  23
TORSDOF 8
ENDMDL
MODEL 5
REMARK VINA RESULT:      -7.1      3.199      5.034
REMARK  Name = 
REMARK  8 active torsions:
REMARK  status: ('A' for Active; 'I' for Inactive)
REMARK    1  A    between atoms: C_2  and  O_3
REMARK    2  A    between atoms: O_3  and  C_4
REMARK    3  A    between atoms: C_4  and  C_6
REMARK    4  A    between atoms: C_7  and  N_8
REMARK    5  A    between atoms: N_8  and  C_9
REMARK    6  A    between atoms: C_21  and  C_22
REMARK    7  A    between atoms: C_27  and  O_28
REMARK    8  A    between atoms: O_28  and  C_29
REMARK                            x       y       z     vdW  Elec       q    Type
REMARK                         _______ _______ _______ _____ _____    ______ ____
ROOT
ATOM      1  C   UNL     1      37.217   4.245  15.453  0.00  0.00    +0.000 C 
ATOM      2  C   UNL     1      36.610   3.112  15.650  0.00  0.00    +0.000 C 
ATOM      3  S   UNL     1      34.987   3.225  14.910  0.00  0.00    +0.000 S 
ATOM      4  C   UNL     1      35.098   4.996  14.492  0.00  0.00    +0.000 C 
ATOM      5  C   UNL     1      34.128   5.715  13.998  0.00  0.00    +0.000 C 
ATOM      6  C   UNL     1      36.471   5.306  14.832  0.00  0.00    +0.000 C 
ATOM      7  O   UNL     1      36.941   6.480  14.563  0.00  0.00    +0.000 OA
ENDROOT
BRANCH   5   8
ATOM      8  C   UNL     1      34.294   7.119  13.697  0.00  0.00    +0.000 A 
ATOM      9  C   UNL     1      34.695   7.565  12.469  0.00  0.00    +0.000 A 
ATOM     10  C   UNL     1      34.861   8.879  12.150  0.00  0.00    +0.000 A 
ATOM     11  C   UNL     1      34.616   9.839  13.110  0.00  0.00    +0.000 A 
ATOM     12  O   UNL     1      34.769  11.202  12.844  0.00  0.00    +0.000 OA
ATOM     13  C   UNL     1      34.213   9.420  14.355  0.00  0.00    +0.000 A 
ATOM     14  C   UNL     1      34.044   8.092  14.677  0.00  0.00    +0.000 A 
BRANCH  13  15
ATOM     15  O   UNL     1      33.973  10.417  15.302  0.00  0.00    +0.000 OA
BRANCH  15  16
ATOM     16  C   UNL     1      34.329  10.312  16.657  0.00  0.00    +0.000 C 
ATOM     17  C   UNL     1      33.081  10.387  17.491  0.00  0.00    +0.000 C 
ENDBRANCH  15  16
ENDBRANCH  13  15
ENDBRANCH   5   8
BRANCH   1  18
ATOM     18  C   UNL     1      38.618   4.461  15.905  0.00  0.00    +0.000 C 
ATOM     19  O   UNL     1      39.528   4.407  15.030  0.00  0.00    +0.000 OA
BRANCH  18  20
ATOM     20  O   UNL     1      38.949   4.713  17.222  0.00  0.00    +0.000 OA
BRANCH  20  22
ATOM     21  C   UNL     1      39.337   6.102  19.189  0.00  0.00    +0.000 C 
ATOM     22  C   UNL     1      38.591   5.908  17.886  0.00  0.00    +0.000 C 
ENDBRANCH  20  22
ENDBRANCH  18  20
ENDBRANCH   1  18
BRANCH   2  23
ATOM     23  N   UNL     1      37.049   1.911  16.277  0.00  0.00    +0.000 NA
BRANCH  23  24
ATOM     24  C   UNL     1      37.062   0.715  15.532  0.00  0.00    +0.000 A 
ATOM     25  C   UNL     1      37.899   0.588  14.446  0.00  0.00    +0.000 A 
ATOM     26  C   UNL     1      37.912  -0.606  13.708  0.00  0.00    +0.000 A 
ATOM     27  C   UNL     1      37.092  -1.654  14.061  0.00  0.00    +0.000 A 
ATOM     28  C   UNL     1      36.253  -1.528  15.145  0.00  0.00    +0.000 A 
ATOM     29  C   UNL     1      35.448  -2.594  15.470  0.00  0.00    +0.000 A 
ATOM     30  C   UNL     1      34.614  -2.452  16.558  0.00  0.00    +0.000 A 
ATOM     31  C   UNL     1      34.598  -1.274  17.292  0.00  0.00    +0.000 A 
ATOM     32  C   UNL     1      35.413  -0.210  16.957  0.00  0.00    +0.000 A 
ATOM     33  C   UNL     1      36.256  -0.338  15.865  0.00  0.00    +0.000 A 
ENDBRANCH  23  24
ENDBRANCH   2  23
TORSDOF 8
ENDMDL
MODEL 6
REMARK VINA RESULT:      -7.1      1.951      3.004
REMARK  Name = 
REMARK  8 active torsions:
REMARK  status: ('A' for Active; 'I' for Inactive)
REMARK    1  A    between atoms: C_2  and  O_3
REMARK    2  A    between atoms: O_3  and  C_4
REMARK    3  A    between atoms: C_4  and  C_6
REMARK    4  A    between atoms: C_7  and  N_8
REMARK    5  A    between atoms: N_8  and  C_9
REMARK    6  A    between atoms: C_21  and  C_22
REMARK    7  A    between atoms: C_27  and  O_28
REMARK    8  A    between atoms: O_28  and  C_29
REMARK                            x       y       z     vdW  Elec       q    Type
REMARK                         _______ _______ _______ _____ _____    ______ ____
ROOT
ATOM      1  C   UNL     1      37.174   2.226  15.987  0.00  0.00    +0.000 C 
ATOM      2  C   UNL     1      37.547   1.939  14.776  0.00  0.00    +0.000 C 
ATOM      3  S   UNL     1      38.845   3.078  14.318  0.00  0.00    +0.000 S 
ATOM      4  C   UNL     1      38.712   4.119  15.809  0.00  0.00    +0.000 C 
ATOM      5  C   UNL     1      39.367   5.227  16.014  0.00  0.00    +0.000 C 
ATOM      6  C   UNL     1      37.759   3.381  16.613  0.00  0.00    +0.000 C 
ATOM      7  O   UNL     1      37.496   3.785  17.813  0.00  0.00    +0.000 OA
ENDROOT
BRANCH   5   8
ATOM      8  C   UNL     1      39.202   6.000  17.225  0.00  0.00    +0.000 A 
ATOM      9  C   UNL     1      38.249   6.971  17.353  0.00  0.00    +0.000 A 
ATOM     10  C   UNL     1      38.065   7.717  18.479  0.00  0.00    +0.000 A 
ATOM     11  C   UNL     1      38.880   7.498  19.570  0.00  0.00    +0.000 A 
ATOM     12  O   UNL     1      38.742   8.232  20.751  0.00  0.00    +0.000 OA
ATOM     13  C   UNL     1      39.848   6.528  19.469  0.00  0.00    +0.000 A 
ATOM     14  C   UNL     1      40.033   5.774  18.332  0.00  0.00    +0.000 A 
BRANCH  13  15
ATOM     15  O   UNL     1      40.655   6.332  20.592  0.00  0.00    +0.000 OA
BRANCH  15  16
ATOM     16  C   UNL     1      42.059   6.376  20.564  0.00  0.00    +0.000 C 
ATOM     17  C   UNL     1      42.493   7.803  20.378  0.00  0.00    +0.000 C 
ENDBRANCH  15  16
ENDBRANCH  13  15
ENDBRANCH   5   8
BRANCH   1  18
ATOM     18  C   UNL     1      36.135   1.423  16.688  0.00  0.00    +0.000 C 
ATOM     19  O   UNL     1      34.926   1.671  16.418  0.00  0.00    +0.000 OA
BRANCH  18  20
ATOM     20  O   UNL     1      36.444   0.436  17.603  0.00  0.00    +0.000 OA
BRANCH  20  22
ATOM     21  C   UNL     1      35.338  -1.697  17.181  0.00  0.00    +0.000 C 
ATOM     22  C   UNL     1      35.489  -0.489  18.082  0.00  0.00    +0.000 C 
ENDBRANCH  20  22
ENDBRANCH  18  20
ENDBRANCH   1  18
BRANCH   2  23
ATOM     23  N   UNL     1      37.122   0.913  13.883  0.00  0.00    +0.000 NA
BRANCH  23  24
ATOM     24  C   UNL     1      38.093   0.123  13.236  0.00  0.00    +0.000 A 
ATOM     25  C   UNL     1      38.363   0.318  11.900  0.00  0.00    +0.000 A 
ATOM     26  C   UNL     1      39.332  -0.469  11.259  0.00  0.00    +0.000 A 
ATOM     27  C   UNL     1      40.016  -1.439  11.957  0.00  0.00    +0.000 A 
ATOM     28  C   UNL     1      39.746  -1.637  13.291  0.00  0.00    +0.000 A 
ATOM     29  C   UNL     1      40.449  -2.614  13.958  0.00  0.00    +0.000 A 
ATOM     30  C   UNL     1      40.166  -2.800  15.293  0.00  0.00    +0.000 A 
ATOM     31  C   UNL     1      39.209  -2.023  15.933  0.00  0.00    +0.000 A 
ATOM     32  C   UNL     1      38.511  -1.043  15.254  0.00  0.00    +0.000 A 
ATOM     33  C   UNL     1      38.784  -0.846  13.909  0.00  0.00    +0.000 A 
ENDBRANCH  23  24
ENDBRANCH   2  23
TORSDOF 8
ENDMDL
MODEL 7
REMARK VINA RESULT:      -7.1      2.622      3.691
REMARK  Name = 
REMARK  8 active torsions:
REMARK  status: ('A' for Active; 'I' for Inactive)
REMARK    1  A    between atoms: C_2  and  O_3
REMARK    2  A    between atoms: O_3  and  C_4
REMARK    3  A    between atoms: C_4  and  C_6
REMARK    4  A    between atoms: C_7  and  N_8
REMARK    5  A    between atoms: N_8  and  C_9
REMARK    6  A    between atoms: C_21  and  C_22
REMARK    7  A    between atoms: C_27  and  O_28
REMARK    8  A    between atoms: O_28  and  C_29
REMARK                            x       y       z     vdW  Elec       q    Type
REMARK                         _______ _______ _______ _____ _____    ______ ____
ROOT
ATOM      1  C   UNL     1      37.225   2.347  15.528  0.00  0.00    +0.000 C 
ATOM      2  C   UNL     1      37.516   2.229  14.267  0.00  0.00    +0.000 C 
ATOM      3  S   UNL     1      38.742   3.467  13.870  0.00  0.00    +0.000 S 
ATOM      4  C   UNL     1      38.687   4.306  15.488  0.00  0.00    +0.000 C 
ATOM      5  C   UNL     1      39.321   5.406  15.787  0.00  0.00    +0.000 C 
ATOM      6  C   UNL     1      37.819   3.437  16.254  0.00  0.00    +0.000 C 
ATOM      7  O   UNL     1      37.633   3.676  17.511  0.00  0.00    +0.000 OA
ENDROOT
BRANCH   5   8
ATOM      8  C   UNL     1      39.223   6.013  17.095  0.00  0.00    +0.000 A 
ATOM      9  C   UNL     1      38.215   6.872  17.433  0.00  0.00    +0.000 A 
ATOM     10  C   UNL     1      38.092   7.462  18.655  0.00  0.00    +0.000 A 
ATOM     11  C   UNL     1      39.030   7.192  19.629  0.00  0.00    +0.000 A 
ATOM     12  O   UNL     1      38.958   7.766  20.901  0.00  0.00    +0.000 OA
ATOM     13  C   UNL     1      40.055   6.332  19.317  0.00  0.00    +0.000 A 
ATOM     14  C   UNL     1      40.180   5.735  18.083  0.00  0.00    +0.000 A 
BRANCH  13  15
ATOM     15  O   UNL     1      40.987   6.079  20.326  0.00  0.00    +0.000 OA
BRANCH  15  16
ATOM     16  C   UNL     1      42.354   6.384  20.223  0.00  0.00    +0.000 C 
ATOM     17  C   UNL     1      42.554   7.830  20.579  0.00  0.00    +0.000 C 
ENDBRANCH  15  16
ENDBRANCH  13  15
ENDBRANCH   5   8
BRANCH   1  18
ATOM     18  C   UNL     1      36.266   1.422  16.191  0.00  0.00    +0.000 C 
ATOM     19  O   UNL     1      35.039   1.567  15.925  0.00  0.00    +0.000 OA
BRANCH  18  20
ATOM     20  O   UNL     1      36.665   0.432  17.067  0.00  0.00    +0.000 OA
BRANCH  20  22
ATOM     21  C   UNL     1      35.965  -0.578  19.174  0.00  0.00    +0.000 C 
ATOM     22  C   UNL     1      35.755  -0.459  17.679  0.00  0.00    +0.000 C 
ENDBRANCH  20  22
ENDBRANCH  18  20
ENDBRANCH   1  18
BRANCH   2  23
ATOM     23  N   UNL     1      37.058   1.308  13.282  0.00  0.00    +0.000 NA
BRANCH  23  24
ATOM     24  C   UNL     1      37.783   0.119  13.066  0.00  0.00    +0.000 A 
ATOM     25  C   UNL     1      37.704  -0.912  13.977  0.00  0.00    +0.000 A 
ATOM     26  C   UNL     1      38.425  -2.095  13.758  0.00  0.00    +0.000 A 
ATOM     27  C   UNL     1      39.214  -2.236  12.638  0.00  0.00    +0.000 A 
ATOM     28  C   UNL     1      39.296  -1.206  11.728  0.00  0.00    +0.000 A 
ATOM     29  C   UNL     1      40.092  -1.380  10.621  0.00  0.00    +0.000 A 
ATOM     30  C   UNL     1      40.163  -0.339   9.721  0.00  0.00    +0.000 A 
ATOM     31  C   UNL     1      39.451   0.834   9.931  0.00  0.00    +0.000 A 
ATOM     32  C   UNL     1      38.653   0.996  11.047  0.00  0.00    +0.000 A 
ATOM     33  C   UNL     1      38.573  -0.042  11.962  0.00  0.00    +0.000 A 
ENDBRANCH  23  24
ENDBRANCH   2  23
TORSDOF 8
ENDMDL
MODEL 8
REMARK VINA RESULT:      -7.0      3.568      5.550
REMARK  Name = 
REMARK  8 active torsions:
REMARK  status: ('A' for Active; 'I' for Inactive)
REMARK    1  A    between atoms: C_2  and  O_3
REMARK    2  A    between atoms: O_3  and  C_4
REMARK    3  A    between atoms: C_4  and  C_6
REMARK    4  A    between atoms: C_7  and  N_8
REMARK    5  A    between atoms: N_8  and  C_9
REMARK    6  A    between atoms: C_21  and  C_22
REMARK    7  A    between atoms: C_27  and  O_28
REMARK    8  A    between atoms: O_28  and  C_29
REMARK                            x       y       z     vdW  Elec       q    Type
REMARK                         _______ _______ _______ _____ _____    ______ ____
ROOT
ATOM      1  C   UNL     1      37.296   4.133  15.252  0.00  0.00    +0.000 C 
ATOM      2  C   UNL     1      36.674   3.041  15.586  0.00  0.00    +0.000 C 
ATOM      3  S   UNL     1      34.978   3.189  15.045  0.00  0.00    +0.000 S 
ATOM      4  C   UNL     1      35.105   4.929  14.514  0.00  0.00    +0.000 C 
ATOM      5  C   UNL     1      34.110   5.665  14.102  0.00  0.00    +0.000 C 
ATOM      6  C   UNL     1      36.521   5.193  14.665  0.00  0.00    +0.000 C 
ATOM      7  O   UNL     1      36.999   6.328  14.273  0.00  0.00    +0.000 OA
ENDROOT
BRANCH   5   8
ATOM      8  C   UNL     1      34.292   7.041  13.701  0.00  0.00    +0.000 A 
ATOM      9  C   UNL     1      34.140   8.086  14.569  0.00  0.00    +0.000 A 
ATOM     10  C   UNL     1      34.305   9.395  14.225  0.00  0.00    +0.000 A 
ATOM     11  C   UNL     1      34.645   9.711  12.927  0.00  0.00    +0.000 A 
ATOM     12  O   UNL     1      34.826  11.033  12.514  0.00  0.00    +0.000 OA
ATOM     13  C   UNL     1      34.803   8.680  12.031  0.00  0.00    +0.000 A 
ATOM     14  C   UNL     1      34.638   7.358  12.379  0.00  0.00    +0.000 A 
BRANCH  13  15
ATOM     15  O   UNL     1      35.148   9.035  10.726  0.00  0.00    +0.000 OA
BRANCH  15  16
ATOM     16  C   UNL     1      35.543   8.112   9.743  0.00  0.00    +0.000 C 
ATOM     17  C   UNL     1      34.470   8.036   8.693  0.00  0.00    +0.000 C 
ENDBRANCH  15  16
ENDBRANCH  13  15
ENDBRANCH   5   8
BRANCH   1  18
ATOM     18  C   UNL     1      38.750   4.307  15.516  0.00  0.00    +0.000 C 
ATOM     19  O   UNL     1      39.557   3.846  14.660  0.00  0.00    +0.000 OA
BRANCH  18  20
ATOM     20  O   UNL     1      39.234   4.944  16.641  0.00  0.00    +0.000 OA
BRANCH  20  22
ATOM     21  C   UNL     1      39.168   5.801  18.924  0.00  0.00    +0.000 C 
ATOM     22  C   UNL     1      38.640   4.802  17.916  0.00  0.00    +0.000 C 
ENDBRANCH  20  22
ENDBRANCH  18  20
ENDBRANCH   1  18
BRANCH   2  23
ATOM     23  N   UNL     1      37.140   1.856  16.224  0.00  0.00    +0.000 NA
BRANCH  23  24
ATOM     24  C   UNL     1      37.114   0.640  15.513  0.00  0.00    +0.000 A 
ATOM     25  C   UNL     1      37.939   0.459  14.425  0.00  0.00    +0.000 A 
ATOM     26  C   UNL     1      37.913  -0.755  13.720  0.00  0.00    +0.000 A 
ATOM     27  C   UNL     1      37.065  -1.769  14.108  0.00  0.00    +0.000 A 
ATOM     28  C   UNL     1      36.238  -1.589  15.192  0.00  0.00    +0.000 A 
ATOM     29  C   UNL     1      35.405  -2.622  15.551  0.00  0.00    +0.000 A 
ATOM     30  C   UNL     1      34.583  -2.425  16.640  0.00  0.00    +0.000 A 
ATOM     31  C   UNL     1      34.605  -1.228  17.342  0.00  0.00    +0.000 A 
ATOM     32  C   UNL     1      35.448  -0.197  16.973  0.00  0.00    +0.000 A 
ATOM     33  C   UNL     1      36.280  -0.380  15.879  0.00  0.00    +0.000 A 
ENDBRANCH  23  24
ENDBRANCH   2  23
TORSDOF 8
ENDMDL
MODEL 9
REMARK VINA RESULT:      -7.0      3.190      9.344
REMARK  Name = 
REMARK  8 active torsions:
REMARK  status: ('A' for Active; 'I' for Inactive)
REMARK    1  A    between atoms: C_2  and  O_3
REMARK    2  A    between atoms: O_3  and  C_4
REMARK    3  A    between atoms: C_4  and  C_6
REMARK    4  A    between atoms: C_7  and  N_8
REMARK    5  A    between atoms: N_8  and  C_9
REMARK    6  A    between atoms: C_21  and  C_22
REMARK    7  A    between atoms: C_27  and  O_28
REMARK    8  A    between atoms: O_28  and  C_29
REMARK                            x       y       z     vdW  Elec       q    Type
REMARK                         _______ _______ _______ _____ _____    ______ ____
ROOT
ATOM      1  C   UNL     1      37.536   4.976  15.576  0.00  0.00    +0.000 C 
ATOM      2  C   UNL     1      36.997   5.680  14.625  0.00  0.00    +0.000 C 
ATOM      3  S   UNL     1      35.579   4.782  14.015  0.00  0.00    +0.000 S 
ATOM      4  C   UNL     1      35.881   3.273  14.995  0.00  0.00    +0.000 C 
ATOM      5  C   UNL     1      35.202   2.164  14.898  0.00  0.00    +0.000 C 
ATOM      6  C   UNL     1      36.989   3.673  15.837  0.00  0.00    +0.000 C 
ATOM      7  O   UNL     1      37.411   2.864  16.754  0.00  0.00    +0.000 OA
ENDROOT
BRANCH   5   8
ATOM      8  C   UNL     1      35.507   1.008  15.709  0.00  0.00    +0.000 A 
ATOM      9  C   UNL     1      34.916   0.783  16.921  0.00  0.00    +0.000 A 
ATOM     10  C   UNL     1      35.180  -0.296  17.711  0.00  0.00    +0.000 A 
ATOM     11  C   UNL     1      36.097  -1.233  17.283  0.00  0.00    +0.000 A 
ATOM     12  O   UNL     1      36.410  -2.360  18.048  0.00  0.00    +0.000 OA
ATOM     13  C   UNL     1      36.707  -1.033  16.069  0.00  0.00    +0.000 A 
ATOM     14  C   UNL     1      36.440   0.057  15.270  0.00  0.00    +0.000 A 
BRANCH  13  15
ATOM     15  O   UNL     1      37.629  -2.001  15.665  0.00  0.00    +0.000 OA
BRANCH  15  16
ATOM     16  C   UNL     1      39.021  -1.852  15.780  0.00  0.00    +0.000 C 
ATOM     17  C   UNL     1      39.620  -3.182  16.145  0.00  0.00    +0.000 C 
ENDBRANCH  15  16
ENDBRANCH  13  15
ENDBRANCH   5   8
BRANCH   1  18
ATOM     18  C   UNL     1      38.716   5.474  16.333  0.00  0.00    +0.000 C 
ATOM     19  O   UNL     1      39.852   5.346  15.794  0.00  0.00    +0.000 OA
BRANCH  18  20
ATOM     20  O   UNL     1      38.613   6.060  17.580  0.00  0.00    +0.000 OA
BRANCH  20  22
ATOM     21  C   UNL     1      40.095   6.270  19.506  0.00  0.00    +0.000 C 
ATOM     22  C   UNL     1      39.076   5.435  18.759  0.00  0.00    +0.000 C 
ENDBRANCH  20  22
ENDBRANCH  18  20
ENDBRANCH   1  18
BRANCH   2  23
ATOM     23  N   UNL     1      37.338   6.959  14.098  0.00  0.00    +0.000 NA
BRANCH  23  24
ATOM     24  C   UNL     1      36.361   7.975  14.080  0.00  0.00    +0.000 A 
ATOM     25  C   UNL     1      35.935   8.543  15.260  0.00  0.00    +0.000 A 
ATOM     26  C   UNL     1      34.965   9.557  15.239  0.00  0.00    +0.000 A 
ATOM     27  C   UNL     1      34.432   9.988  14.045  0.00  0.00    +0.000 A 
ATOM     28  C   UNL     1      34.855   9.420  12.865  0.00  0.00    +0.000 A 
ATOM     29  C   UNL     1      34.302   9.875  11.691  0.00  0.00    +0.000 A 
ATOM     30  C   UNL     1      34.736   9.295  10.519  0.00  0.00    +0.000 A 
ATOM     31  C   UNL     1      35.697   8.293  10.533  0.00  0.00    +0.000 A 
ATOM     32  C   UNL     1      36.246   7.845  11.719  0.00  0.00    +0.000 A 
ATOM     33  C   UNL     1      35.818   8.418  12.906  0.00  0.00    +0.000 A 
ENDBRANCH  23  24
ENDBRANCH   2  23
TORSDOF 8
ENDMDL
MODEL 10
REMARK VINA RESULT:      -6.9      2.807      9.412
REMARK  Name = 
REMARK  8 active torsions:
REMARK  status: ('A' for Active; 'I' for Inactive)
REMARK    1  A    between atoms: C_2  and  O_3
REMARK    2  A    between atoms: O_3  and  C_4
REMARK    3  A    between atoms: C_4  and  C_6
REMARK    4  A    between atoms: C_7  and  N_8
REMARK    5  A    between atoms: N_8  and  C_9
REMARK    6  A    between atoms: C_21  and  C_22
REMARK    7  A    between atoms: C_27  and  O_28
REMARK    8  A    between atoms: O_28  and  C_29
REMARK                            x       y       z     vdW  Elec       q    Type
REMARK                         _______ _______ _______ _____ _____    ______ ____
ROOT
ATOM      1  C   UNL     1      37.525   4.981  15.639  0.00  0.00    +0.000 C 
ATOM      2  C   UNL     1      36.981   5.687  14.693  0.00  0.00    +0.000 C 
ATOM      3  S   UNL     1      35.574   4.779  14.072  0.00  0.00    +0.000 S 
ATOM      4  C   UNL     1      35.888   3.266  15.040  0.00  0.00    +0.000 C 
ATOM      5  C   UNL     1      35.220   2.151  14.933  0.00  0.00    +0.000 C 
ATOM      6  C   UNL     1      36.990   3.670  15.889  0.00  0.00    +0.000 C 
ATOM      7  O   UNL     1      37.417   2.859  16.801  0.00  0.00    +0.000 OA
ENDROOT
BRANCH   5   8
ATOM      8  C   UNL     1      35.535   0.992  15.737  0.00  0.00    +0.000 A 
ATOM      9  C   UNL     1      34.899   0.719  16.915  0.00  0.00    +0.000 A 
ATOM     10  C   UNL     1      35.169  -0.365  17.696  0.00  0.00    +0.000 A 
ATOM     11  C   UNL     1      36.143  -1.256  17.295  0.00  0.00    +0.000 A 
ATOM     12  O   UNL     1      36.466  -2.384  18.053  0.00  0.00    +0.000 OA
ATOM     13  C   UNL     1      36.800  -1.006  16.114  0.00  0.00    +0.000 A 
ATOM     14  C   UNL     1      36.526   0.088  15.324  0.00  0.00    +0.000 A 
BRANCH  13  15
ATOM     15  O   UNL     1      37.778  -1.928  15.737  0.00  0.00    +0.000 OA
BRANCH  15  16
ATOM     16  C   UNL     1      39.134  -1.605  15.567  0.00  0.00    +0.000 C 
ATOM     17  C   UNL     1      39.947  -2.866  15.669  0.00  0.00    +0.000 C 
ENDBRANCH  15  16
ENDBRANCH  13  15
ENDBRANCH   5   8
BRANCH   1  18
ATOM     18  C   UNL     1      38.698   5.485  16.404  0.00  0.00    +0.000 C 
ATOM     19  O   UNL     1      39.836   5.376  15.865  0.00  0.00    +0.000 OA
BRANCH  18  20
ATOM     20  O   UNL     1      38.586   6.056  17.656  0.00  0.00    +0.000 OA
BRANCH  20  22
ATOM     21  C   UNL     1      39.882   6.471  19.680  0.00  0.00    +0.000 C 
ATOM     22  C   UNL     1      39.143   5.472  18.816  0.00  0.00    +0.000 C 
ENDBRANCH  20  22
ENDBRANCH  18  20
ENDBRANCH   1  18
BRANCH   2  23
ATOM     23  N   UNL     1      37.311   6.973  14.176  0.00  0.00    +0.000 NA
BRANCH  23  24
ATOM     24  C   UNL     1      36.305   7.956  14.093  0.00  0.00    +0.000 A 
ATOM     25  C   UNL     1      35.537   8.064  12.954  0.00  0.00    +0.000 A 
ATOM     26  C   UNL     1      34.535   9.043  12.876  0.00  0.00    +0.000 A 
ATOM     27  C   UNL     1      34.311   9.899  13.930  0.00  0.00    +0.000 A 
ATOM     28  C   UNL     1      35.078   9.795  15.068  0.00  0.00    +0.000 A 
ATOM     29  C   UNL     1      34.828  10.666  16.102  0.00  0.00    +0.000 A 
ATOM     30  C   UNL     1      35.605  10.548  17.234  0.00  0.00    +0.000 A 
ATOM     31  C   UNL     1      36.597   9.581  17.318  0.00  0.00    +0.000 A 
ATOM     32  C   UNL     1      36.839   8.710  16.273  0.00  0.00    +0.000 A 
ATOM     33  C   UNL     1      36.066   8.818  15.128  0.00  0.00    +0.000 A 
ENDBRANCH  23  24
ENDBRANCH   2  23
TORSDOF 8
ENDMDL
