MODEL 1
REMARK VINA RESULT:      -6.4      0.000      0.000
REMARK  Name = 
REMARK  6 active torsions:
REMARK  status: ('A' for Active; 'I' for Inactive)
REMARK    1  A    between atoms: C_2  and  C_3
REMARK    2  A    between atoms: C_2  and  N_13
REMARK    3  A    between atoms: C_3  and  C_4
REMARK    4  A    between atoms: C_14  and  O_16
REMARK    5  A    between atoms: O_16  and  C_17
REMARK    6  A    between atoms: C_17  and  C_18
REMARK                            x       y       z     vdW  Elec       q    Type
REMARK                         _______ _______ _______ _____ _____    ______ ____
ROOT
ATOM      1  C   UNL     1      15.671  11.073  35.137  0.00  0.00    +0.000 C 
ENDROOT
BRANCH   1   2
ATOM      2  C   UNL     1      15.661  11.305  33.669  0.00  0.00    +0.000 A 
ATOM      3  C   UNL     1      16.369  10.546  32.718  0.00  0.00    +0.000 A 
ATOM      4  N   UNL     1      16.143  11.042  31.487  0.00  0.00    +0.000 NA
ATOM      5  C   UNL     1      15.301  12.113  31.602  0.00  0.00    +0.000 A 
ATOM      6  C   UNL     1      14.773  12.982  30.681  0.00  0.00    +0.000 A 
ATOM      7  C   UNL     1      13.941  14.024  31.052  0.00  0.00    +0.000 A 
ATOM      8  C   UNL     1      13.638  14.188  32.408  0.00  0.00    +0.000 A 
ATOM      9  C   UNL     1      14.176  13.307  33.334  0.00  0.00    +0.000 A 
ATOM     10  C   UNL     1      15.006  12.270  32.962  0.00  0.00    +0.000 A 
ENDBRANCH   1   2
BRANCH   1  12
ATOM     11  C   UNL     1      16.258  13.012  36.447  0.00  0.00    +0.000 C 
ATOM     12  C   UNL     1      17.072  11.789  35.638  0.00  0.00    +0.000 C 
BRANCH  12  13
ATOM     13  N   UNL     1      17.242  10.922  36.936  0.00  0.00    +0.000 NA
ATOM     14  C   UNL     1      18.117   9.869  36.995  0.00  0.00    +0.000 C 
ATOM     15  O   UNL     1      18.816   9.596  35.986  0.00  0.00    +0.000 OA
BRANCH  14  16
ATOM     16  O   UNL     1      18.241   9.097  38.150  0.00  0.00    +0.000 OA
BRANCH  16  17
ATOM     17  C   UNL     1      17.546   9.647  39.288  0.00  0.00    +0.000 C 
BRANCH  17  18
ATOM     18  C   UNL     1      17.515   8.703  40.446  0.00  0.00    +0.000 C 
ATOM     19 CL   UNL     1      16.630   9.317  41.868  0.00  0.00    +0.000 Cl
ENDBRANCH  17  18
ENDBRANCH  16  17
ENDBRANCH  14  16
ENDBRANCH  12  13
ENDBRANCH   1  12
TORSDOF 6
ENDMDL
MODEL 2
REMARK VINA RESULT:      -6.3      2.508      3.184
REMARK  Name = 
REMARK  6 active torsions:
REMARK  status: ('A' for Active; 'I' for Inactive)
REMARK    1  A    between atoms: C_2  and  C_3
REMARK    2  A    between atoms: C_2  and  N_13
REMARK    3  A    between atoms: C_3  and  C_4
REMARK    4  A    between atoms: C_14  and  O_16
REMARK    5  A    between atoms: O_16  and  C_17
REMARK    6  A    between atoms: C_17  and  C_18
REMARK                            x       y       z     vdW  Elec       q    Type
REMARK                         _______ _______ _______ _____ _____    ______ ____
ROOT
ATOM      1  C   UNL     1      17.107  10.710  34.215  0.00  0.00    +0.000 C 
ENDROOT
BRANCH   1   2
ATOM      2  C   UNL     1      15.998  11.688  34.061  0.00  0.00    +0.000 A 
ATOM      3  C   UNL     1      15.248  12.245  35.115  0.00  0.00    +0.000 A 
ATOM      4  N   UNL     1      14.318  13.078  34.616  0.00  0.00    +0.000 NA
ATOM      5  C   UNL     1      14.433  13.086  33.254  0.00  0.00    +0.000 A 
ATOM      6  C   UNL     1      13.735  13.734  32.266  0.00  0.00    +0.000 A 
ATOM      7  C   UNL     1      14.034  13.562  30.925  0.00  0.00    +0.000 A 
ATOM      8  C   UNL     1      15.081  12.700  30.580  0.00  0.00    +0.000 A 
ATOM      9  C   UNL     1      15.782  12.048  31.582  0.00  0.00    +0.000 A 
ATOM     10  C   UNL     1      15.480  12.219  32.917  0.00  0.00    +0.000 A 
ENDBRANCH   1   2
BRANCH   1  12
ATOM     11  C   UNL     1      17.738   8.669  35.334  0.00  0.00    +0.000 C 
ATOM     12  C   UNL     1      16.830  10.032  35.694  0.00  0.00    +0.000 C 
BRANCH  12  13
ATOM     13  N   UNL     1      18.023  10.743  36.425  0.00  0.00    +0.000 NA
ATOM     14  C   UNL     1      18.119  10.779  37.791  0.00  0.00    +0.000 C 
ATOM     15  O   UNL     1      17.234  10.213  38.483  0.00  0.00    +0.000 OA
BRANCH  14  16
ATOM     16  O   UNL     1      19.177  11.433  38.424  0.00  0.00    +0.000 OA
BRANCH  16  17
ATOM     17  C   UNL     1      20.346  10.606  38.593  0.00  0.00    +0.000 C 
BRANCH  17  18
ATOM     18  C   UNL     1      21.460  11.004  37.678  0.00  0.00    +0.000 C 
ATOM     19 CL   UNL     1      21.836   9.799  36.418  0.00  0.00    +0.000 Cl
ENDBRANCH  17  18
ENDBRANCH  16  17
ENDBRANCH  14  16
ENDBRANCH  12  13
ENDBRANCH   1  12
TORSDOF 6
ENDMDL
MODEL 3
REMARK VINA RESULT:      -6.1      1.458      2.125
REMARK  Name = 
REMARK  6 active torsions:
REMARK  status: ('A' for Active; 'I' for Inactive)
REMARK    1  A    between atoms: C_2  and  C_3
REMARK    2  A    between atoms: C_2  and  N_13
REMARK    3  A    between atoms: C_3  and  C_4
REMARK    4  A    between atoms: C_14  and  O_16
REMARK    5  A    between atoms: O_16  and  C_17
REMARK    6  A    between atoms: C_17  and  C_18
REMARK                            x       y       z     vdW  Elec       q    Type
REMARK                         _______ _______ _______ _____ _____    ______ ____
ROOT
ATOM      1  C   UNL     1      14.878  11.745  35.766  0.00  0.00    +0.000 C 
ENDROOT
BRANCH   1   2
ATOM      2  C   UNL     1      14.448  12.633  34.654  0.00  0.00    +0.000 A 
ATOM      3  C   UNL     1      13.780  13.864  34.804  0.00  0.00    +0.000 A 
ATOM      4  N   UNL     1      13.531  14.392  33.592  0.00  0.00    +0.000 NA
ATOM      5  C   UNL     1      14.018  13.538  32.642  0.00  0.00    +0.000 A 
ATOM      6  C   UNL     1      14.016  13.577  31.271  0.00  0.00    +0.000 A 
ATOM      7  C   UNL     1      14.567  12.560  30.509  0.00  0.00    +0.000 A 
ATOM      8  C   UNL     1      15.140  11.468  31.169  0.00  0.00    +0.000 A 
ATOM      9  C   UNL     1      15.139  11.434  32.555  0.00  0.00    +0.000 A 
ATOM     10  C   UNL     1      14.587  12.448  33.311  0.00  0.00    +0.000 A 
ENDBRANCH   1   2
BRANCH   1  12
ATOM     11  C   UNL     1      16.719  12.937  36.770  0.00  0.00    +0.000 C 
ATOM     12  C   UNL     1      16.524  11.720  35.633  0.00  0.00    +0.000 C 
BRANCH  12  13
ATOM     13  N   UNL     1      16.754  10.578  36.685  0.00  0.00    +0.000 NA
ATOM     14  C   UNL     1      17.932   9.882  36.754  0.00  0.00    +0.000 C 
ATOM     15  O   UNL     1      18.864  10.174  35.962  0.00  0.00    +0.000 OA
BRANCH  14  16
ATOM     16  O   UNL     1      18.112   8.856  37.682  0.00  0.00    +0.000 OA
BRANCH  16  17
ATOM     17  C   UNL     1      19.074   9.171  38.710  0.00  0.00    +0.000 C 
BRANCH  17  18
ATOM     18  C   UNL     1      18.462   9.919  39.851  0.00  0.00    +0.000 C 
ATOM     19 CL   UNL     1      16.782   9.443  40.219  0.00  0.00    +0.000 Cl
ENDBRANCH  17  18
ENDBRANCH  16  17
ENDBRANCH  14  16
ENDBRANCH  12  13
ENDBRANCH   1  12
TORSDOF 6
ENDMDL
MODEL 4
REMARK VINA RESULT:      -5.7      3.478      4.727
REMARK  Name = 
REMARK  6 active torsions:
REMARK  status: ('A' for Active; 'I' for Inactive)
REMARK    1  A    between atoms: C_2  and  C_3
REMARK    2  A    between atoms: C_2  and  N_13
REMARK    3  A    between atoms: C_3  and  C_4
REMARK    4  A    between atoms: C_14  and  O_16
REMARK    5  A    between atoms: O_16  and  C_17
REMARK    6  A    between atoms: C_17  and  C_18
REMARK                            x       y       z     vdW  Elec       q    Type
REMARK                         _______ _______ _______ _____ _____    ______ ____
ROOT
ATOM      1  C   UNL     1      17.929   9.522  36.500  0.00  0.00    +0.000 C 
ENDROOT
BRANCH   1   2
ATOM      2  C   UNL     1      16.888  10.458  36.000  0.00  0.00    +0.000 A 
ATOM      3  C   UNL     1      16.017  11.216  36.805  0.00  0.00    +0.000 A 
ATOM      4  N   UNL     1      15.196  11.941  36.023  0.00  0.00    +0.000 NA
ATOM      5  C   UNL     1      15.503  11.679  34.717  0.00  0.00    +0.000 A 
ATOM      6  C   UNL     1      14.975  12.123  33.531  0.00  0.00    +0.000 A 
ATOM      7  C   UNL     1      15.454  11.689  32.308  0.00  0.00    +0.000 A 
ATOM      8  C   UNL     1      16.508  10.769  32.292  0.00  0.00    +0.000 A 
ATOM      9  C   UNL     1      17.037  10.322  33.493  0.00  0.00    +0.000 A 
ATOM     10  C   UNL     1      16.556  10.756  34.711  0.00  0.00    +0.000 A 
ENDBRANCH   1   2
BRANCH   1  12
ATOM     11  C   UNL     1      18.359   9.334  38.866  0.00  0.00    +0.000 C 
ATOM     12  C   UNL     1      18.738  10.407  37.635  0.00  0.00    +0.000 C 
BRANCH  12  13
ATOM     13  N   UNL     1      20.143   9.755  37.378  0.00  0.00    +0.000 NA
ATOM     14  C   UNL     1      21.308  10.463  37.517  0.00  0.00    +0.000 C 
ATOM     15  O   UNL     1      21.254  11.667  37.876  0.00  0.00    +0.000 OA
BRANCH  14  16
ATOM     16  O   UNL     1      22.547   9.872  37.265  0.00  0.00    +0.000 OA
BRANCH  16  17
ATOM     17  C   UNL     1      23.102  10.225  35.982  0.00  0.00    +0.000 C 
BRANCH  17  18
ATOM     18  C   UNL     1      24.501  10.741  36.091  0.00  0.00    +0.000 C 
ATOM     19 CL   UNL     1      24.699  12.076  37.258  0.00  0.00    +0.000 Cl
ENDBRANCH  17  18
ENDBRANCH  16  17
ENDBRANCH  14  16
ENDBRANCH  12  13
ENDBRANCH   1  12
TORSDOF 6
ENDMDL
MODEL 5
REMARK VINA RESULT:      -5.7     27.887     30.210
REMARK  Name = 
REMARK  6 active torsions:
REMARK  status: ('A' for Active; 'I' for Inactive)
REMARK    1  A    between atoms: C_2  and  C_3
REMARK    2  A    between atoms: C_2  and  N_13
REMARK    3  A    between atoms: C_3  and  C_4
REMARK    4  A    between atoms: C_14  and  O_16
REMARK    5  A    between atoms: O_16  and  C_17
REMARK    6  A    between atoms: C_17  and  C_18
REMARK                            x       y       z     vdW  Elec       q    Type
REMARK                         _______ _______ _______ _____ _____    ______ ____
ROOT
ATOM      1  C   UNL     1      30.456  22.222  10.231  0.00  0.00    +0.000 C 
ENDROOT
BRANCH   1   2
ATOM      2  C   UNL     1      29.772  22.667  11.473  0.00  0.00    +0.000 A 
ATOM      3  C   UNL     1      30.408  23.206  12.608  0.00  0.00    +0.000 A 
ATOM      4  N   UNL     1      29.489  23.485  13.550  0.00  0.00    +0.000 NA
ATOM      5  C   UNL     1      28.257  23.142  13.065  0.00  0.00    +0.000 A 
ATOM      6  C   UNL     1      26.998  23.197  13.607  0.00  0.00    +0.000 A 
ATOM      7  C   UNL     1      25.882  22.764  12.910  0.00  0.00    +0.000 A 
ATOM      8  C   UNL     1      26.057  22.257  11.618  0.00  0.00    +0.000 A 
ATOM      9  C   UNL     1      27.332  22.204  11.076  0.00  0.00    +0.000 A 
ATOM     10  C   UNL     1      28.442  22.635  11.773  0.00  0.00    +0.000 A 
ENDBRANCH   1   2
BRANCH   1  12
ATOM     11  C   UNL     1      30.127  20.251   8.879  0.00  0.00    +0.000 C 
ATOM     12  C   UNL     1      30.632  20.594  10.441  0.00  0.00    +0.000 C 
BRANCH  12  13
ATOM     13  N   UNL     1      32.153  20.543  10.057  0.00  0.00    +0.000 NA
ATOM     14  C   UNL     1      33.141  20.541  11.006  0.00  0.00    +0.000 C 
ATOM     15  O   UNL     1      32.823  20.566  12.223  0.00  0.00    +0.000 OA
BRANCH  14  16
ATOM     16  O   UNL     1      34.489  20.516  10.646  0.00  0.00    +0.000 OA
BRANCH  16  17
ATOM     17  C   UNL     1      34.889  21.641   9.836  0.00  0.00    +0.000 C 
BRANCH  17  18
ATOM     18  C   UNL     1      34.561  22.950  10.480  0.00  0.00    +0.000 C 
ATOM     19 CL   UNL     1      35.811  24.204  10.266  0.00  0.00    +0.000 Cl
ENDBRANCH  17  18
ENDBRANCH  16  17
ENDBRANCH  14  16
ENDBRANCH  12  13
ENDBRANCH   1  12
TORSDOF 6
ENDMDL
MODEL 6
REMARK VINA RESULT:      -5.5     21.802     23.804
REMARK  Name = 
REMARK  6 active torsions:
REMARK  status: ('A' for Active; 'I' for Inactive)
REMARK    1  A    between atoms: C_2  and  C_3
REMARK    2  A    between atoms: C_2  and  N_13
REMARK    3  A    between atoms: C_3  and  C_4
REMARK    4  A    between atoms: C_14  and  O_16
REMARK    5  A    between atoms: O_16  and  C_17
REMARK    6  A    between atoms: C_17  and  C_18
REMARK                            x       y       z     vdW  Elec       q    Type
REMARK                         _______ _______ _______ _____ _____    ______ ____
ROOT
ATOM      1  C   UNL     1      28.810  23.678  21.990  0.00  0.00    +0.000 C 
ENDROOT
BRANCH   1   2
ATOM      2  C   UNL     1      28.124  23.381  23.275  0.00  0.00    +0.000 A 
ATOM      3  C   UNL     1      26.740  23.500  23.509  0.00  0.00    +0.000 A 
ATOM      4  N   UNL     1      26.468  23.166  24.784  0.00  0.00    +0.000 NA
ATOM      5  C   UNL     1      27.641  22.828  25.400  0.00  0.00    +0.000 A 
ATOM      6  C   UNL     1      27.937  22.435  26.681  0.00  0.00    +0.000 A 
ATOM      7  C   UNL     1      29.233  22.160  27.081  0.00  0.00    +0.000 A 
ATOM      8  C   UNL     1      30.263  22.291  26.143  0.00  0.00    +0.000 A 
ATOM      9  C   UNL     1      29.958  22.689  24.851  0.00  0.00    +0.000 A 
ATOM     10  C   UNL     1      28.665  22.964  24.456  0.00  0.00    +0.000 A 
ENDBRANCH   1   2
BRANCH   1  12
ATOM     11  C   UNL     1      29.724  25.733  22.862  0.00  0.00    +0.000 C 
ATOM     12  C   UNL     1      28.537  25.290  21.763  0.00  0.00    +0.000 C 
BRANCH  12  13
ATOM     13  N   UNL     1      29.496  25.444  20.529  0.00  0.00    +0.000 NA
ATOM     14  C   UNL     1      29.661  26.642  19.885  0.00  0.00    +0.000 C 
ATOM     15  O   UNL     1      29.038  27.653  20.300  0.00  0.00    +0.000 OA
BRANCH  14  16
ATOM     16  O   UNL     1      30.502  26.756  18.777  0.00  0.00    +0.000 OA
BRANCH  16  17
ATOM     17  C   UNL     1      30.353  28.003  18.067  0.00  0.00    +0.000 C 
BRANCH  17  18
ATOM     18  C   UNL     1      29.366  27.904  16.948  0.00  0.00    +0.000 C 
ATOM     19 CL   UNL     1      30.101  27.925  15.322  0.00  0.00    +0.000 Cl
ENDBRANCH  17  18
ENDBRANCH  16  17
ENDBRANCH  14  16
ENDBRANCH  12  13
ENDBRANCH   1  12
TORSDOF 6
ENDMDL
MODEL 7
REMARK VINA RESULT:      -5.4      3.414      4.602
REMARK  Name = 
REMARK  6 active torsions:
REMARK  status: ('A' for Active; 'I' for Inactive)
REMARK    1  A    between atoms: C_2  and  C_3
REMARK    2  A    between atoms: C_2  and  N_13
REMARK    3  A    between atoms: C_3  and  C_4
REMARK    4  A    between atoms: C_14  and  O_16
REMARK    5  A    between atoms: O_16  and  C_17
REMARK    6  A    between atoms: C_17  and  C_18
REMARK                            x       y       z     vdW  Elec       q    Type
REMARK                         _______ _______ _______ _____ _____    ______ ____
ROOT
ATOM      1  C   UNL     1      17.660  11.267  36.959  0.00  0.00    +0.000 C 
ENDROOT
BRANCH   1   2
ATOM      2  C   UNL     1      16.227  11.392  37.332  0.00  0.00    +0.000 A 
ATOM      3  C   UNL     1      15.612  10.765  38.433  0.00  0.00    +0.000 A 
ATOM      4  N   UNL     1      14.305  11.085  38.462  0.00  0.00    +0.000 NA
ATOM      5  C   UNL     1      14.040  11.909  37.404  0.00  0.00    +0.000 A 
ATOM      6  C   UNL     1      12.888  12.504  36.957  0.00  0.00    +0.000 A 
ATOM      7  C   UNL     1      12.867  13.299  35.823  0.00  0.00    +0.000 A 
ATOM      8  C   UNL     1      14.062  13.492  35.121  0.00  0.00    +0.000 A 
ATOM      9  C   UNL     1      15.223  12.888  35.578  0.00  0.00    +0.000 A 
ATOM     10  C   UNL     1      15.240  12.095  36.707  0.00  0.00    +0.000 A 
ENDBRANCH   1   2
BRANCH   1  12
ATOM     11  C   UNL     1      17.871   9.527  35.301  0.00  0.00    +0.000 C 
ATOM     12  C   UNL     1      17.929   9.638  36.973  0.00  0.00    +0.000 C 
BRANCH  12  13
ATOM     13  N   UNL     1      19.496   9.732  37.003  0.00  0.00    +0.000 NA
ATOM     14  C   UNL     1      20.203   9.697  38.176  0.00  0.00    +0.000 C 
ATOM     15  O   UNL     1      19.582   9.571  39.262  0.00  0.00    +0.000 OA
BRANCH  14  16
ATOM     16  O   UNL     1      21.594   9.802  38.184  0.00  0.00    +0.000 OA
BRANCH  16  17
ATOM     17  C   UNL     1      22.086  10.985  37.522  0.00  0.00    +0.000 C 
BRANCH  17  18
ATOM     18  C   UNL     1      22.047  12.189  38.407  0.00  0.00    +0.000 C 
ATOM     19 CL   UNL     1      20.577  13.183  38.224  0.00  0.00    +0.000 Cl
ENDBRANCH  17  18
ENDBRANCH  16  17
ENDBRANCH  14  16
ENDBRANCH  12  13
ENDBRANCH   1  12
TORSDOF 6
ENDMDL
MODEL 8
REMARK VINA RESULT:      -5.4     20.577     22.286
REMARK  Name = 
REMARK  6 active torsions:
REMARK  status: ('A' for Active; 'I' for Inactive)
REMARK    1  A    between atoms: C_2  and  C_3
REMARK    2  A    between atoms: C_2  and  N_13
REMARK    3  A    between atoms: C_3  and  C_4
REMARK    4  A    between atoms: C_14  and  O_16
REMARK    5  A    between atoms: O_16  and  C_17
REMARK    6  A    between atoms: C_17  and  C_18
REMARK                            x       y       z     vdW  Elec       q    Type
REMARK                         _______ _______ _______ _____ _____    ______ ____
ROOT
ATOM      1  C   UNL     1      17.081  -9.434  27.317  0.00  0.00    +0.000 C 
ENDROOT
BRANCH   1   2
ATOM      2  C   UNL     1      17.648  -8.100  26.984  0.00  0.00    +0.000 A 
ATOM      3  C   UNL     1      16.998  -6.866  27.174  0.00  0.00    +0.000 A 
ATOM      4  N   UNL     1      17.794  -5.867  26.750  0.00  0.00    +0.000 NA
ATOM      5  C   UNL     1      18.957  -6.412  26.283  0.00  0.00    +0.000 A 
ATOM      6  C   UNL     1      20.083  -5.861  25.727  0.00  0.00    +0.000 A 
ATOM      7  C   UNL     1      21.147  -6.640  25.304  0.00  0.00    +0.000 A 
ATOM      8  C   UNL     1      21.059  -8.028  25.451  0.00  0.00    +0.000 A 
ATOM      9  C   UNL     1      19.917  -8.579  26.012  0.00  0.00    +0.000 A 
ATOM     10  C   UNL     1      18.858  -7.801  26.432  0.00  0.00    +0.000 A 
ENDBRANCH   1   2
BRANCH   1  12
ATOM     11  C   UNL     1      16.073 -11.469  26.505  0.00  0.00    +0.000 C 
ATOM     12  C   UNL     1      16.429  -9.950  25.891  0.00  0.00    +0.000 C 
BRANCH  12  13
ATOM     13  N   UNL     1      14.984  -9.402  26.165  0.00  0.00    +0.000 NA
ATOM     14  C   UNL     1      14.344  -8.572  25.283  0.00  0.00    +0.000 C 
ATOM     15  O   UNL     1      14.923  -8.249  24.214  0.00  0.00    +0.000 OA
BRANCH  14  16
ATOM     16  O   UNL     1      13.067  -8.078  25.552  0.00  0.00    +0.000 OA
BRANCH  16  17
ATOM     17  C   UNL     1      12.080  -9.111  25.751  0.00  0.00    +0.000 C 
BRANCH  17  18
ATOM     18  C   UNL     1      11.400  -8.999  27.078  0.00  0.00    +0.000 C 
ATOM     19 CL   UNL     1       9.644  -9.311  27.028  0.00  0.00    +0.000 Cl
ENDBRANCH  17  18
ENDBRANCH  16  17
ENDBRANCH  14  16
ENDBRANCH  12  13
ENDBRANCH   1  12
TORSDOF 6
ENDMDL
MODEL 9
REMARK VINA RESULT:      -5.3     17.728     19.107
REMARK  Name = 
REMARK  6 active torsions:
REMARK  status: ('A' for Active; 'I' for Inactive)
REMARK    1  A    between atoms: C_2  and  C_3
REMARK    2  A    between atoms: C_2  and  N_13
REMARK    3  A    between atoms: C_3  and  C_4
REMARK    4  A    between atoms: C_14  and  O_16
REMARK    5  A    between atoms: O_16  and  C_17
REMARK    6  A    between atoms: C_17  and  C_18
REMARK                            x       y       z     vdW  Elec       q    Type
REMARK                         _______ _______ _______ _____ _____    ______ ____
ROOT
ATOM      1  C   UNL     1      25.526  23.955  24.763  0.00  0.00    +0.000 C 
ENDROOT
BRANCH   1   2
ATOM      2  C   UNL     1      26.900  23.656  24.281  0.00  0.00    +0.000 A 
ATOM      3  C   UNL     1      27.359  23.832  22.962  0.00  0.00    +0.000 A 
ATOM      4  N   UNL     1      28.645  23.449  22.877  0.00  0.00    +0.000 NA
ATOM      5  C   UNL     1      29.050  23.021  24.111  0.00  0.00    +0.000 A 
ATOM      6  C   UNL     1      30.237  22.515  24.576  0.00  0.00    +0.000 A 
ATOM      7  C   UNL     1      30.401  22.126  25.894  0.00  0.00    +0.000 A 
ATOM      8  C   UNL     1      29.317  22.257  26.769  0.00  0.00    +0.000 A 
ATOM      9  C   UNL     1      28.119  22.768  26.293  0.00  0.00    +0.000 A 
ATOM     10  C   UNL     1      27.958  23.154  24.978  0.00  0.00    +0.000 A 
ENDBRANCH   1   2
BRANCH   1  12
ATOM     11  C   UNL     1      24.197  25.903  25.271  0.00  0.00    +0.000 C 
ATOM     12  C   UNL     1      25.717  25.321  25.671  0.00  0.00    +0.000 C 
BRANCH  12  13
ATOM     13  N   UNL     1      25.219  24.690  27.020  0.00  0.00    +0.000 NA
ATOM     14  C   UNL     1      25.879  24.892  28.203  0.00  0.00    +0.000 C 
ATOM     15  O   UNL     1      26.908  25.616  28.215  0.00  0.00    +0.000 OA
BRANCH  14  16
ATOM     16  O   UNL     1      25.433  24.307  29.389  0.00  0.00    +0.000 OA
BRANCH  16  17
ATOM     17  C   UNL     1      26.464  24.178  30.390  0.00  0.00    +0.000 C 
BRANCH  17  18
ATOM     18  C   UNL     1      27.196  22.879  30.287  0.00  0.00    +0.000 C 
ATOM     19 CL   UNL     1      26.187  21.443  30.608  0.00  0.00    +0.000 Cl
ENDBRANCH  17  18
ENDBRANCH  16  17
ENDBRANCH  14  16
ENDBRANCH  12  13
ENDBRANCH   1  12
TORSDOF 6
ENDMDL
MODEL 10
REMARK VINA RESULT:      -5.2     21.699     23.406
REMARK  Name = 
REMARK  6 active torsions:
REMARK  status: ('A' for Active; 'I' for Inactive)
REMARK    1  A    between atoms: C_2  and  C_3
REMARK    2  A    between atoms: C_2  and  N_13
REMARK    3  A    between atoms: C_3  and  C_4
REMARK    4  A    between atoms: C_14  and  O_16
REMARK    5  A    between atoms: O_16  and  C_17
REMARK    6  A    between atoms: C_17  and  C_18
REMARK                            x       y       z     vdW  Elec       q    Type
REMARK                         _______ _______ _______ _____ _____    ______ ____
ROOT
ATOM      1  C   UNL     1      22.524  -7.093  24.557  0.00  0.00    +0.000 C 
ENDROOT
BRANCH   1   2
ATOM      2  C   UNL     1      21.398  -7.621  25.371  0.00  0.00    +0.000 A 
ATOM      3  C   UNL     1      21.220  -8.967  25.745  0.00  0.00    +0.000 A 
ATOM      4  N   UNL     1      20.090  -9.089  26.465  0.00  0.00    +0.000 NA
ATOM      5  C   UNL     1      19.513  -7.855  26.575  0.00  0.00    +0.000 A 
ATOM      6  C   UNL     1      18.360  -7.419  27.176  0.00  0.00    +0.000 A 
ATOM      7  C   UNL     1      17.970  -6.091  27.135  0.00  0.00    +0.000 A 
ATOM      8  C   UNL     1      18.783  -5.177  26.458  0.00  0.00    +0.000 A 
ATOM      9  C   UNL     1      19.947  -5.623  25.852  0.00  0.00    +0.000 A 
ATOM     10  C   UNL     1      20.333  -6.947  25.893  0.00  0.00    +0.000 A 
ENDBRANCH   1   2
BRANCH   1  12
ATOM     11  C   UNL     1      22.778  -7.599  22.212  0.00  0.00    +0.000 C 
ATOM     12  C   UNL     1      23.010  -8.397  23.669  0.00  0.00    +0.000 C 
BRANCH  12  13
ATOM     13  N   UNL     1      24.543  -8.060  23.711  0.00  0.00    +0.000 NA
ATOM     14  C   UNL     1      25.500  -9.040  23.742  0.00  0.00    +0.000 C 
ATOM     15  O   UNL     1      25.144 -10.246  23.721  0.00  0.00    +0.000 OA
BRANCH  14  16
ATOM     16  O   UNL     1      26.858  -8.722  23.800  0.00  0.00    +0.000 OA
BRANCH  16  17
ATOM     17  C   UNL     1      27.656  -9.431  22.831  0.00  0.00    +0.000 C 
BRANCH  17  18
ATOM     18  C   UNL     1      27.915  -8.617  21.603  0.00  0.00    +0.000 C 
ATOM     19 CL   UNL     1      28.250  -6.895  21.926  0.00  0.00    +0.000 Cl
ENDBRANCH  17  18
ENDBRANCH  16  17
ENDBRANCH  14  16
ENDBRANCH  12  13
ENDBRANCH   1  12
TORSDOF 6
ENDMDL
