MODEL 1
REMARK VINA RESULT:      -7.3      0.000      0.000
REMARK  Name = 
REMARK  3 active torsions:
REMARK  status: ('A' for Active; 'I' for Inactive)
REMARK    1  A    between atoms: C_2  and  C_3
REMARK    2  A    between atoms: C_4  and  N_5
REMARK    3  A    between atoms: C_6  and  C_7
REMARK                            x       y       z     vdW  Elec       q    Type
REMARK                         _______ _______ _______ _____ _____    ______ ____
ROOT
ATOM      1  C   UNL     1      14.968  12.187  34.489  0.00  0.00    +0.000 A 
ATOM      2  C   UNL     1      15.978  11.338  34.808  0.00  0.00    +0.000 A 
ATOM      3  S   UNL     1      16.746  11.047  33.315  0.00  0.00    +0.000 S 
ATOM      4  C   UNL     1      15.766  12.011  32.318  0.00  0.00    +0.000 A 
ATOM      5  C   UNL     1      14.849  12.546  33.183  0.00  0.00    +0.000 A 
ATOM      6  C   UNL     1      13.781  13.490  32.621  0.00  0.00    +0.000 C 
ATOM      7  C   UNL     1      14.371  14.120  31.416  0.00  0.00    +0.000 C 
ATOM      8  C   UNL     1      14.585  12.993  30.394  0.00  0.00    +0.000 C 
ATOM      9  C   UNL     1      15.822  12.269  30.851  0.00  0.00    +0.000 C 
ENDROOT
BRANCH   1  11
ATOM     10  N   UNL     1      13.346  13.028  36.420  0.00  0.00    +0.000 NA
ATOM     11  C   UNL     1      14.076  12.660  35.568  0.00  0.00    +0.000 C 
ENDBRANCH   1  11
BRANCH   2  12
ATOM     12  N   UNL     1      16.345  10.789  36.102  0.00  0.00    +0.000 NA
ATOM     13  C   UNL     1      17.370  11.183  36.733  0.00  0.00    +0.000 C 
BRANCH  13  14
ATOM     14  C   UNL     1      17.798  10.680  38.030  0.00  0.00    +0.000 A 
ATOM     15  C   UNL     1      19.079  10.850  38.500  0.00  0.00    +0.000 A 
ATOM     16  C   UNL     1      19.473  10.362  39.747  0.00  0.00    +0.000 A 
ATOM     17  C   UNL     1      18.575   9.688  40.547  0.00  0.00    +0.000 A 
ATOM     18  C   UNL     1      17.291   9.516  40.078  0.00  0.00    +0.000 A 
ATOM     19  O   UNL     1      16.402   8.832  40.904  0.00  0.00    +0.000 OA
ATOM     20  C   UNL     1      16.913  10.006  38.838  0.00  0.00    +0.000 A 
ENDBRANCH  13  14
ENDBRANCH   2  12
TORSDOF 3
ENDMDL
MODEL 2
REMARK VINA RESULT:      -7.1      1.793      2.752
REMARK  Name = 
REMARK  3 active torsions:
REMARK  status: ('A' for Active; 'I' for Inactive)
REMARK    1  A    between atoms: C_2  and  C_3
REMARK    2  A    between atoms: C_4  and  N_5
REMARK    3  A    between atoms: C_6  and  C_7
REMARK                            x       y       z     vdW  Elec       q    Type
REMARK                         _______ _______ _______ _____ _____    ______ ____
ROOT
ATOM      1  C   UNL     1      15.677  11.670  34.020  0.00  0.00    +0.000 A 
ATOM      2  C   UNL     1      15.489  11.682  35.365  0.00  0.00    +0.000 A 
ATOM      3  S   UNL     1      14.376  12.951  35.604  0.00  0.00    +0.000 S 
ATOM      4  C   UNL     1      14.174  13.436  33.989  0.00  0.00    +0.000 A 
ATOM      5  C   UNL     1      14.990  12.588  33.290  0.00  0.00    +0.000 A 
ATOM      6  C   UNL     1      15.062  12.737  31.766  0.00  0.00    +0.000 C 
ATOM      7  C   UNL     1      13.763  13.309  31.339  0.00  0.00    +0.000 C 
ATOM      8  C   UNL     1      13.686  14.719  31.945  0.00  0.00    +0.000 C 
ATOM      9  C   UNL     1      13.332  14.513  33.393  0.00  0.00    +0.000 C 
ENDROOT
BRANCH   1  11
ATOM     10  N   UNL     1      17.357   9.877  33.006  0.00  0.00    +0.000 NA
ATOM     11  C   UNL     1      16.603  10.671  33.447  0.00  0.00    +0.000 C 
ENDBRANCH   1  11
BRANCH   2  12
ATOM     12  N   UNL     1      16.080  10.833  36.384  0.00  0.00    +0.000 NA
ATOM     13  C   UNL     1      15.956  11.080  37.621  0.00  0.00    +0.000 C 
BRANCH  13  14
ATOM     14  C   UNL     1      16.519  10.275  38.694  0.00  0.00    +0.000 A 
ATOM     15  C   UNL     1      15.818   9.983  39.840  0.00  0.00    +0.000 A 
ATOM     16  C   UNL     1      16.371   9.209  40.861  0.00  0.00    +0.000 A 
ATOM     17  C   UNL     1      17.652   8.714  40.743  0.00  0.00    +0.000 A 
ATOM     18  C   UNL     1      18.358   9.006  39.596  0.00  0.00    +0.000 A 
ATOM     19  O   UNL     1      19.649   8.494  39.500  0.00  0.00    +0.000 OA
ATOM     20  C   UNL     1      17.795   9.776  38.590  0.00  0.00    +0.000 A 
ENDBRANCH  13  14
ENDBRANCH   2  12
TORSDOF 3
ENDMDL
MODEL 3
REMARK VINA RESULT:      -6.2     22.660     23.970
REMARK  Name = 
REMARK  3 active torsions:
REMARK  status: ('A' for Active; 'I' for Inactive)
REMARK    1  A    between atoms: C_2  and  C_3
REMARK    2  A    between atoms: C_4  and  N_5
REMARK    3  A    between atoms: C_6  and  C_7
REMARK                            x       y       z     vdW  Elec       q    Type
REMARK                         _______ _______ _______ _____ _____    ______ ____
ROOT
ATOM      1  C   UNL     1      24.204  -9.064  24.074  0.00  0.00    +0.000 A 
ATOM      2  C   UNL     1      23.593  -7.927  24.498  0.00  0.00    +0.000 A 
ATOM      3  S   UNL     1      24.608  -6.685  23.921  0.00  0.00    +0.000 S 
ATOM      4  C   UNL     1      25.785  -7.638  23.153  0.00  0.00    +0.000 A 
ATOM      5  C   UNL     1      25.357  -8.920  23.367  0.00  0.00    +0.000 A 
ATOM      6  C   UNL     1      26.194 -10.073  22.801  0.00  0.00    +0.000 C 
ATOM      7  C   UNL     1      26.900  -9.534  21.614  0.00  0.00    +0.000 C 
ATOM      8  C   UNL     1      27.869  -8.461  22.132  0.00  0.00    +0.000 C 
ATOM      9  C   UNL     1      27.016  -7.251  22.406  0.00  0.00    +0.000 C 
ENDROOT
BRANCH   1  11
ATOM     10  N   UNL     1      23.075 -11.400  24.650  0.00  0.00    +0.000 NA
ATOM     11  C   UNL     1      23.584 -10.363  24.404  0.00  0.00    +0.000 C 
ENDBRANCH   1  11
BRANCH   2  12
ATOM     12  N   UNL     1      22.367  -7.772  25.262  0.00  0.00    +0.000 NA
ATOM     13  C   UNL     1      21.540  -6.844  25.024  0.00  0.00    +0.000 C 
BRANCH  13  14
ATOM     14  C   UNL     1      20.295  -6.628  25.747  0.00  0.00    +0.000 A 
ATOM     15  C   UNL     1      19.763  -5.374  25.940  0.00  0.00    +0.000 A 
ATOM     16  C   UNL     1      18.568  -5.185  26.635  0.00  0.00    +0.000 A 
ATOM     17  C   UNL     1      17.884  -6.263  27.152  0.00  0.00    +0.000 A 
ATOM     18  C   UNL     1      18.415  -7.520  26.961  0.00  0.00    +0.000 A 
ATOM     19  O   UNL     1      17.705  -8.595  27.492  0.00  0.00    +0.000 OA
ATOM     20  C   UNL     1      19.602  -7.695  26.268  0.00  0.00    +0.000 A 
ENDBRANCH  13  14
ENDBRANCH   2  12
TORSDOF 3
ENDMDL
MODEL 4
REMARK VINA RESULT:      -6.1     28.432     31.542
REMARK  Name = 
REMARK  3 active torsions:
REMARK  status: ('A' for Active; 'I' for Inactive)
REMARK    1  A    between atoms: C_2  and  C_3
REMARK    2  A    between atoms: C_4  and  N_5
REMARK    3  A    between atoms: C_6  and  C_7
REMARK                            x       y       z     vdW  Elec       q    Type
REMARK                         _______ _______ _______ _____ _____    ______ ____
ROOT
ATOM      1  C   UNL     1      32.513  20.488   9.757  0.00  0.00    +0.000 A 
ATOM      2  C   UNL     1      31.209  20.799   9.538  0.00  0.00    +0.000 A 
ATOM      3  S   UNL     1      31.040  20.653   7.848  0.00  0.00    +0.000 S 
ATOM      4  C   UNL     1      32.629  20.199   7.458  0.00  0.00    +0.000 A 
ATOM      5  C   UNL     1      33.266  20.172   8.669  0.00  0.00    +0.000 A 
ATOM      6  C   UNL     1      34.751  19.793   8.704  0.00  0.00    +0.000 C 
ATOM      7  C   UNL     1      34.987  18.918   7.531  0.00  0.00    +0.000 C 
ATOM      8  C   UNL     1      34.754  19.786   6.285  0.00  0.00    +0.000 C 
ATOM      9  C   UNL     1      33.259  19.888   6.143  0.00  0.00    +0.000 C 
ENDROOT
BRANCH   1  11
ATOM     10  N   UNL     1      33.446  20.532  12.245  0.00  0.00    +0.000 NA
ATOM     11  C   UNL     1      33.020  20.513  11.144  0.00  0.00    +0.000 C 
ENDBRANCH   1  11
BRANCH   2  12
ATOM     12  N   UNL     1      30.179  21.171  10.492  0.00  0.00    +0.000 NA
ATOM     13  C   UNL     1      29.902  22.381  10.744  0.00  0.00    +0.000 C 
BRANCH  13  14
ATOM     14  C   UNL     1      28.886  22.827  11.685  0.00  0.00    +0.000 A 
ATOM     15  C   UNL     1      27.560  22.485  11.554  0.00  0.00    +0.000 A 
ATOM     16  C   UNL     1      26.597  22.921  12.465  0.00  0.00    +0.000 A 
ATOM     17  C   UNL     1      26.957  23.715  13.533  0.00  0.00    +0.000 A 
ATOM     18  C   UNL     1      28.285  24.060  13.666  0.00  0.00    +0.000 A 
ATOM     19  O   UNL     1      28.624  24.862  14.752  0.00  0.00    +0.000 OA
ATOM     20  C   UNL     1      29.231  23.620  12.754  0.00  0.00    +0.000 A 
ENDBRANCH  13  14
ENDBRANCH   2  12
TORSDOF 3
ENDMDL
MODEL 5
REMARK VINA RESULT:      -6.0     18.878     21.036
REMARK  Name = 
REMARK  3 active torsions:
REMARK  status: ('A' for Active; 'I' for Inactive)
REMARK    1  A    between atoms: C_2  and  C_3
REMARK    2  A    between atoms: C_4  and  N_5
REMARK    3  A    between atoms: C_6  and  C_7
REMARK                            x       y       z     vdW  Elec       q    Type
REMARK                         _______ _______ _______ _____ _____    ______ ____
ROOT
ATOM      1  C   UNL     1      29.085  22.702  28.920  0.00  0.00    +0.000 A 
ATOM      2  C   UNL     1      29.632  22.605  27.680  0.00  0.00    +0.000 A 
ATOM      3  S   UNL     1      31.289  22.356  27.991  0.00  0.00    +0.000 S 
ATOM      4  C   UNL     1      31.250  22.381  29.689  0.00  0.00    +0.000 A 
ATOM      5  C   UNL     1      29.928  22.585  29.980  0.00  0.00    +0.000 A 
ATOM      6  C   UNL     1      29.510  22.665  31.453  0.00  0.00    +0.000 C 
ATOM      7  C   UNL     1      30.496  21.859  32.212  0.00  0.00    +0.000 C 
ATOM      8  C   UNL     1      31.847  22.575  32.070  0.00  0.00    +0.000 C 
ATOM      9  C   UNL     1      32.342  22.225  30.692  0.00  0.00    +0.000 C 
ENDROOT
BRANCH   1  11
ATOM     10  N   UNL     1      26.463  23.098  29.100  0.00  0.00    +0.000 NA
ATOM     11  C   UNL     1      27.628  22.924  29.032  0.00  0.00    +0.000 C 
ENDBRANCH   1  11
BRANCH   2  12
ATOM     12  N   UNL     1      28.988  22.688  26.381  0.00  0.00    +0.000 NA
ATOM     13  C   UNL     1      29.266  23.603  25.551  0.00  0.00    +0.000 C 
BRANCH  13  14
ATOM     14  C   UNL     1      28.662  23.748  24.234  0.00  0.00    +0.000 A 
ATOM     15  C   UNL     1      27.312  23.594  24.023  0.00  0.00    +0.000 A 
ATOM     16  C   UNL     1      26.748  23.737  22.754  0.00  0.00    +0.000 A 
ATOM     17  C   UNL     1      27.542  24.039  21.669  0.00  0.00    +0.000 A 
ATOM     18  C   UNL     1      28.895  24.193  21.878  0.00  0.00    +0.000 A 
ATOM     19  O   UNL     1      29.677  24.498  20.767  0.00  0.00    +0.000 OA
ATOM     20  C   UNL     1      29.442  24.049  23.143  0.00  0.00    +0.000 A 
ENDBRANCH  13  14
ENDBRANCH   2  12
TORSDOF 3
ENDMDL
MODEL 6
REMARK VINA RESULT:      -6.0     19.297     20.416
REMARK  Name = 
REMARK  3 active torsions:
REMARK  status: ('A' for Active; 'I' for Inactive)
REMARK    1  A    between atoms: C_2  and  C_3
REMARK    2  A    between atoms: C_4  and  N_5
REMARK    3  A    between atoms: C_6  and  C_7
REMARK                            x       y       z     vdW  Elec       q    Type
REMARK                         _______ _______ _______ _____ _____    ______ ____
ROOT
ATOM      1  C   UNL     1      30.442  23.307  24.945  0.00  0.00    +0.000 A 
ATOM      2  C   UNL     1      30.092  22.658  26.085  0.00  0.00    +0.000 A 
ATOM      3  S   UNL     1      28.397  22.528  25.970  0.00  0.00    +0.000 S 
ATOM      4  C   UNL     1      28.171  23.301  24.476  0.00  0.00    +0.000 A 
ATOM      5  C   UNL     1      29.438  23.649  24.094  0.00  0.00    +0.000 A 
ATOM      6  C   UNL     1      29.623  24.383  22.761  0.00  0.00    +0.000 C 
ATOM      7  C   UNL     1      28.493  23.970  21.895  0.00  0.00    +0.000 C 
ATOM      8  C   UNL     1      27.216  24.512  22.556  0.00  0.00    +0.000 C 
ATOM      9  C   UNL     1      26.928  23.576  23.698  0.00  0.00    +0.000 C 
ENDROOT
BRANCH   1  11
ATOM     10  N   UNL     1      33.019  23.816  24.538  0.00  0.00    +0.000 NA
ATOM     11  C   UNL     1      31.872  23.595  24.707  0.00  0.00    +0.000 C 
ENDBRANCH   1  11
BRANCH   2  12
ATOM     12  N   UNL     1      30.936  22.175  27.165  0.00  0.00    +0.000 NA
ATOM     13  C   UNL     1      30.769  22.545  28.365  0.00  0.00    +0.000 C 
BRANCH  13  14
ATOM     14  C   UNL     1      31.574  22.104  29.495  0.00  0.00    +0.000 A 
ATOM     15  C   UNL     1      32.914  21.819  29.377  0.00  0.00    +0.000 A 
ATOM     16  C   UNL     1      33.672  21.398  30.470  0.00  0.00    +0.000 A 
ATOM     17  C   UNL     1      33.088  21.254  31.710  0.00  0.00    +0.000 A 
ATOM     18  C   UNL     1      31.744  21.539  31.830  0.00  0.00    +0.000 A 
ATOM     19  O   UNL     1      31.176  21.387  33.092  0.00  0.00    +0.000 OA
ATOM     20  C   UNL     1      31.003  21.957  30.736  0.00  0.00    +0.000 A 
ENDBRANCH  13  14
ENDBRANCH   2  12
TORSDOF 3
ENDMDL
MODEL 7
REMARK VINA RESULT:      -5.9     18.602     19.631
REMARK  Name = 
REMARK  3 active torsions:
REMARK  status: ('A' for Active; 'I' for Inactive)
REMARK    1  A    between atoms: C_2  and  C_3
REMARK    2  A    between atoms: C_4  and  N_5
REMARK    3  A    between atoms: C_6  and  C_7
REMARK                            x       y       z     vdW  Elec       q    Type
REMARK                         _______ _______ _______ _____ _____    ______ ____
ROOT
ATOM      1  C   UNL     1      28.416  22.995  25.979  0.00  0.00    +0.000 A 
ATOM      2  C   UNL     1      29.659  22.463  26.105  0.00  0.00    +0.000 A 
ATOM      3  S   UNL     1      30.309  22.581  24.534  0.00  0.00    +0.000 S 
ATOM      4  C   UNL     1      28.987  23.305  23.752  0.00  0.00    +0.000 A 
ATOM      5  C   UNL     1      28.055  23.439  24.745  0.00  0.00    +0.000 A 
ATOM      6  C   UNL     1      26.702  24.070  24.396  0.00  0.00    +0.000 C 
ATOM      7  C   UNL     1      26.946  24.976  23.248  0.00  0.00    +0.000 C 
ATOM      8  C   UNL     1      27.365  24.084  22.070  0.00  0.00    +0.000 C 
ATOM      9  C   UNL     1      28.803  23.724  22.333  0.00  0.00    +0.000 C 
ENDROOT
BRANCH   1  11
ATOM     10  N   UNL     1      26.849  23.084  28.123  0.00  0.00    +0.000 NA
ATOM     11  C   UNL     1      27.550  23.055  27.174  0.00  0.00    +0.000 C 
ENDBRANCH   1  11
BRANCH   2  12
ATOM     12  N   UNL     1      30.310  21.915  27.283  0.00  0.00    +0.000 NA
ATOM     13  C   UNL     1      31.005  22.633  28.061  0.00  0.00    +0.000 C 
BRANCH  13  14
ATOM     14  C   UNL     1      31.684  22.154  29.256  0.00  0.00    +0.000 A 
ATOM     15  C   UNL     1      33.029  21.867  29.273  0.00  0.00    +0.000 A 
ATOM     16  C   UNL     1      33.665  21.408  30.427  0.00  0.00    +0.000 A 
ATOM     17  C   UNL     1      32.951  21.229  31.593  0.00  0.00    +0.000 A 
ATOM     18  C   UNL     1      31.604  21.515  31.578  0.00  0.00    +0.000 A 
ATOM     19  O   UNL     1      30.904  21.327  32.767  0.00  0.00    +0.000 OA
ATOM     20  C   UNL     1      30.984  21.971  30.425  0.00  0.00    +0.000 A 
ENDBRANCH  13  14
ENDBRANCH   2  12
TORSDOF 3
ENDMDL
MODEL 8
REMARK VINA RESULT:      -5.8      6.887      8.645
REMARK  Name = 
REMARK  3 active torsions:
REMARK  status: ('A' for Active; 'I' for Inactive)
REMARK    1  A    between atoms: C_2  and  C_3
REMARK    2  A    between atoms: C_4  and  N_5
REMARK    3  A    between atoms: C_6  and  C_7
REMARK                            x       y       z     vdW  Elec       q    Type
REMARK                         _______ _______ _______ _____ _____    ______ ____
ROOT
ATOM      1  C   UNL     1      19.088   7.788  40.324  0.00  0.00    +0.000 A 
ATOM      2  C   UNL     1      19.523   8.837  39.579  0.00  0.00    +0.000 A 
ATOM      3  S   UNL     1      18.185   9.893  39.552  0.00  0.00    +0.000 S 
ATOM      4  C   UNL     1      17.103   8.978  40.487  0.00  0.00    +0.000 A 
ATOM      5  C   UNL     1      17.817   7.854  40.804  0.00  0.00    +0.000 A 
ATOM      6  C   UNL     1      17.141   6.778  41.661  0.00  0.00    +0.000 C 
ATOM      7  C   UNL     1      16.128   7.476  42.488  0.00  0.00    +0.000 C 
ATOM      8  C   UNL     1      15.076   8.029  41.514  0.00  0.00    +0.000 C 
ATOM      9  C   UNL     1      15.700   9.257  40.907  0.00  0.00    +0.000 C 
ENDROOT
BRANCH   1  11
ATOM     10  N   UNL     1      20.739   5.746  40.732  0.00  0.00    +0.000 NA
ATOM     11  C   UNL     1      20.012   6.659  40.559  0.00  0.00    +0.000 C 
ENDBRANCH   1  11
BRANCH   2  12
ATOM     12  N   UNL     1      20.813   9.042  38.945  0.00  0.00    +0.000 NA
ATOM     13  C   UNL     1      21.014   9.981  38.119  0.00  0.00    +0.000 C 
BRANCH  13  14
ATOM     14  C   UNL     1      22.278  10.246  37.446  0.00  0.00    +0.000 A 
ATOM     15  C   UNL     1      22.810   9.386  36.515  0.00  0.00    +0.000 A 
ATOM     16  C   UNL     1      24.023   9.655  35.878  0.00  0.00    +0.000 A 
ATOM     17  C   UNL     1      24.725  10.804  36.172  0.00  0.00    +0.000 A 
ATOM     18  C   UNL     1      24.193  11.667  37.106  0.00  0.00    +0.000 A 
ATOM     19  O   UNL     1      24.920  12.821  37.386  0.00  0.00    +0.000 OA
ATOM     20  C   UNL     1      22.988  11.388  37.730  0.00  0.00    +0.000 A 
ENDBRANCH  13  14
ENDBRANCH   2  12
TORSDOF 3
ENDMDL
MODEL 9
REMARK VINA RESULT:      -5.8     22.812     24.146
REMARK  Name = 
REMARK  3 active torsions:
REMARK  status: ('A' for Active; 'I' for Inactive)
REMARK    1  A    between atoms: C_2  and  C_3
REMARK    2  A    between atoms: C_4  and  N_5
REMARK    3  A    between atoms: C_6  and  C_7
REMARK                            x       y       z     vdW  Elec       q    Type
REMARK                         _______ _______ _______ _____ _____    ______ ____
ROOT
ATOM      1  C   UNL     1      23.700  -8.788  22.646  0.00  0.00    +0.000 A 
ATOM      2  C   UNL     1      23.308  -7.773  23.460  0.00  0.00    +0.000 A 
ATOM      3  S   UNL     1      24.744  -6.897  23.731  0.00  0.00    +0.000 S 
ATOM      4  C   UNL     1      25.811  -7.839  22.804  0.00  0.00    +0.000 A 
ATOM      5  C   UNL     1      25.014  -8.830  22.297  0.00  0.00    +0.000 A 
ATOM      6  C   UNL     1      25.653  -9.888  21.391  0.00  0.00    +0.000 C 
ATOM      7  C   UNL     1      26.819  -9.239  20.747  0.00  0.00    +0.000 C 
ATOM      8  C   UNL     1      27.817  -8.919  21.871  0.00  0.00    +0.000 C 
ATOM      9  C   UNL     1      27.273  -7.692  22.551  0.00  0.00    +0.000 C 
ENDROOT
BRANCH   1  11
ATOM     10  N   UNL     1      21.870 -10.532  21.827  0.00  0.00    +0.000 NA
ATOM     11  C   UNL     1      22.687  -9.766  22.199  0.00  0.00    +0.000 C 
ENDBRANCH   1  11
BRANCH   2  12
ATOM     12  N   UNL     1      21.989  -7.477  23.990  0.00  0.00    +0.000 NA
ATOM     13  C   UNL     1      21.757  -7.441  25.235  0.00  0.00    +0.000 C 
BRANCH  13  14
ATOM     14  C   UNL     1      20.463  -7.152  25.836  0.00  0.00    +0.000 A 
ATOM     15  C   UNL     1      19.675  -8.132  26.394  0.00  0.00    +0.000 A 
ATOM     16  C   UNL     1      18.437  -7.838  26.967  0.00  0.00    +0.000 A 
ATOM     17  C   UNL     1      17.969  -6.542  26.987  0.00  0.00    +0.000 A 
ATOM     18  C   UNL     1      18.757  -5.559  26.428  0.00  0.00    +0.000 A 
ATOM     19  O   UNL     1      18.262  -4.257  26.461  0.00  0.00    +0.000 OA
ATOM     20  C   UNL     1      19.984  -5.864  25.863  0.00  0.00    +0.000 A 
ENDBRANCH  13  14
ENDBRANCH   2  12
TORSDOF 3
ENDMDL
MODEL 10
REMARK VINA RESULT:      -5.8     19.793     22.145
REMARK  Name = 
REMARK  3 active torsions:
REMARK  status: ('A' for Active; 'I' for Inactive)
REMARK    1  A    between atoms: C_2  and  C_3
REMARK    2  A    between atoms: C_4  and  N_5
REMARK    3  A    between atoms: C_6  and  C_7
REMARK                            x       y       z     vdW  Elec       q    Type
REMARK                         _______ _______ _______ _____ _____    ______ ____
ROOT
ATOM      1  C   UNL     1      33.858   0.831  35.537  0.00  0.00    +0.000 A 
ATOM      2  C   UNL     1      33.731  -0.081  34.538  0.00  0.00    +0.000 A 
ATOM      3  S   UNL     1      33.510   0.876  33.146  0.00  0.00    +0.000 S 
ATOM      4  C   UNL     1      33.584   2.414  33.864  0.00  0.00    +0.000 A 
ATOM      5  C   UNL     1      33.781   2.144  35.191  0.00  0.00    +0.000 A 
ATOM      6  C   UNL     1      33.900   3.321  36.165  0.00  0.00    +0.000 C 
ATOM      7  C   UNL     1      34.427   4.463  35.380  0.00  0.00    +0.000 C 
ATOM      8  C   UNL     1      33.347   4.817  34.346  0.00  0.00    +0.000 C 
ATOM      9  C   UNL     1      33.471   3.775  33.267  0.00  0.00    +0.000 C 
ENDROOT
BRANCH   1  11
ATOM     10  N   UNL     1      34.216  -0.041  38.022  0.00  0.00    +0.000 NA
ATOM     11  C   UNL     1      34.068   0.342  36.915  0.00  0.00    +0.000 C 
ENDBRANCH   1  11
BRANCH   2  12
ATOM     12  N   UNL     1      33.770  -1.531  34.606  0.00  0.00    +0.000 NA
ATOM     13  C   UNL     1      33.578  -2.258  33.586  0.00  0.00    +0.000 C 
BRANCH  13  14
ATOM     14  C   UNL     1      33.602  -3.713  33.580  0.00  0.00    +0.000 A 
ATOM     15  C   UNL     1      33.637  -4.453  34.738  0.00  0.00    +0.000 A 
ATOM     16  C   UNL     1      33.660  -5.848  34.715  0.00  0.00    +0.000 A 
ATOM     17  C   UNL     1      33.648  -6.526  33.515  0.00  0.00    +0.000 A 
ATOM     18  C   UNL     1      33.614  -5.786  32.353  0.00  0.00    +0.000 A 
ATOM     19  O   UNL     1      33.603  -6.493  31.153  0.00  0.00    +0.000 OA
ATOM     20  C   UNL     1      33.591  -4.401  32.390  0.00  0.00    +0.000 A 
ENDBRANCH  13  14
ENDBRANCH   2  12
TORSDOF 3
ENDMDL
