MODEL 1
REMARK VINA RESULT:      -8.9      0.000      0.000
REMARK  Name = 
REMARK  6 active torsions:
REMARK  status: ('A' for Active; 'I' for Inactive)
REMARK    1  A    between atoms: C_2  and  C_22
REMARK    2  A    between atoms: N_3  and  C_4
REMARK    3  A    between atoms: C_4  and  C_5
REMARK    4  A    between atoms: C_5  and  C_6
REMARK    5  A    between atoms: C_6  and  C_7
REMARK    6  A    between atoms: C_7  and  N_8
REMARK                            x       y       z     vdW  Elec       q    Type
REMARK                         _______ _______ _______ _____ _____    ______ ____
ROOT
ATOM      1  C   UNL     1      37.665   3.560  14.696  0.00  0.00    +0.000 C 
ENDROOT
BRANCH   1   2
ATOM      2  C   UNL     1      36.323   4.230  14.851  0.00  0.00    +0.000 C 
BRANCH   2   3
ATOM      3  C   UNL     1      35.170   3.268  14.659  0.00  0.00    +0.000 C 
BRANCH   3   6
ATOM      4  O   UNL     1      34.430   1.711  16.785  0.00  0.00    +0.000 OA
ATOM      5  C   UNL     1      35.280   1.204  16.012  0.00  0.00    +0.000 C 
ATOM      6  N   UNL     1      35.719   1.926  14.896  0.00  0.00    +0.000 NA
BRANCH   5   7
ATOM      7  C   UNL     1      35.826  -0.146  16.257  0.00  0.00    +0.000 A 
ATOM      8  C   UNL     1      35.010  -1.189  16.638  0.00  0.00    +0.000 A 
ATOM      9  N   UNL     1      35.475  -2.437  16.870  0.00  0.00    +0.000 NA
ATOM     10  C   UNL     1      36.784  -2.738  16.739  0.00  0.00    +0.000 A 
ATOM     11  C   UNL     1      37.237  -4.025  16.982  0.00  0.00    +0.000 A 
ATOM     12  C   UNL     1      38.562  -4.319  16.848  0.00  0.00    +0.000 A 
ATOM     13  C   UNL     1      39.437  -3.311  16.466  0.00  0.00    +0.000 A 
ATOM     14  C   UNL     1      38.964  -2.021  16.224  0.00  0.00    +0.000 A 
ATOM     15  C   UNL     1      37.624  -1.711  16.358  0.00  0.00    +0.000 A 
ATOM     16  C   UNL     1      37.168  -0.428  16.116  0.00  0.00    +0.000 A 
ENDBRANCH   5   7
ENDBRANCH   3   6
ENDBRANCH   2   3
ENDBRANCH   1   2
BRANCH   1  17
ATOM     17  C   UNL     1      38.599   4.171  15.706  0.00  0.00    +0.000 C 
BRANCH  17  18
ATOM     18  N   UNL     1      38.871   5.568  15.429  0.00  0.00    +0.000 NA
ATOM     19  C   UNL     1      40.216   5.733  15.000  0.00  0.00    +0.000 C 
ATOM     20  C   UNL     1      41.025   6.710  15.780  0.00  0.00    +0.000 C 
ATOM     21  C   UNL     1      40.792   6.587  17.264  0.00  0.00    +0.000 A 
ATOM     22  C   UNL     1      39.447   6.442  17.622  0.00  0.00    +0.000 A 
ATOM     23  C   UNL     1      39.148   6.325  18.943  0.00  0.00    +0.000 A 
ATOM     24  C   UNL     1      40.158   6.352  19.883  0.00  0.00    +0.000 A 
ATOM     25  C   UNL     1      41.479   6.495  19.521  0.00  0.00    +0.000 A 
ATOM     26  C   UNL     1      42.472   6.520  20.483  0.00  0.00    +0.000 A 
ATOM     27  C   UNL     1      43.777   6.667  20.035  0.00  0.00    +0.000 A 
ATOM     28  C   UNL     1      44.103   6.786  18.716  0.00  0.00    +0.000 A 
ATOM     29  C   UNL     1      43.114   6.763  17.752  0.00  0.00    +0.000 A 
ATOM     30  C   UNL     1      41.806   6.616  18.178  0.00  0.00    +0.000 A 
ATOM     31  C   UNL     1      38.474   6.430  16.513  0.00  0.00    +0.000 C 
ENDBRANCH  17  18
ENDBRANCH   1  17
TORSDOF 6
ENDMDL
MODEL 2
REMARK VINA RESULT:      -8.8     24.488     28.343
REMARK  Name = 
REMARK  6 active torsions:
REMARK  status: ('A' for Active; 'I' for Inactive)
REMARK    1  A    between atoms: C_2  and  C_22
REMARK    2  A    between atoms: N_3  and  C_4
REMARK    3  A    between atoms: C_4  and  C_5
REMARK    4  A    between atoms: C_5  and  C_6
REMARK    5  A    between atoms: C_6  and  C_7
REMARK    6  A    between atoms: C_7  and  N_8
REMARK                            x       y       z     vdW  Elec       q    Type
REMARK                         _______ _______ _______ _____ _____    ______ ____
ROOT
ATOM      1  C   UNL     1      12.228  -0.138  27.037  0.00  0.00    +0.000 C 
ENDROOT
BRANCH   1   2
ATOM      2  C   UNL     1      13.441  -0.589  27.812  0.00  0.00    +0.000 C 
BRANCH   2   3
ATOM      3  C   UNL     1      14.580   0.404  27.732  0.00  0.00    +0.000 C 
BRANCH   3   6
ATOM      4  O   UNL     1      16.913   1.664  27.050  0.00  0.00    +0.000 OA
ATOM      5  C   UNL     1      16.708   0.560  26.488  0.00  0.00    +0.000 C 
ATOM      6  N   UNL     1      15.541  -0.158  26.774  0.00  0.00    +0.000 NA
BRANCH   5   7
ATOM      7  C   UNL     1      17.680   0.001  25.526  0.00  0.00    +0.000 A 
ATOM      8  C   UNL     1      17.768  -1.357  25.308  0.00  0.00    +0.000 A 
ATOM      9  N   UNL     1      18.645  -1.903  24.435  0.00  0.00    +0.000 NA
ATOM     10  C   UNL     1      19.496  -1.140  23.719  0.00  0.00    +0.000 A 
ATOM     11  C   UNL     1      20.386  -1.723  22.830  0.00  0.00    +0.000 A 
ATOM     12  C   UNL     1      21.243  -0.943  22.111  0.00  0.00    +0.000 A 
ATOM     13  C   UNL     1      21.203   0.434  22.287  0.00  0.00    +0.000 A 
ATOM     14  C   UNL     1      20.301   1.004  23.184  0.00  0.00    +0.000 A 
ATOM     15  C   UNL     1      19.429   0.224  23.919  0.00  0.00    +0.000 A 
ATOM     16  C   UNL     1      18.540   0.802  24.806  0.00  0.00    +0.000 A 
ENDBRANCH   5   7
ENDBRANCH   3   6
ENDBRANCH   2   3
ENDBRANCH   1   2
BRANCH   1  17
ATOM     17  C   UNL     1      11.334   0.616  27.986  0.00  0.00    +0.000 C 
BRANCH  17  18
ATOM     18  N   UNL     1      11.360   2.047  27.746  0.00  0.00    +0.000 NA
ATOM     19  C   UNL     1      10.532   2.718  28.685  0.00  0.00    +0.000 C 
ATOM     20  C   UNL     1       9.481   3.597  28.103  0.00  0.00    +0.000 C 
ATOM     21  C   UNL     1       8.795   2.960  26.922  0.00  0.00    +0.000 A 
ATOM     22  C   UNL     1       9.665   2.327  26.027  0.00  0.00    +0.000 A 
ATOM     23  C   UNL     1       9.128   1.726  24.933  0.00  0.00    +0.000 A 
ATOM     24  C   UNL     1       7.763   1.753  24.732  0.00  0.00    +0.000 A 
ATOM     25  C   UNL     1       6.914   2.379  25.618  0.00  0.00    +0.000 A 
ATOM     26  C   UNL     1       5.550   2.392  25.393  0.00  0.00    +0.000 A 
ATOM     27  C   UNL     1       4.765   3.043  26.334  0.00  0.00    +0.000 A 
ATOM     28  C   UNL     1       5.279   3.654  27.440  0.00  0.00    +0.000 A 
ATOM     29  C   UNL     1       6.642   3.643  27.668  0.00  0.00    +0.000 A 
ATOM     30  C   UNL     1       7.442   2.998  26.742  0.00  0.00    +0.000 A 
ATOM     31  C   UNL     1      11.100   2.376  26.367  0.00  0.00    +0.000 C 
ENDBRANCH  17  18
ENDBRANCH   1  17
TORSDOF 6
ENDMDL
MODEL 3
REMARK VINA RESULT:      -8.8      2.109      9.106
REMARK  Name = 
REMARK  6 active torsions:
REMARK  status: ('A' for Active; 'I' for Inactive)
REMARK    1  A    between atoms: C_2  and  C_22
REMARK    2  A    between atoms: N_3  and  C_4
REMARK    3  A    between atoms: C_4  and  C_5
REMARK    4  A    between atoms: C_5  and  C_6
REMARK    5  A    between atoms: C_6  and  C_7
REMARK    6  A    between atoms: C_7  and  N_8
REMARK                            x       y       z     vdW  Elec       q    Type
REMARK                         _______ _______ _______ _____ _____    ______ ____
ROOT
ATOM      1  C   UNL     1      35.262   3.008  14.400  0.00  0.00    +0.000 C 
ENDROOT
BRANCH   1   2
ATOM      2  C   UNL     1      35.418   4.507  14.448  0.00  0.00    +0.000 C 
BRANCH   2   3
ATOM      3  C   UNL     1      36.788   4.960  13.993  0.00  0.00    +0.000 C 
BRANCH   3   6
ATOM      4  O   UNL     1      37.957   7.246  14.945  0.00  0.00    +0.000 OA
ATOM      5  C   UNL     1      38.183   6.205  15.609  0.00  0.00    +0.000 C 
ATOM      6  N   UNL     1      37.627   4.987  15.199  0.00  0.00    +0.000 NA
BRANCH   5   7
ATOM      7  C   UNL     1      39.026   6.240  16.821  0.00  0.00    +0.000 A 
ATOM      8  C   UNL     1      38.480   6.081  18.076  0.00  0.00    +0.000 A 
ATOM      9  N   UNL     1      39.223   6.107  19.207  0.00  0.00    +0.000 NA
ATOM     10  C   UNL     1      40.558   6.292  19.171  0.00  0.00    +0.000 A 
ATOM     11  C   UNL     1      41.297   6.314  20.342  0.00  0.00    +0.000 A 
ATOM     12  C   UNL     1      42.647   6.503  20.295  0.00  0.00    +0.000 A 
ATOM     13  C   UNL     1      43.258   6.669  19.059  0.00  0.00    +0.000 A 
ATOM     14  C   UNL     1      42.499   6.642  17.889  0.00  0.00    +0.000 A 
ATOM     15  C   UNL     1      41.130   6.454  17.925  0.00  0.00    +0.000 A 
ATOM     16  C   UNL     1      40.390   6.430  16.757  0.00  0.00    +0.000 A 
ENDBRANCH   5   7
ENDBRANCH   3   6
ENDBRANCH   2   3
ENDBRANCH   1   2
BRANCH   1  17
ATOM     17  C   UNL     1      34.947   2.537  15.795  0.00  0.00    +0.000 C 
BRANCH  17  18
ATOM     18  N   UNL     1      36.105   1.967  16.458  0.00  0.00    +0.000 NA
ATOM     19  C   UNL     1      36.989   1.398  15.502  0.00  0.00    +0.000 C 
ATOM     20  C   UNL     1      37.343  -0.031  15.723  0.00  0.00    +0.000 C 
ATOM     21  C   UNL     1      36.148  -0.858  16.123  0.00  0.00    +0.000 A 
ATOM     22  C   UNL     1      35.324  -0.250  17.077  0.00  0.00    +0.000 A 
ATOM     23  C   UNL     1      34.223  -0.929  17.494  0.00  0.00    +0.000 A 
ATOM     24  C   UNL     1      33.947  -2.179  16.978  0.00  0.00    +0.000 A 
ATOM     25  C   UNL     1      34.764  -2.770  16.039  0.00  0.00    +0.000 A 
ATOM     26  C   UNL     1      34.466  -4.024  15.539  0.00  0.00    +0.000 A 
ATOM     27  C   UNL     1      35.340  -4.547  14.597  0.00  0.00    +0.000 A 
ATOM     28  C   UNL     1      36.451  -3.887  14.162  0.00  0.00    +0.000 A 
ATOM     29  C   UNL     1      36.753  -2.634  14.660  0.00  0.00    +0.000 A 
ATOM     30  C   UNL     1      35.894  -2.093  15.600  0.00  0.00    +0.000 A 
ATOM     31  C   UNL     1      35.739   1.088  17.540  0.00  0.00    +0.000 C 
ENDBRANCH  17  18
ENDBRANCH   1  17
TORSDOF 6
ENDMDL
MODEL 4
REMARK VINA RESULT:      -8.5      2.062      3.403
REMARK  Name = 
REMARK  6 active torsions:
REMARK  status: ('A' for Active; 'I' for Inactive)
REMARK    1  A    between atoms: C_2  and  C_22
REMARK    2  A    between atoms: N_3  and  C_4
REMARK    3  A    between atoms: C_4  and  C_5
REMARK    4  A    between atoms: C_5  and  C_6
REMARK    5  A    between atoms: C_6  and  C_7
REMARK    6  A    between atoms: C_7  and  N_8
REMARK                            x       y       z     vdW  Elec       q    Type
REMARK                         _______ _______ _______ _____ _____    ______ ____
ROOT
ATOM      1  C   UNL     1      36.800   7.684  15.318  0.00  0.00    +0.000 C 
ENDROOT
BRANCH   1   2
ATOM      2  C   UNL     1      37.045   7.333  13.872  0.00  0.00    +0.000 C 
BRANCH   2   3
ATOM      3  C   UNL     1      35.857   6.642  13.236  0.00  0.00    +0.000 C 
BRANCH   3   6
ATOM      4  O   UNL     1      36.667   4.093  12.650  0.00  0.00    +0.000 OA
ATOM      5  C   UNL     1      36.008   4.222  13.712  0.00  0.00    +0.000 C 
ATOM      6  N   UNL     1      35.552   5.489  14.094  0.00  0.00    +0.000 NA
BRANCH   5   7
ATOM      7  C   UNL     1      35.706   3.059  14.569  0.00  0.00    +0.000 A 
ATOM      8  C   UNL     1      34.878   3.175  15.665  0.00  0.00    +0.000 A 
ATOM      9  N   UNL     1      34.579   2.131  16.471  0.00  0.00    +0.000 NA
ATOM     10  C   UNL     1      35.081   0.899  16.247  0.00  0.00    +0.000 A 
ATOM     11  C   UNL     1      34.760  -0.154  17.088  0.00  0.00    +0.000 A 
ATOM     12  C   UNL     1      35.274  -1.396  16.853  0.00  0.00    +0.000 A 
ATOM     13  C   UNL     1      36.116  -1.578  15.764  0.00  0.00    +0.000 A 
ATOM     14  C   UNL     1      36.428  -0.507  14.928  0.00  0.00    +0.000 A 
ATOM     15  C   UNL     1      35.914   0.756  15.156  0.00  0.00    +0.000 A 
ATOM     16  C   UNL     1      36.232   1.810  14.319  0.00  0.00    +0.000 A 
ENDBRANCH   5   7
ENDBRANCH   3   6
ENDBRANCH   2   3
ENDBRANCH   1   2
BRANCH   1  17
ATOM     17  C   UNL     1      38.106   7.534  16.052  0.00  0.00    +0.000 C 
BRANCH  17  18
ATOM     18  N   UNL     1      38.288   6.195  16.581  0.00  0.00    +0.000 NA
ATOM     19  C   UNL     1      38.198   6.210  17.999  0.00  0.00    +0.000 C 
ATOM     20  C   UNL     1      39.364   5.632  18.723  0.00  0.00    +0.000 C 
ATOM     21  C   UNL     1      40.678   6.054  18.118  0.00  0.00    +0.000 A 
ATOM     22  C   UNL     1      40.707   6.005  16.720  0.00  0.00    +0.000 A 
ATOM     23  C   UNL     1      41.856   6.370  16.093  0.00  0.00    +0.000 A 
ATOM     24  C   UNL     1      42.947   6.774  16.834  0.00  0.00    +0.000 A 
ATOM     25  C   UNL     1      42.910   6.819  18.211  0.00  0.00    +0.000 A 
ATOM     26  C   UNL     1      44.018   7.227  18.930  0.00  0.00    +0.000 A 
ATOM     27  C   UNL     1      43.897   7.244  20.312  0.00  0.00    +0.000 A 
ATOM     28  C   UNL     1      42.756   6.883  20.966  0.00  0.00    +0.000 A 
ATOM     29  C   UNL     1      41.647   6.474  20.250  0.00  0.00    +0.000 A 
ATOM     30  C   UNL     1      41.746   6.450  18.870  0.00  0.00    +0.000 A 
ATOM     31  C   UNL     1      39.468   5.555  16.057  0.00  0.00    +0.000 C 
ENDBRANCH  17  18
ENDBRANCH   1  17
TORSDOF 6
ENDMDL
MODEL 5
REMARK VINA RESULT:      -8.2      2.663      8.720
REMARK  Name = 
REMARK  6 active torsions:
REMARK  status: ('A' for Active; 'I' for Inactive)
REMARK    1  A    between atoms: C_2  and  C_22
REMARK    2  A    between atoms: N_3  and  C_4
REMARK    3  A    between atoms: C_4  and  C_5
REMARK    4  A    between atoms: C_5  and  C_6
REMARK    5  A    between atoms: C_6  and  C_7
REMARK    6  A    between atoms: C_7  and  N_8
REMARK                            x       y       z     vdW  Elec       q    Type
REMARK                         _______ _______ _______ _____ _____    ______ ____
ROOT
ATOM      1  C   UNL     1      40.021   0.736  14.204  0.00  0.00    +0.000 C 
ENDROOT
BRANCH   1   2
ATOM      2  C   UNL     1      40.806   1.779  13.448  0.00  0.00    +0.000 C 
BRANCH   2   3
ATOM      3  C   UNL     1      39.943   2.936  12.994  0.00  0.00    +0.000 C 
BRANCH   3   6
ATOM      4  O   UNL     1      40.728   5.492  13.584  0.00  0.00    +0.000 OA
ATOM      5  C   UNL     1      39.983   4.944  14.433  0.00  0.00    +0.000 C 
ATOM      6  N   UNL     1      39.530   3.637  14.218  0.00  0.00    +0.000 NA
BRANCH   5   7
ATOM      7  C   UNL     1      39.571   5.656  15.660  0.00  0.00    +0.000 A 
ATOM      8  C   UNL     1      38.420   6.412  15.695  0.00  0.00    +0.000 A 
ATOM      9  N   UNL     1      38.012   7.076  16.801  0.00  0.00    +0.000 NA
ATOM     10  C   UNL     1      38.719   7.036  17.949  0.00  0.00    +0.000 A 
ATOM     11  C   UNL     1      38.281   7.724  19.069  0.00  0.00    +0.000 A 
ATOM     12  C   UNL     1      39.003   7.678  20.225  0.00  0.00    +0.000 A 
ATOM     13  C   UNL     1      40.174   6.932  20.254  0.00  0.00    +0.000 A 
ATOM     14  C   UNL     1      40.600   6.244  19.118  0.00  0.00    +0.000 A 
ATOM     15  C   UNL     1      39.877   6.285  17.941  0.00  0.00    +0.000 A 
ATOM     16  C   UNL     1      40.311   5.598  16.822  0.00  0.00    +0.000 A 
ENDBRANCH   5   7
ENDBRANCH   3   6
ENDBRANCH   2   3
ENDBRANCH   1   2
BRANCH   1  17
ATOM     17  C   UNL     1      40.337  -0.604  13.595  0.00  0.00    +0.000 C 
BRANCH  17  18
ATOM     18  N   UNL     1      39.142  -1.374  13.308  0.00  0.00    +0.000 NA
ATOM     19  C   UNL     1      37.994  -0.536  13.350  0.00  0.00    +0.000 C 
ATOM     20  C   UNL     1      36.911  -0.975  14.272  0.00  0.00    +0.000 C 
ATOM     21  C   UNL     1      37.448  -1.463  15.592  0.00  0.00    +0.000 A 
ATOM     22  C   UNL     1      38.569  -2.294  15.484  0.00  0.00    +0.000 A 
ATOM     23  C   UNL     1      39.117  -2.778  16.629  0.00  0.00    +0.000 A 
ATOM     24  C   UNL     1      38.568  -2.446  17.850  0.00  0.00    +0.000 A 
ATOM     25  C   UNL     1      37.464  -1.628  17.949  0.00  0.00    +0.000 A 
ATOM     26  C   UNL     1      36.932  -1.311  19.185  0.00  0.00    +0.000 A 
ATOM     27  C   UNL     1      35.822  -0.480  19.196  0.00  0.00    +0.000 A 
ATOM     28  C   UNL     1      35.252   0.019  18.062  0.00  0.00    +0.000 A 
ATOM     29  C   UNL     1      35.780  -0.296  16.824  0.00  0.00    +0.000 A 
ATOM     30  C   UNL     1      36.889  -1.122  16.791  0.00  0.00    +0.000 A 
ATOM     31  C   UNL     1      39.050  -2.564  14.115  0.00  0.00    +0.000 C 
ENDBRANCH  17  18
ENDBRANCH   1  17
TORSDOF 6
ENDMDL
MODEL 6
REMARK VINA RESULT:      -8.2      1.968      8.472
REMARK  Name = 
REMARK  6 active torsions:
REMARK  status: ('A' for Active; 'I' for Inactive)
REMARK    1  A    between atoms: C_2  and  C_22
REMARK    2  A    between atoms: N_3  and  C_4
REMARK    3  A    between atoms: C_4  and  C_5
REMARK    4  A    between atoms: C_5  and  C_6
REMARK    5  A    between atoms: C_6  and  C_7
REMARK    6  A    between atoms: C_7  and  N_8
REMARK                            x       y       z     vdW  Elec       q    Type
REMARK                         _______ _______ _______ _____ _____    ______ ____
ROOT
ATOM      1  C   UNL     1      38.516   2.744  12.207  0.00  0.00    +0.000 C 
ENDROOT
BRANCH   1   2
ATOM      2  C   UNL     1      39.061   3.968  12.899  0.00  0.00    +0.000 C 
BRANCH   2   3
ATOM      3  C   UNL     1      38.034   4.636  13.787  0.00  0.00    +0.000 C 
BRANCH   3   6
ATOM      4  O   UNL     1      38.185   3.612  16.322  0.00  0.00    +0.000 OA
ATOM      5  C   UNL     1      38.811   4.684  16.132  0.00  0.00    +0.000 C 
ATOM      6  N   UNL     1      38.792   5.283  14.867  0.00  0.00    +0.000 NA
BRANCH   5   7
ATOM      7  C   UNL     1      39.571   5.328  17.222  0.00  0.00    +0.000 A 
ATOM      8  C   UNL     1      39.038   5.455  18.487  0.00  0.00    +0.000 A 
ATOM      9  N   UNL     1      39.706   6.038  19.508  0.00  0.00    +0.000 NA
ATOM     10  C   UNL     1      40.949   6.536  19.346  0.00  0.00    +0.000 A 
ATOM     11  C   UNL     1      41.613   7.129  20.408  0.00  0.00    +0.000 A 
ATOM     12  C   UNL     1      42.869   7.631  20.234  0.00  0.00    +0.000 A 
ATOM     13  C   UNL     1      43.462   7.534  18.981  0.00  0.00    +0.000 A 
ATOM     14  C   UNL     1      42.779   6.933  17.924  0.00  0.00    +0.000 A 
ATOM     15  C   UNL     1      41.506   6.423  18.088  0.00  0.00    +0.000 A 
ATOM     16  C   UNL     1      40.840   5.830  17.031  0.00  0.00    +0.000 A 
ENDBRANCH   5   7
ENDBRANCH   3   6
ENDBRANCH   2   3
ENDBRANCH   1   2
BRANCH   1  17
ATOM     17  C   UNL     1      38.521   1.616  13.205  0.00  0.00    +0.000 C 
BRANCH  17  18
ATOM     18  N   UNL     1      37.286   0.855  13.181  0.00  0.00    +0.000 NA
ATOM     19  C   UNL     1      36.394   1.333  14.179  0.00  0.00    +0.000 C 
ATOM     20  C   UNL     1      35.896   0.311  15.140  0.00  0.00    +0.000 C 
ATOM     21  C   UNL     1      36.987  -0.625  15.592  0.00  0.00    +0.000 A 
ATOM     22  C   UNL     1      37.822  -1.071  14.562  0.00  0.00    +0.000 A 
ATOM     23  C   UNL     1      38.833  -1.920  14.884  0.00  0.00    +0.000 A 
ATOM     24  C   UNL     1      39.011  -2.316  16.194  0.00  0.00    +0.000 A 
ATOM     25  C   UNL     1      38.183  -1.872  17.202  0.00  0.00    +0.000 A 
ATOM     26  C   UNL     1      38.381  -2.284  18.507  0.00  0.00    +0.000 A 
ATOM     27  C   UNL     1      37.504  -1.790  19.461  0.00  0.00    +0.000 A 
ATOM     28  C   UNL     1      36.482  -0.938  19.164  0.00  0.00    +0.000 A 
ATOM     29  C   UNL     1      36.280  -0.524  17.862  0.00  0.00    +0.000 A 
ATOM     30  C   UNL     1      37.144  -1.004  16.894  0.00  0.00    +0.000 A 
ATOM     31  C   UNL     1      37.517  -0.567  13.209  0.00  0.00    +0.000 C 
ENDBRANCH  17  18
ENDBRANCH   1  17
TORSDOF 6
ENDMDL
MODEL 7
REMARK VINA RESULT:      -8.0     25.569     28.244
REMARK  Name = 
REMARK  6 active torsions:
REMARK  status: ('A' for Active; 'I' for Inactive)
REMARK    1  A    between atoms: C_2  and  C_22
REMARK    2  A    between atoms: N_3  and  C_4
REMARK    3  A    between atoms: C_4  and  C_5
REMARK    4  A    between atoms: C_5  and  C_6
REMARK    5  A    between atoms: C_6  and  C_7
REMARK    6  A    between atoms: C_7  and  N_8
REMARK                            x       y       z     vdW  Elec       q    Type
REMARK                         _______ _______ _______ _____ _____    ______ ____
ROOT
ATOM      1  C   UNL     1      24.239  17.566  39.664  0.00  0.00    +0.000 C 
ENDROOT
BRANCH   1   2
ATOM      2  C   UNL     1      23.645  16.179  39.644  0.00  0.00    +0.000 C 
BRANCH   2   3
ATOM      3  C   UNL     1      23.816  15.459  40.964  0.00  0.00    +0.000 C 
BRANCH   3   6
ATOM      4  O   UNL     1      25.940  14.953  42.616  0.00  0.00    +0.000 OA
ATOM      5  C   UNL     1      25.837  14.198  41.617  0.00  0.00    +0.000 C 
ATOM      6  N   UNL     1      24.781  14.380  40.716  0.00  0.00    +0.000 NA
BRANCH   5   7
ATOM      7  C   UNL     1      26.811  13.115  41.375  0.00  0.00    +0.000 A 
ATOM      8  C   UNL     1      28.001  13.357  40.723  0.00  0.00    +0.000 A 
ATOM      9  N   UNL     1      28.916  12.389  40.484  0.00  0.00    +0.000 NA
ATOM     10  C   UNL     1      28.714  11.115  40.877  0.00  0.00    +0.000 A 
ATOM     11  C   UNL     1      29.667  10.141  40.621  0.00  0.00    +0.000 A 
ATOM     12  C   UNL     1      29.453   8.855  41.021  0.00  0.00    +0.000 A 
ATOM     13  C   UNL     1      28.272   8.546  41.684  0.00  0.00    +0.000 A 
ATOM     14  C   UNL     1      27.325   9.539  41.934  0.00  0.00    +0.000 A 
ATOM     15  C   UNL     1      27.530  10.845  41.532  0.00  0.00    +0.000 A 
ATOM     16  C   UNL     1      26.581  11.819  41.786  0.00  0.00    +0.000 A 
ENDBRANCH   5   7
ENDBRANCH   3   6
ENDBRANCH   2   3
ENDBRANCH   1   2
BRANCH   1  17
ATOM     17  C   UNL     1      23.581  18.359  38.567  0.00  0.00    +0.000 C 
BRANCH  17  18
ATOM     18  N   UNL     1      24.542  19.102  37.773  0.00  0.00    +0.000 NA
ATOM     19  C   UNL     1      23.989  19.422  36.503  0.00  0.00    +0.000 C 
ATOM     20  C   UNL     1      24.784  18.978  35.325  0.00  0.00    +0.000 C 
ATOM     21  C   UNL     1      25.332  17.585  35.499  0.00  0.00    +0.000 A 
ATOM     22  C   UNL     1      25.874  17.336  36.765  0.00  0.00    +0.000 A 
ATOM     23  C   UNL     1      26.390  16.103  37.006  0.00  0.00    +0.000 A 
ATOM     24  C   UNL     1      26.369  15.141  36.017  0.00  0.00    +0.000 A 
ATOM     25  C   UNL     1      25.833  15.394  34.773  0.00  0.00    +0.000 A 
ATOM     26  C   UNL     1      25.826  14.413  33.799  0.00  0.00    +0.000 A 
ATOM     27  C   UNL     1      25.267  14.750  32.575  0.00  0.00    +0.000 A 
ATOM     28  C   UNL     1      24.742  15.980  32.307  0.00  0.00    +0.000 A 
ATOM     29  C   UNL     1      24.749  16.963  33.277  0.00  0.00    +0.000 A 
ATOM     30  C   UNL     1      25.301  16.648  34.506  0.00  0.00    +0.000 A 
ATOM     31  C   UNL     1      25.829  18.456  37.725  0.00  0.00    +0.000 C 
ENDBRANCH  17  18
ENDBRANCH   1  17
TORSDOF 6
ENDMDL
MODEL 8
REMARK VINA RESULT:      -7.9     28.712     32.165
REMARK  Name = 
REMARK  6 active torsions:
REMARK  status: ('A' for Active; 'I' for Inactive)
REMARK    1  A    between atoms: C_2  and  C_22
REMARK    2  A    between atoms: N_3  and  C_4
REMARK    3  A    between atoms: C_4  and  C_5
REMARK    4  A    between atoms: C_5  and  C_6
REMARK    5  A    between atoms: C_6  and  C_7
REMARK    6  A    between atoms: C_7  and  N_8
REMARK                            x       y       z     vdW  Elec       q    Type
REMARK                         _______ _______ _______ _____ _____    ______ ____
ROOT
ATOM      1  C   UNL     1      26.124 -15.700  44.546  0.00  0.00    +0.000 C 
ENDROOT
BRANCH   1   2
ATOM      2  C   UNL     1      25.542 -16.266  43.274  0.00  0.00    +0.000 C 
BRANCH   2   3
ATOM      3  C   UNL     1      24.063 -15.975  43.137  0.00  0.00    +0.000 C 
BRANCH   3   6
ATOM      4  O   UNL     1      23.782 -15.234  40.516  0.00  0.00    +0.000 OA
ATOM      5  C   UNL     1      23.822 -14.291  41.345  0.00  0.00    +0.000 C 
ATOM      6  N   UNL     1      23.964 -14.573  42.709  0.00  0.00    +0.000 NA
BRANCH   5   7
ATOM      7  C   UNL     1      23.720 -12.885  40.907  0.00  0.00    +0.000 A 
ATOM      8  C   UNL     1      23.294 -12.561  39.637  0.00  0.00    +0.000 A 
ATOM      9  N   UNL     1      23.188 -11.284  39.203  0.00  0.00    +0.000 NA
ATOM     10  C   UNL     1      23.498 -10.240  39.999  0.00  0.00    +0.000 A 
ATOM     11  C   UNL     1      23.381  -8.941  39.532  0.00  0.00    +0.000 A 
ATOM     12  C   UNL     1      23.699  -7.891  40.343  0.00  0.00    +0.000 A 
ATOM     13  C   UNL     1      24.135  -8.152  41.636  0.00  0.00    +0.000 A 
ATOM     14  C   UNL     1      24.246  -9.466  42.090  0.00  0.00    +0.000 A 
ATOM     15  C   UNL     1      23.929 -10.537  41.276  0.00  0.00    +0.000 A 
ATOM     16  C   UNL     1      24.044 -11.835  41.740  0.00  0.00    +0.000 A 
ENDBRANCH   5   7
ENDBRANCH   3   6
ENDBRANCH   2   3
ENDBRANCH   1   2
BRANCH   1  17
ATOM     17  C   UNL     1      26.300 -14.218  44.347  0.00  0.00    +0.000 C 
BRANCH  17  18
ATOM     18  N   UNL     1      27.693 -13.848  44.178  0.00  0.00    +0.000 NA
ATOM     19  C   UNL     1      27.867 -12.460  44.427  0.00  0.00    +0.000 C 
ATOM     20  C   UNL     1      28.512 -11.685  43.331  0.00  0.00    +0.000 C 
ATOM     21  C   UNL     1      27.986 -12.074  41.973  0.00  0.00    +0.000 A 
ATOM     22  C   UNL     1      27.850 -13.454  41.785  0.00  0.00    +0.000 A 
ATOM     23  C   UNL     1      27.381 -13.891  40.586  0.00  0.00    +0.000 A 
ATOM     24  C   UNL     1      27.056 -12.982  39.600  0.00  0.00    +0.000 A 
ATOM     25  C   UNL     1      27.193 -11.625  39.794  0.00  0.00    +0.000 A 
ATOM     26  C   UNL     1      26.862 -10.735  38.789  0.00  0.00    +0.000 A 
ATOM     27  C   UNL     1      27.029  -9.386  39.066  0.00  0.00    +0.000 A 
ATOM     28  C   UNL     1      27.497  -8.921  40.260  0.00  0.00    +0.000 A 
ATOM     29  C   UNL     1      27.830  -9.808  41.266  0.00  0.00    +0.000 A 
ATOM     30  C   UNL     1      27.670 -11.158  41.011  0.00  0.00    +0.000 A 
ATOM     31  C   UNL     1      28.234 -14.309  42.924  0.00  0.00    +0.000 C 
ENDBRANCH  17  18
ENDBRANCH   1  17
TORSDOF 6
ENDMDL
MODEL 9
REMARK VINA RESULT:      -7.9      5.424      9.830
REMARK  Name = 
REMARK  6 active torsions:
REMARK  status: ('A' for Active; 'I' for Inactive)
REMARK    1  A    between atoms: C_2  and  C_22
REMARK    2  A    between atoms: N_3  and  C_4
REMARK    3  A    between atoms: C_4  and  C_5
REMARK    4  A    between atoms: C_5  and  C_6
REMARK    5  A    between atoms: C_6  and  C_7
REMARK    6  A    between atoms: C_7  and  N_8
REMARK                            x       y       z     vdW  Elec       q    Type
REMARK                         _______ _______ _______ _____ _____    ______ ____
ROOT
ATOM      1  C   UNL     1      36.489   4.900  14.654  0.00  0.00    +0.000 C 
ENDROOT
BRANCH   1   2
ATOM      2  C   UNL     1      35.556   5.136  13.493  0.00  0.00    +0.000 C 
BRANCH   2   3
ATOM      3  C   UNL     1      35.473   6.597  13.106  0.00  0.00    +0.000 C 
BRANCH   3   6
ATOM      4  O   UNL     1      36.903   6.270  10.794  0.00  0.00    +0.000 OA
ATOM      5  C   UNL     1      35.669   6.451  10.647  0.00  0.00    +0.000 C 
ATOM      6  N   UNL     1      34.855   6.628  11.773  0.00  0.00    +0.000 NA
BRANCH   5   7
ATOM      7  C   UNL     1      35.056   6.480   9.304  0.00  0.00    +0.000 A 
ATOM      8  C   UNL     1      34.075   7.394   8.986  0.00  0.00    +0.000 A 
ATOM      9  N   UNL     1      33.492   7.450   7.767  0.00  0.00    +0.000 NA
ATOM     10  C   UNL     1      33.843   6.602   6.778  0.00  0.00    +0.000 A 
ATOM     11  C   UNL     1      33.232   6.679   5.536  0.00  0.00    +0.000 A 
ATOM     12  C   UNL     1      33.592   5.816   4.543  0.00  0.00    +0.000 A 
ATOM     13  C   UNL     1      34.577   4.871   4.801  0.00  0.00    +0.000 A 
ATOM     14  C   UNL     1      35.182   4.809   6.056  0.00  0.00    +0.000 A 
ATOM     15  C   UNL     1      34.823   5.676   7.070  0.00  0.00    +0.000 A 
ATOM     16  C   UNL     1      35.432   5.603   8.310  0.00  0.00    +0.000 A 
ENDBRANCH   5   7
ENDBRANCH   3   6
ENDBRANCH   2   3
ENDBRANCH   1   2
BRANCH   1  17
ATOM     17  C   UNL     1      36.766   3.422  14.724  0.00  0.00    +0.000 C 
BRANCH  17  18
ATOM     18  N   UNL     1      35.552   2.642  14.876  0.00  0.00    +0.000 NA
ATOM     19  C   UNL     1      35.157   2.606  16.240  0.00  0.00    +0.000 C 
ATOM     20  C   UNL     1      34.974   1.248  16.822  0.00  0.00    +0.000 C 
ATOM     21  C   UNL     1      36.066   0.297  16.403  0.00  0.00    +0.000 A 
ATOM     22  C   UNL     1      36.400   0.370  15.046  0.00  0.00    +0.000 A 
ATOM     23  C   UNL     1      37.377  -0.455  14.585  0.00  0.00    +0.000 A 
ATOM     24  C   UNL     1      38.004  -1.329  15.447  0.00  0.00    +0.000 A 
ATOM     25  C   UNL     1      37.669  -1.395  16.782  0.00  0.00    +0.000 A 
ATOM     26  C   UNL     1      38.313  -2.282  17.625  0.00  0.00    +0.000 A 
ATOM     27  C   UNL     1      37.915  -2.284  18.954  0.00  0.00    +0.000 A 
ATOM     28  C   UNL     1      36.939  -1.467  19.442  0.00  0.00    +0.000 A 
ATOM     29  C   UNL     1      36.292  -0.581  18.603  0.00  0.00    +0.000 A 
ATOM     30  C   UNL     1      36.674  -0.561  17.273  0.00  0.00    +0.000 A 
ATOM     31  C   UNL     1      35.648   1.352  14.241  0.00  0.00    +0.000 C 
ENDBRANCH  17  18
ENDBRANCH   1  17
TORSDOF 6
ENDMDL
MODEL 10
REMARK VINA RESULT:      -7.9      5.745      8.773
REMARK  Name = 
REMARK  6 active torsions:
REMARK  status: ('A' for Active; 'I' for Inactive)
REMARK    1  A    between atoms: C_2  and  C_22
REMARK    2  A    between atoms: N_3  and  C_4
REMARK    3  A    between atoms: C_4  and  C_5
REMARK    4  A    between atoms: C_5  and  C_6
REMARK    5  A    between atoms: C_6  and  C_7
REMARK    6  A    between atoms: C_7  and  N_8
REMARK                            x       y       z     vdW  Elec       q    Type
REMARK                         _______ _______ _______ _____ _____    ______ ____
ROOT
ATOM      1  C   UNL     1      43.534  10.168  17.683  0.00  0.00    +0.000 C 
ENDROOT
BRANCH   1   2
ATOM      2  C   UNL     1      42.684  10.961  18.644  0.00  0.00    +0.000 C 
BRANCH   2   3
ATOM      3  C   UNL     1      41.636  10.110  19.327  0.00  0.00    +0.000 C 
BRANCH   3   6
ATOM      4  O   UNL     1      39.080   9.466  20.069  0.00  0.00    +0.000 OA
ATOM      5  C   UNL     1      39.259   9.641  18.838  0.00  0.00    +0.000 C 
ATOM      6  N   UNL     1      40.534   9.974  18.364  0.00  0.00    +0.000 NA
BRANCH   5   7
ATOM      7  C   UNL     1      38.147   9.504  17.877  0.00  0.00    +0.000 A 
ATOM      8  C   UNL     1      38.382   9.243  16.544  0.00  0.00    +0.000 A 
ATOM      9  N   UNL     1      37.388   9.111  15.637  0.00  0.00    +0.000 NA
ATOM     10  C   UNL     1      36.091   9.229  15.988  0.00  0.00    +0.000 A 
ATOM     11  C   UNL     1      35.090   9.089  15.041  0.00  0.00    +0.000 A 
ATOM     12  C   UNL     1      33.781   9.210  15.406  0.00  0.00    +0.000 A 
ATOM     13  C   UNL     1      33.478   9.473  16.735  0.00  0.00    +0.000 A 
ATOM     14  C   UNL     1      34.498   9.610  17.676  0.00  0.00    +0.000 A 
ATOM     15  C   UNL     1      35.828   9.491  17.318  0.00  0.00    +0.000 A 
ATOM     16  C   UNL     1      36.829   9.629  18.261  0.00  0.00    +0.000 A 
ENDBRANCH   5   7
ENDBRANCH   3   6
ENDBRANCH   2   3
ENDBRANCH   1   2
BRANCH   1  17
ATOM     17  C   UNL     1      44.603   9.475  18.486  0.00  0.00    +0.000 C 
BRANCH  17  18
ATOM     18  N   UNL     1      44.885   8.141  17.990  0.00  0.00    +0.000 NA
ATOM     19  C   UNL     1      44.255   7.940  16.732  0.00  0.00    +0.000 C 
ATOM     20  C   UNL     1      43.356   6.756  16.645  0.00  0.00    +0.000 C 
ATOM     21  C   UNL     1      42.494   6.604  17.871  0.00  0.00    +0.000 A 
ATOM     22  C   UNL     1      43.175   6.800  19.078  0.00  0.00    +0.000 A 
ATOM     23  C   UNL     1      42.470   6.680  20.234  0.00  0.00    +0.000 A 
ATOM     24  C   UNL     1      41.126   6.373  20.194  0.00  0.00    +0.000 A 
ATOM     25  C   UNL     1      40.463   6.181  19.001  0.00  0.00    +0.000 A 
ATOM     26  C   UNL     1      39.116   5.873  18.988  0.00  0.00    +0.000 A 
ATOM     27  C   UNL     1      38.525   5.696  17.745  0.00  0.00    +0.000 A 
ATOM     28  C   UNL     1      39.209   5.811  16.571  0.00  0.00    +0.000 A 
ATOM     29  C   UNL     1      40.556   6.118  16.580  0.00  0.00    +0.000 A 
ATOM     30  C   UNL     1      41.165   6.299  17.809  0.00  0.00    +0.000 A 
ATOM     31  C   UNL     1      44.611   7.123  18.972  0.00  0.00    +0.000 C 
ENDBRANCH  17  18
ENDBRANCH   1  17
TORSDOF 6
ENDMDL
