MODEL 1
REMARK VINA RESULT:      -7.0      0.000      0.000
REMARK  Name = 
REMARK  3 active torsions:
REMARK  status: ('A' for Active; 'I' for Inactive)
REMARK    1  A    between atoms: C_2  and  C_3
REMARK    2  A    between atoms: C_3  and  N_4
REMARK    3  A    between atoms: C_11  and  C_12
REMARK                            x       y       z     vdW  Elec       q    Type
REMARK                         _______ _______ _______ _____ _____    ______ ____
ROOT
ATOM      1  N   UNL     1      28.683  24.957  23.374  0.00  0.00    +0.000 N 
ATOM      2  C   UNL     1      28.628  24.164  22.202  0.00  0.00    +0.000 C 
ATOM      3  O   UNL     1      29.647  24.125  21.462  0.00  0.00    +0.000 OA
ATOM      4  N   UNL     1      27.501  23.415  21.819  0.00  0.00    +0.000 NA
ATOM      5  C   UNL     1      26.339  23.430  22.619  0.00  0.00    +0.000 C 
ATOM      6  O   UNL     1      25.299  22.788  22.340  0.00  0.00    +0.000 OA
ATOM      7  C   UNL     1      26.320  24.234  23.859  0.00  0.00    +0.000 C 
ATOM      8  C   UNL     1      25.250  24.306  24.599  0.00  0.00    +0.000 C 
ATOM      9  C   UNL     1      27.511  24.985  24.200  0.00  0.00    +0.000 C 
ATOM     10  O   UNL     1      27.569  25.695  25.231  0.00  0.00    +0.000 OA
ENDROOT
BRANCH   8  11
ATOM     11  C   UNL     1      25.169  25.057  25.813  0.00  0.00    +0.000 A 
ATOM     12  C   UNL     1      24.639  26.349  25.953  0.00  0.00    +0.000 A 
ATOM     13  N   UNL     1      24.658  26.725  27.243  0.00  0.00    +0.000 N 
ATOM     14  C   UNL     1      24.197  27.993  27.806  0.00  0.00    +0.000 C 
ATOM     15  C   UNL     1      25.182  25.735  27.989  0.00  0.00    +0.000 A 
ATOM     16  C   UNL     1      25.403  25.622  29.357  0.00  0.00    +0.000 A 
ATOM     17  C   UNL     1      25.950  24.455  29.852  0.00  0.00    +0.000 A 
ATOM     18  C   UNL     1      26.262  23.439  29.008  0.00  0.00    +0.000 A 
ATOM     19  C   UNL     1      26.045  23.557  27.674  0.00  0.00    +0.000 A 
ATOM     20  C   UNL     1      25.500  24.705  27.120  0.00  0.00    +0.000 A 
ENDBRANCH   8  11
BRANCH   1  21
ATOM     21  C   UNL     1      29.861  25.730  23.759  0.00  0.00    +0.000 C 
BRANCH  21  23
ATOM     22  C   UNL     1      31.568  24.069  24.457  0.00  0.00    +0.000 C 
ATOM     23  C   UNL     1      30.597  24.923  24.787  0.00  0.00    +0.000 C 
ENDBRANCH  21  23
ENDBRANCH   1  21
TORSDOF 3
ENDMDL
MODEL 2
REMARK VINA RESULT:      -7.0      1.300      2.290
REMARK  Name = 
REMARK  3 active torsions:
REMARK  status: ('A' for Active; 'I' for Inactive)
REMARK    1  A    between atoms: C_2  and  C_3
REMARK    2  A    between atoms: C_3  and  N_4
REMARK    3  A    between atoms: C_11  and  C_12
REMARK                            x       y       z     vdW  Elec       q    Type
REMARK                         _______ _______ _______ _____ _____    ______ ____
ROOT
ATOM      1  N   UNL     1      28.967  24.357  23.456  0.00  0.00    +0.000 N 
ATOM      2  C   UNL     1      28.648  24.082  22.104  0.00  0.00    +0.000 C 
ATOM      3  O   UNL     1      29.513  24.342  21.224  0.00  0.00    +0.000 OA
ATOM      4  N   UNL     1      27.423  23.532  21.687  0.00  0.00    +0.000 NA
ATOM      5  C   UNL     1      26.428  23.224  22.639  0.00  0.00    +0.000 C 
ATOM      6  O   UNL     1      25.314  22.734  22.341  0.00  0.00    +0.000 OA
ATOM      7  C   UNL     1      26.688  23.483  24.071  0.00  0.00    +0.000 C 
ATOM      8  C   UNL     1      25.775  23.252  24.973  0.00  0.00    +0.000 C 
ATOM      9  C   UNL     1      27.968  24.052  24.438  0.00  0.00    +0.000 C 
ATOM     10  O   UNL     1      28.258  24.305  25.631  0.00  0.00    +0.000 OA
ENDROOT
BRANCH   8  11
ATOM     11  C   UNL     1      25.965  23.471  26.373  0.00  0.00    +0.000 A 
ATOM     12  C   UNL     1      26.864  22.786  27.204  0.00  0.00    +0.000 A 
ATOM     13  N   UNL     1      26.831  23.293  28.448  0.00  0.00    +0.000 N 
ATOM     14  C   UNL     1      27.613  22.860  29.605  0.00  0.00    +0.000 C 
ATOM     15  C   UNL     1      25.941  24.302  28.496  0.00  0.00    +0.000 A 
ATOM     16  C   UNL     1      25.553  25.148  29.528  0.00  0.00    +0.000 A 
ATOM     17  C   UNL     1      24.612  26.125  29.274  0.00  0.00    +0.000 A 
ATOM     18  C   UNL     1      24.080  26.250  28.030  0.00  0.00    +0.000 A 
ATOM     19  C   UNL     1      24.463  25.420  27.028  0.00  0.00    +0.000 A 
ATOM     20  C   UNL     1      25.403  24.419  27.225  0.00  0.00    +0.000 A 
ENDBRANCH   8  11
BRANCH   1  21
ATOM     21  C   UNL     1      30.245  24.928  23.873  0.00  0.00    +0.000 C 
BRANCH  21  23
ATOM     22  C   UNL     1      31.663  23.569  25.390  0.00  0.00    +0.000 C 
ATOM     23  C   UNL     1      31.162  23.780  24.171  0.00  0.00    +0.000 C 
ENDBRANCH  21  23
ENDBRANCH   1  21
TORSDOF 3
ENDMDL
MODEL 3
REMARK VINA RESULT:      -6.5      2.743      6.638
REMARK  Name = 
REMARK  3 active torsions:
REMARK  status: ('A' for Active; 'I' for Inactive)
REMARK    1  A    between atoms: C_2  and  C_3
REMARK    2  A    between atoms: C_3  and  N_4
REMARK    3  A    between atoms: C_11  and  C_12
REMARK                            x       y       z     vdW  Elec       q    Type
REMARK                         _______ _______ _______ _____ _____    ______ ____
ROOT
ATOM      1  N   UNL     1      26.280  25.284  29.396  0.00  0.00    +0.000 N 
ATOM      2  C   UNL     1      25.872  24.636  30.586  0.00  0.00    +0.000 C 
ATOM      3  O   UNL     1      25.329  25.331  31.486  0.00  0.00    +0.000 OA
ATOM      4  N   UNL     1      26.037  23.259  30.821  0.00  0.00    +0.000 NA
ATOM      5  C   UNL     1      26.639  22.443  29.839  0.00  0.00    +0.000 C 
ATOM      6  O   UNL     1      26.818  21.211  29.979  0.00  0.00    +0.000 OA
ATOM      7  C   UNL     1      27.091  23.048  28.569  0.00  0.00    +0.000 C 
ATOM      8  C   UNL     1      27.690  22.334  27.658  0.00  0.00    +0.000 C 
ATOM      9  C   UNL     1      26.895  24.472  28.386  0.00  0.00    +0.000 C 
ATOM     10  O   UNL     1      27.258  25.057  27.339  0.00  0.00    +0.000 OA
ENDROOT
BRANCH   8  11
ATOM     11  C   UNL     1      28.143  22.855  26.406  0.00  0.00    +0.000 A 
ATOM     12  C   UNL     1      29.465  23.189  26.077  0.00  0.00    +0.000 A 
ATOM     13  N   UNL     1      29.543  23.584  24.796  0.00  0.00    +0.000 N 
ATOM     14  C   UNL     1      30.737  24.014  24.070  0.00  0.00    +0.000 C 
ATOM     15  C   UNL     1      28.320  23.531  24.236  0.00  0.00    +0.000 A 
ATOM     16  C   UNL     1      27.874  23.817  22.951  0.00  0.00    +0.000 A 
ATOM     17  C   UNL     1      26.538  23.648  22.654  0.00  0.00    +0.000 A 
ATOM     18  C   UNL     1      25.679  23.208  23.609  0.00  0.00    +0.000 A 
ATOM     19  C   UNL     1      26.121  22.932  24.861  0.00  0.00    +0.000 A 
ATOM     20  C   UNL     1      27.452  23.084  25.218  0.00  0.00    +0.000 A 
ENDBRANCH   8  11
BRANCH   1  21
ATOM     21  C   UNL     1      26.103  26.716  29.166  0.00  0.00    +0.000 C 
BRANCH  21  23
ATOM     22  C   UNL     1      24.489  27.328  27.382  0.00  0.00    +0.000 C 
ATOM     23  C   UNL     1      24.716  26.904  28.628  0.00  0.00    +0.000 C 
ENDBRANCH  21  23
ENDBRANCH   1  21
TORSDOF 3
ENDMDL
MODEL 4
REMARK VINA RESULT:      -6.2      2.766      6.713
REMARK  Name = 
REMARK  3 active torsions:
REMARK  status: ('A' for Active; 'I' for Inactive)
REMARK    1  A    between atoms: C_2  and  C_3
REMARK    2  A    between atoms: C_3  and  N_4
REMARK    3  A    between atoms: C_11  and  C_12
REMARK                            x       y       z     vdW  Elec       q    Type
REMARK                         _______ _______ _______ _____ _____    ______ ____
ROOT
ATOM      1  N   UNL     1      26.135  25.187  29.175  0.00  0.00    +0.000 N 
ATOM      2  C   UNL     1      25.772  24.623  30.422  0.00  0.00    +0.000 C 
ATOM      3  O   UNL     1      25.203  25.365  31.267  0.00  0.00    +0.000 OA
ATOM      4  N   UNL     1      26.009  23.282  30.770  0.00  0.00    +0.000 NA
ATOM      5  C   UNL     1      26.642  22.416  29.854  0.00  0.00    +0.000 C 
ATOM      6  O   UNL     1      26.885  21.211  30.095  0.00  0.00    +0.000 OA
ATOM      7  C   UNL     1      27.050  22.931  28.530  0.00  0.00    +0.000 C 
ATOM      8  C   UNL     1      27.676  22.172  27.675  0.00  0.00    +0.000 C 
ATOM      9  C   UNL     1      26.780  24.323  28.230  0.00  0.00    +0.000 C 
ATOM     10  O   UNL     1      27.102  24.833  27.131  0.00  0.00    +0.000 OA
ENDROOT
BRANCH   8  11
ATOM     11  C   UNL     1      28.089  22.606  26.377  0.00  0.00    +0.000 A 
ATOM     12  C   UNL     1      27.255  22.808  25.267  0.00  0.00    +0.000 A 
ATOM     13  N   UNL     1      27.964  23.282  24.229  0.00  0.00    +0.000 N 
ATOM     14  C   UNL     1      27.468  23.622  22.896  0.00  0.00    +0.000 C 
ATOM     15  C   UNL     1      29.254  23.412  24.591  0.00  0.00    +0.000 A 
ATOM     16  C   UNL     1      30.370  23.867  23.899  0.00  0.00    +0.000 A 
ATOM     17  C   UNL     1      31.588  23.907  24.546  0.00  0.00    +0.000 A 
ATOM     18  C   UNL     1      31.684  23.506  25.840  0.00  0.00    +0.000 A 
ATOM     19  C   UNL     1      30.590  23.062  26.508  0.00  0.00    +0.000 A 
ATOM     20  C   UNL     1      29.341  22.998  25.909  0.00  0.00    +0.000 A 
ENDBRANCH   8  11
BRANCH   1  21
ATOM     21  C   UNL     1      25.882  26.583  28.827  0.00  0.00    +0.000 C 
BRANCH  21  23
ATOM     22  C   UNL     1      23.781  27.782  28.271  0.00  0.00    +0.000 C 
ATOM     23  C   UNL     1      24.492  26.651  28.270  0.00  0.00    +0.000 C 
ENDBRANCH  21  23
ENDBRANCH   1  21
TORSDOF 3
ENDMDL
MODEL 5
REMARK VINA RESULT:      -6.1     20.472     22.874
REMARK  Name = 
REMARK  3 active torsions:
REMARK  status: ('A' for Active; 'I' for Inactive)
REMARK    1  A    between atoms: C_2  and  C_3
REMARK    2  A    between atoms: C_3  and  N_4
REMARK    3  A    between atoms: C_11  and  C_12
REMARK                            x       y       z     vdW  Elec       q    Type
REMARK                         _______ _______ _______ _____ _____    ______ ____
ROOT
ATOM      1  N   UNL     1      26.397   5.968  15.641  0.00  0.00    +0.000 N 
ATOM      2  C   UNL     1      27.470   6.752  16.129  0.00  0.00    +0.000 C 
ATOM      3  O   UNL     1      28.076   7.503  15.318  0.00  0.00    +0.000 OA
ATOM      4  N   UNL     1      27.899   6.741  17.469  0.00  0.00    +0.000 NA
ATOM      5  C   UNL     1      27.248   5.916  18.411  0.00  0.00    +0.000 C 
ATOM      6  O   UNL     1      27.575   5.855  19.619  0.00  0.00    +0.000 OA
ATOM      7  C   UNL     1      26.117   5.070  17.977  0.00  0.00    +0.000 C 
ATOM      8  C   UNL     1      25.521   4.263  18.810  0.00  0.00    +0.000 C 
ATOM      9  C   UNL     1      25.723   5.123  16.583  0.00  0.00    +0.000 C 
ATOM     10  O   UNL     1      24.778   4.429  16.140  0.00  0.00    +0.000 OA
ENDROOT
BRANCH   8  11
ATOM     11  C   UNL     1      24.417   3.426  18.457  0.00  0.00    +0.000 A 
ATOM     12  C   UNL     1      23.066   3.801  18.438  0.00  0.00    +0.000 A 
ATOM     13  N   UNL     1      22.305   2.788  17.992  0.00  0.00    +0.000 N 
ATOM     14  C   UNL     1      20.852   2.775  17.824  0.00  0.00    +0.000 C 
ATOM     15  C   UNL     1      23.089   1.732  17.705  0.00  0.00    +0.000 A 
ATOM     16  C   UNL     1      22.797   0.468  17.207  0.00  0.00    +0.000 A 
ATOM     17  C   UNL     1      23.830  -0.420  16.990  0.00  0.00    +0.000 A 
ATOM     18  C   UNL     1      25.110  -0.055  17.261  0.00  0.00    +0.000 A 
ATOM     19  C   UNL     1      25.387   1.181  17.748  0.00  0.00    +0.000 A 
ATOM     20  C   UNL     1      24.390   2.114  17.987  0.00  0.00    +0.000 A 
ENDBRANCH   8  11
BRANCH   1  21
ATOM     21  C   UNL     1      25.963   5.990  14.247  0.00  0.00    +0.000 C 
BRANCH  21  23
ATOM     22  C   UNL     1      27.580   5.338  12.480  0.00  0.00    +0.000 C 
ATOM     23  C   UNL     1      26.805   4.991  13.511  0.00  0.00    +0.000 C 
ENDBRANCH  21  23
ENDBRANCH   1  21
TORSDOF 3
ENDMDL
MODEL 6
REMARK VINA RESULT:      -6.1     23.882     25.588
REMARK  Name = 
REMARK  3 active torsions:
REMARK  status: ('A' for Active; 'I' for Inactive)
REMARK    1  A    between atoms: C_2  and  C_3
REMARK    2  A    between atoms: C_3  and  N_4
REMARK    3  A    between atoms: C_11  and  C_12
REMARK                            x       y       z     vdW  Elec       q    Type
REMARK                         _______ _______ _______ _____ _____    ______ ____
ROOT
ATOM      1  N   UNL     1      33.817   0.603  35.267  0.00  0.00    +0.000 N 
ATOM      2  C   UNL     1      33.643   0.109  33.951  0.00  0.00    +0.000 C 
ATOM      3  O   UNL     1      33.519  -1.136  33.794  0.00  0.00    +0.000 OA
ATOM      4  N   UNL     1      33.597   0.929  32.810  0.00  0.00    +0.000 NA
ATOM      5  C   UNL     1      33.730   2.328  32.940  0.00  0.00    +0.000 C 
ATOM      6  O   UNL     1      33.699   3.119  31.969  0.00  0.00    +0.000 OA
ATOM      7  C   UNL     1      33.914   2.918  34.282  0.00  0.00    +0.000 C 
ATOM      8  C   UNL     1      34.084   4.201  34.436  0.00  0.00    +0.000 C 
ATOM      9  C   UNL     1      33.955   2.022  35.420  0.00  0.00    +0.000 C 
ATOM     10  O   UNL     1      34.115   2.447  36.588  0.00  0.00    +0.000 OA
ENDROOT
BRANCH   8  11
ATOM     11  C   UNL     1      34.258   4.836  35.705  0.00  0.00    +0.000 A 
ATOM     12  C   UNL     1      33.237   5.209  36.592  0.00  0.00    +0.000 A 
ATOM     13  N   UNL     1      33.760   5.718  37.720  0.00  0.00    +0.000 N 
ATOM     14  C   UNL     1      33.036   6.220  38.887  0.00  0.00    +0.000 C 
ATOM     15  C   UNL     1      35.103   5.705  37.636  0.00  0.00    +0.000 A 
ATOM     16  C   UNL     1      36.093   6.101  38.529  0.00  0.00    +0.000 A 
ATOM     17  C   UNL     1      37.416   5.949  38.170  0.00  0.00    +0.000 A 
ATOM     18  C   UNL     1      37.737   5.418  36.962  0.00  0.00    +0.000 A 
ATOM     19  C   UNL     1      36.766   5.035  36.096  0.00  0.00    +0.000 A 
ATOM     20  C   UNL     1      35.420   5.165  36.401  0.00  0.00    +0.000 A 
ENDBRANCH   8  11
BRANCH   1  21
ATOM     21  C   UNL     1      33.863  -0.262  36.443  0.00  0.00    +0.000 C 
BRANCH  21  23
ATOM     22  C   UNL     1      36.072  -0.363  37.570  0.00  0.00    +0.000 C 
ATOM     23  C   UNL     1      35.274  -0.752  36.572  0.00  0.00    +0.000 C 
ENDBRANCH  21  23
ENDBRANCH   1  21
TORSDOF 3
ENDMDL
MODEL 7
REMARK VINA RESULT:      -6.1     29.570     31.298
REMARK  Name = 
REMARK  3 active torsions:
REMARK  status: ('A' for Active; 'I' for Inactive)
REMARK    1  A    between atoms: C_2  and  C_3
REMARK    2  A    between atoms: C_3  and  N_4
REMARK    3  A    between atoms: C_11  and  C_12
REMARK                            x       y       z     vdW  Elec       q    Type
REMARK                         _______ _______ _______ _____ _____    ______ ____
ROOT
ATOM      1  N   UNL     1      34.165  -1.939  34.732  0.00  0.00    +0.000 N 
ATOM      2  C   UNL     1      35.142  -1.781  35.745  0.00  0.00    +0.000 C 
ATOM      3  O   UNL     1      35.355  -0.621  36.190  0.00  0.00    +0.000 OA
ATOM      4  N   UNL     1      35.887  -2.845  36.284  0.00  0.00    +0.000 NA
ATOM      5  C   UNL     1      35.679  -4.160  35.815  0.00  0.00    +0.000 C 
ATOM      6  O   UNL     1      36.305  -5.155  36.248  0.00  0.00    +0.000 OA
ATOM      7  C   UNL     1      34.674  -4.405  34.759  0.00  0.00    +0.000 C 
ATOM      8  C   UNL     1      34.487  -5.599  34.272  0.00  0.00    +0.000 C 
ATOM      9  C   UNL     1      33.940  -3.268  34.242  0.00  0.00    +0.000 C 
ATOM     10  O   UNL     1      33.077  -3.396  33.342  0.00  0.00    +0.000 OA
ENDROOT
BRANCH   8  11
ATOM     11  C   UNL     1      33.527  -5.905  33.257  0.00  0.00    +0.000 A 
ATOM     12  C   UNL     1      32.180  -6.239  33.466  0.00  0.00    +0.000 A 
ATOM     13  N   UNL     1      31.550  -6.396  32.290  0.00  0.00    +0.000 N 
ATOM     14  C   UNL     1      30.146  -6.744  32.074  0.00  0.00    +0.000 C 
ATOM     15  C   UNL     1      32.419  -6.182  31.285  0.00  0.00    +0.000 A 
ATOM     16  C   UNL     1      32.264  -6.206  29.903  0.00  0.00    +0.000 A 
ATOM     17  C   UNL     1      33.352  -5.921  29.103  0.00  0.00    +0.000 A 
ATOM     18  C   UNL     1      34.550  -5.620  29.667  0.00  0.00    +0.000 A 
ATOM     19  C   UNL     1      34.694  -5.599  31.016  0.00  0.00    +0.000 A 
ATOM     20  C   UNL     1      33.637  -5.879  31.869  0.00  0.00    +0.000 A 
ENDBRANCH   8  11
BRANCH   1  21
ATOM     21  C   UNL     1      33.399  -0.824  34.182  0.00  0.00    +0.000 C 
BRANCH  21  23
ATOM     22  C   UNL     1      34.111   0.935  32.582  0.00  0.00    +0.000 C 
ATOM     23  C   UNL     1      34.135  -0.343  32.968  0.00  0.00    +0.000 C 
ENDBRANCH  21  23
ENDBRANCH   1  21
TORSDOF 3
ENDMDL
MODEL 8
REMARK VINA RESULT:      -6.0     33.114     34.643
REMARK  Name = 
REMARK  3 active torsions:
REMARK  status: ('A' for Active; 'I' for Inactive)
REMARK    1  A    between atoms: C_2  and  C_3
REMARK    2  A    between atoms: C_3  and  N_4
REMARK    3  A    between atoms: C_11  and  C_12
REMARK                            x       y       z     vdW  Elec       q    Type
REMARK                         _______ _______ _______ _____ _____    ______ ____
ROOT
ATOM      1  N   UNL     1      20.910  -7.797  25.623  0.00  0.00    +0.000 N 
ATOM      2  C   UNL     1      21.001  -6.438  25.235  0.00  0.00    +0.000 C 
ATOM      3  O   UNL     1      21.983  -6.085  24.529  0.00  0.00    +0.000 OA
ATOM      4  N   UNL     1      20.055  -5.460  25.591  0.00  0.00    +0.000 NA
ATOM      5  C   UNL     1      18.939  -5.812  26.379  0.00  0.00    +0.000 C 
ATOM      6  O   UNL     1      18.058  -4.996  26.734  0.00  0.00    +0.000 OA
ATOM      7  C   UNL     1      18.775  -7.213  26.822  0.00  0.00    +0.000 C 
ATOM      8  C   UNL     1      17.780  -7.565  27.587  0.00  0.00    +0.000 C 
ATOM      9  C   UNL     1      19.783  -8.174  26.425  0.00  0.00    +0.000 C 
ATOM     10  O   UNL     1      19.716  -9.378  26.767  0.00  0.00    +0.000 OA
ENDROOT
BRANCH   8  11
ATOM     11  C   UNL     1      17.559  -8.902  28.043  0.00  0.00    +0.000 A 
ATOM     12  C   UNL     1      16.796  -9.883  27.392  0.00  0.00    +0.000 A 
ATOM     13  N   UNL     1      16.858 -11.046  28.063  0.00  0.00    +0.000 N 
ATOM     14  C   UNL     1      16.206 -12.307  27.717  0.00  0.00    +0.000 C 
ATOM     15  C   UNL     1      17.638 -10.894  29.149  0.00  0.00    +0.000 A 
ATOM     16  C   UNL     1      18.028 -11.784  30.144  0.00  0.00    +0.000 A 
ATOM     17  C   UNL     1      18.867 -11.341  31.146  0.00  0.00    +0.000 A 
ATOM     18  C   UNL     1      19.302 -10.055  31.150  0.00  0.00    +0.000 A 
ATOM     19  C   UNL     1      18.917  -9.192  30.177  0.00  0.00    +0.000 A 
ATOM     20  C   UNL     1      18.074  -9.580  29.146  0.00  0.00    +0.000 A 
ENDBRANCH   8  11
BRANCH   1  21
ATOM     21  C   UNL     1      21.901  -8.801  25.245  0.00  0.00    +0.000 C 
BRANCH  21  23
ATOM     22  C   UNL     1      21.929  -9.124  22.784  0.00  0.00    +0.000 C 
ATOM     23  C   UNL     1      21.417  -9.438  23.977  0.00  0.00    +0.000 C 
ENDBRANCH  21  23
ENDBRANCH   1  21
TORSDOF 3
ENDMDL
MODEL 9
REMARK VINA RESULT:      -5.9      2.261      5.543
REMARK  Name = 
REMARK  3 active torsions:
REMARK  status: ('A' for Active; 'I' for Inactive)
REMARK    1  A    between atoms: C_2  and  C_3
REMARK    2  A    between atoms: C_3  and  N_4
REMARK    3  A    between atoms: C_11  and  C_12
REMARK                            x       y       z     vdW  Elec       q    Type
REMARK                         _______ _______ _______ _____ _____    ______ ____
ROOT
ATOM      1  N   UNL     1      26.932  23.422  24.175  0.00  0.00    +0.000 N 
ATOM      2  C   UNL     1      26.562  23.285  22.815  0.00  0.00    +0.000 C 
ATOM      3  O   UNL     1      25.383  22.924  22.552  0.00  0.00    +0.000 OA
ATOM      4  N   UNL     1      27.436  23.529  21.741  0.00  0.00    +0.000 NA
ATOM      5  C   UNL     1      28.764  23.936  21.990  0.00  0.00    +0.000 C 
ATOM      6  O   UNL     1      29.597  24.171  21.084  0.00  0.00    +0.000 OA
ATOM      7  C   UNL     1      29.223  24.102  23.385  0.00  0.00    +0.000 C 
ATOM      8  C   UNL     1      30.455  24.434  23.653  0.00  0.00    +0.000 C 
ATOM      9  C   UNL     1      28.277  23.834  24.449  0.00  0.00    +0.000 C 
ATOM     10  O   UNL     1      28.595  23.947  25.656  0.00  0.00    +0.000 OA
ENDROOT
BRANCH   8  11
ATOM     11  C   UNL     1      30.960  24.620  24.978  0.00  0.00    +0.000 A 
ATOM     12  C   UNL     1      31.492  23.622  25.809  0.00  0.00    +0.000 A 
ATOM     13  N   UNL     1      31.935  24.158  26.959  0.00  0.00    +0.000 N 
ATOM     14  C   UNL     1      32.555  23.459  28.083  0.00  0.00    +0.000 C 
ATOM     15  C   UNL     1      31.724  25.487  26.942  0.00  0.00    +0.000 A 
ATOM     16  C   UNL     1      32.011  26.483  27.869  0.00  0.00    +0.000 A 
ATOM     17  C   UNL     1      31.691  27.791  27.566  0.00  0.00    +0.000 A 
ATOM     18  C   UNL     1      31.106  28.090  26.377  0.00  0.00    +0.000 A 
ATOM     19  C   UNL     1      30.828  27.112  25.479  0.00  0.00    +0.000 A 
ATOM     20  C   UNL     1      31.125  25.781  25.729  0.00  0.00    +0.000 A 
ENDBRANCH   8  11
BRANCH   1  21
ATOM     21  C   UNL     1      26.013  23.164  25.281  0.00  0.00    +0.000 C 
BRANCH  21  23
ATOM     22  C   UNL     1      24.874  25.363  25.116  0.00  0.00    +0.000 C 
ATOM     23  C   UNL     1      25.600  24.498  25.828  0.00  0.00    +0.000 C 
ENDBRANCH  21  23
ENDBRANCH   1  21
TORSDOF 3
ENDMDL
MODEL 10
REMARK VINA RESULT:      -5.8     29.493     31.250
REMARK  Name = 
REMARK  3 active torsions:
REMARK  status: ('A' for Active; 'I' for Inactive)
REMARK    1  A    between atoms: C_2  and  C_3
REMARK    2  A    between atoms: C_3  and  N_4
REMARK    3  A    between atoms: C_11  and  C_12
REMARK                            x       y       z     vdW  Elec       q    Type
REMARK                         _______ _______ _______ _____ _____    ______ ____
ROOT
ATOM      1  N   UNL     1      33.921  -1.817  34.734  0.00  0.00    +0.000 N 
ATOM      2  C   UNL     1      34.528  -1.719  36.010  0.00  0.00    +0.000 C 
ATOM      3  O   UNL     1      34.518  -0.600  36.590  0.00  0.00    +0.000 OA
ATOM      4  N   UNL     1      35.141  -2.801  36.667  0.00  0.00    +0.000 NA
ATOM      5  C   UNL     1      35.173  -4.072  36.054  0.00  0.00    +0.000 C 
ATOM      6  O   UNL     1      35.701  -5.079  36.580  0.00  0.00    +0.000 OA
ATOM      7  C   UNL     1      34.559  -4.252  34.723  0.00  0.00    +0.000 C 
ATOM      8  C   UNL     1      34.609  -5.401  34.108  0.00  0.00    +0.000 C 
ATOM      9  C   UNL     1      33.944  -3.100  34.095  0.00  0.00    +0.000 C 
ATOM     10  O   UNL     1      33.409  -3.174  32.964  0.00  0.00    +0.000 OA
ENDROOT
BRANCH   8  11
ATOM     11  C   UNL     1      34.027  -5.644  32.825  0.00  0.00    +0.000 A 
ATOM     12  C   UNL     1      34.702  -5.636  31.595  0.00  0.00    +0.000 A 
ATOM     13  N   UNL     1      33.864  -5.972  30.599  0.00  0.00    +0.000 N 
ATOM     14  C   UNL     1      34.176  -6.079  29.175  0.00  0.00    +0.000 C 
ATOM     15  C   UNL     1      32.641  -6.211  31.106  0.00  0.00    +0.000 A 
ATOM     16  C   UNL     1      31.448  -6.599  30.507  0.00  0.00    +0.000 A 
ATOM     17  C   UNL     1      30.334  -6.791  31.298  0.00  0.00    +0.000 A 
ATOM     18  C   UNL     1      30.412  -6.601  32.640  0.00  0.00    +0.000 A 
ATOM     19  C   UNL     1      31.579  -6.220  33.218  0.00  0.00    +0.000 A 
ATOM     20  C   UNL     1      32.730  -6.012  32.473  0.00  0.00    +0.000 A 
ENDBRANCH   8  11
BRANCH   1  21
ATOM     21  C   UNL     1      33.288  -0.684  34.064  0.00  0.00    +0.000 C 
BRANCH  21  23
ATOM     22  C   UNL     1      34.094   1.018  32.447  0.00  0.00    +0.000 C 
ATOM     23  C   UNL     1      34.289  -0.135  33.092  0.00  0.00    +0.000 C 
ENDBRANCH  21  23
ENDBRANCH   1  21
TORSDOF 3
ENDMDL
