MODEL 1
REMARK VINA RESULT:      -8.2      0.000      0.000
REMARK  Name = 
REMARK  7 active torsions:
REMARK  status: ('A' for Active; 'I' for Inactive)
REMARK    1  A    between atoms: N_2  and  C_4
REMARK    2  A    between atoms: C_7  and  C_8
REMARK    3  A    between atoms: C_9  and  C_10
REMARK    4  A    between atoms: N_12  and  C_13
REMARK    5  A    between atoms: C_13  and  C_14
REMARK    6  A    between atoms: C_14  and  C_15
REMARK    7  A    between atoms: C_22  and  C_23
REMARK                            x       y       z     vdW  Elec       q    Type
REMARK                         _______ _______ _______ _____ _____    ______ ____
ROOT
ATOM      1  C   UNL     1      37.220   1.678  15.138  0.00  0.00    +0.000 C 
ATOM      2  C   UNL     1      36.884   2.631  15.926  0.00  0.00    +0.000 C 
ATOM      3  C   UNL     1      35.296   2.430  16.212  0.00  0.00    +0.000 C 
ATOM      4  O   UNL     1      35.047   1.727  14.867  0.00  0.00    +0.000 OA
ATOM      5  N   UNL     1      36.074   0.873  14.855  0.00  0.00    +0.000 NA
ENDROOT
BRANCH   1   9
ATOM      6  C   UNL     1      41.154   0.965  13.649  0.00  0.00    +0.000 A 
ATOM      7  C   UNL     1      40.471  -0.005  14.373  0.00  0.00    +0.000 A 
ATOM      8  C   UNL     1      39.202   0.263  14.843  0.00  0.00    +0.000 A 
ATOM      9  C   UNL     1      38.569   1.468  14.622  0.00  0.00    +0.000 A 
ATOM     10  C   UNL     1      39.285   2.388  13.903  0.00  0.00    +0.000 A 
ATOM     11  C   UNL     1      40.548   2.176  13.414  0.00  0.00    +0.000 A 
BRANCH   6  13
ATOM     12  C   UNL     1      43.163   1.801  12.452  0.00  0.00    +0.000 C 
ATOM     13  N   UNL     1      42.458   0.753  13.141  0.00  0.00    +0.000 N 
ATOM     14  C   UNL     1      43.081  -0.542  13.320  0.00  0.00    +0.000 C 
ENDBRANCH   6  13
ENDBRANCH   1   9
BRANCH   3  15
ATOM     15  C   UNL     1      35.404   1.139  17.104  0.00  0.00    +0.000 A 
ATOM     16  C   UNL     1      34.590   0.107  16.773  0.00  0.00    +0.000 A 
ATOM     17  C   UNL     1      34.622  -1.098  17.524  0.00  0.00    +0.000 A 
ATOM     18  C   UNL     1      35.496  -1.171  18.579  0.00  0.00    +0.000 A 
ATOM     19  C   UNL     1      36.306  -0.128  18.896  0.00  0.00    +0.000 A 
ATOM     20  C   UNL     1      36.245   1.022  18.145  0.00  0.00    +0.000 A 
ENDBRANCH   3  15
BRANCH   2  21
ATOM     21  C   UNL     1      37.567   3.743  16.557  0.00  0.00    +0.000 C 
ATOM     22  O   UNL     1      37.930   3.672  17.775  0.00  0.00    +0.000 OA
ATOM     23  N   UNL     1      37.891   4.956  15.934  0.00  0.00    +0.000 NA
BRANCH  23  24
ATOM     24  C   UNL     1      38.574   6.053  16.579  0.00  0.00    +0.000 C 
BRANCH  24  25
ATOM     25  C   UNL     1      40.082   5.956  16.387  0.00  0.00    +0.000 C 
BRANCH  25  26
ATOM     26  C   UNL     1      40.693   6.203  17.716  0.00  0.00    +0.000 A 
ATOM     27  C   UNL     1      39.944   6.226  18.851  0.00  0.00    +0.000 A 
ATOM     28  C   UNL     1      40.466   6.454  20.114  0.00  0.00    +0.000 A 
ATOM     29  C   UNL     1      41.811   6.665  20.221  0.00  0.00    +0.000 A 
ATOM     30  C   UNL     1      42.593   6.647  19.087  0.00  0.00    +0.000 A 
ATOM     31  C   UNL     1      42.053   6.417  17.818  0.00  0.00    +0.000 A 
ATOM     32  F   UNL     1      42.864   6.408  16.731  0.00  0.00    +0.000 F 
ENDBRANCH  25  26
ENDBRANCH  24  25
ENDBRANCH  23  24
ENDBRANCH   2  21
TORSDOF 7
ENDMDL
MODEL 2
REMARK VINA RESULT:      -8.1      2.709      7.053
REMARK  Name = 
REMARK  7 active torsions:
REMARK  status: ('A' for Active; 'I' for Inactive)
REMARK    1  A    between atoms: N_2  and  C_4
REMARK    2  A    between atoms: C_7  and  C_8
REMARK    3  A    between atoms: C_9  and  C_10
REMARK    4  A    between atoms: N_12  and  C_13
REMARK    5  A    between atoms: C_13  and  C_14
REMARK    6  A    between atoms: C_14  and  C_15
REMARK    7  A    between atoms: C_22  and  C_23
REMARK                            x       y       z     vdW  Elec       q    Type
REMARK                         _______ _______ _______ _____ _____    ______ ____
ROOT
ATOM      1  C   UNL     1      39.074   4.110  14.945  0.00  0.00    +0.000 C 
ATOM      2  C   UNL     1      38.025   3.412  14.710  0.00  0.00    +0.000 C 
ATOM      3  C   UNL     1      38.176   2.888  13.178  0.00  0.00    +0.000 C 
ATOM      4  O   UNL     1      39.045   4.085  12.755  0.00  0.00    +0.000 OA
ATOM      5  N   UNL     1      39.900   4.128  13.780  0.00  0.00    +0.000 NA
ENDROOT
BRANCH   1   9
ATOM      6  C   UNL     1      39.962   6.119  18.603  0.00  0.00    +0.000 A 
ATOM      7  C   UNL     1      40.691   6.372  17.447  0.00  0.00    +0.000 A 
ATOM      8  C   UNL     1      40.378   5.700  16.283  0.00  0.00    +0.000 A 
ATOM      9  C   UNL     1      39.358   4.774  16.213  0.00  0.00    +0.000 A 
ATOM     10  C   UNL     1      38.671   4.565  17.379  0.00  0.00    +0.000 A 
ATOM     11  C   UNL     1      38.939   5.202  18.562  0.00  0.00    +0.000 A 
BRANCH   6  13
ATOM     12  C   UNL     1      41.510   6.634  20.474  0.00  0.00    +0.000 C 
ATOM     13  N   UNL     1      40.233   6.774  19.827  0.00  0.00    +0.000 N 
ATOM     14  C   UNL     1      39.202   7.594  20.430  0.00  0.00    +0.000 C 
ENDBRANCH   6  13
ENDBRANCH   1   9
BRANCH   3  15
ATOM     15  C   UNL     1      39.343   1.861  13.421  0.00  0.00    +0.000 A 
ATOM     16  C   UNL     1      40.352   1.870  12.516  0.00  0.00    +0.000 A 
ATOM     17  C   UNL     1      41.447   0.976  12.659  0.00  0.00    +0.000 A 
ATOM     18  C   UNL     1      41.439   0.121  13.730  0.00  0.00    +0.000 A 
ATOM     19  C   UNL     1      40.420   0.126  14.629  0.00  0.00    +0.000 A 
ATOM     20  C   UNL     1      39.377   1.005  14.456  0.00  0.00    +0.000 A 
ENDBRANCH   3  15
BRANCH   2  21
ATOM     21  C   UNL     1      36.846   3.029  15.461  0.00  0.00    +0.000 C 
ATOM     22  O   UNL     1      35.775   3.711  15.373  0.00  0.00    +0.000 OA
ATOM     23  N   UNL     1      36.753   1.925  16.319  0.00  0.00    +0.000 NA
BRANCH  23  24
ATOM     24  C   UNL     1      35.567   1.558  17.058  0.00  0.00    +0.000 C 
BRANCH  24  25
ATOM     25  C   UNL     1      35.206   0.095  16.833  0.00  0.00    +0.000 C 
BRANCH  25  26
ATOM     26  C   UNL     1      36.305  -0.707  17.425  0.00  0.00    +0.000 A 
ATOM     27  C   UNL     1      37.274  -1.268  16.651  0.00  0.00    +0.000 A 
ATOM     28  C   UNL     1      38.318  -2.025  17.155  0.00  0.00    +0.000 A 
ATOM     29  C   UNL     1      38.376  -2.217  18.507  0.00  0.00    +0.000 A 
ATOM     30  C   UNL     1      37.407  -1.659  19.312  0.00  0.00    +0.000 A 
ATOM     31  C   UNL     1      36.357  -0.897  18.791  0.00  0.00    +0.000 A 
ATOM     32  F   UNL     1      35.428  -0.369  19.625  0.00  0.00    +0.000 F 
ENDBRANCH  25  26
ENDBRANCH  24  25
ENDBRANCH  23  24
ENDBRANCH   2  21
TORSDOF 7
ENDMDL
MODEL 3
REMARK VINA RESULT:      -8.1      3.846      6.237
REMARK  Name = 
REMARK  7 active torsions:
REMARK  status: ('A' for Active; 'I' for Inactive)
REMARK    1  A    between atoms: N_2  and  C_4
REMARK    2  A    between atoms: C_7  and  C_8
REMARK    3  A    between atoms: C_9  and  C_10
REMARK    4  A    between atoms: N_12  and  C_13
REMARK    5  A    between atoms: C_13  and  C_14
REMARK    6  A    between atoms: C_14  and  C_15
REMARK    7  A    between atoms: C_22  and  C_23
REMARK                            x       y       z     vdW  Elec       q    Type
REMARK                         _______ _______ _______ _____ _____    ______ ____
ROOT
ATOM      1  C   UNL     1      38.238   3.528  15.377  0.00  0.00    +0.000 C 
ATOM      2  C   UNL     1      37.375   3.849  14.487  0.00  0.00    +0.000 C 
ATOM      3  C   UNL     1      37.047   2.480  13.673  0.00  0.00    +0.000 C 
ATOM      4  O   UNL     1      38.428   1.867  13.961  0.00  0.00    +0.000 OA
ATOM      5  N   UNL     1      38.535   2.134  15.266  0.00  0.00    +0.000 NA
ENDROOT
BRANCH   1   9
ATOM      6  C   UNL     1      39.973   6.290  18.127  0.00  0.00    +0.000 A 
ATOM      7  C   UNL     1      40.458   6.163  16.831  0.00  0.00    +0.000 A 
ATOM      8  C   UNL     1      39.875   5.256  15.970  0.00  0.00    +0.000 A 
ATOM      9  C   UNL     1      38.814   4.456  16.343  0.00  0.00    +0.000 A 
ATOM     10  C   UNL     1      38.375   4.623  17.630  0.00  0.00    +0.000 A 
ATOM     11  C   UNL     1      38.916   5.507  18.526  0.00  0.00    +0.000 A 
BRANCH   6  13
ATOM     12  C   UNL     1      41.823   7.786  18.838  0.00  0.00    +0.000 C 
ATOM     13  N   UNL     1      40.527   7.201  19.057  0.00  0.00    +0.000 N 
ATOM     14  C   UNL     1      39.770   7.542  20.244  0.00  0.00    +0.000 C 
ENDBRANCH   6  13
ENDBRANCH   1   9
BRANCH   3  15
ATOM     15  C   UNL     1      36.250   1.743  14.812  0.00  0.00    +0.000 A 
ATOM     16  C   UNL     1      36.396   0.397  14.876  0.00  0.00    +0.000 A 
ATOM     17  C   UNL     1      35.714  -0.349  15.874  0.00  0.00    +0.000 A 
ATOM     18  C   UNL     1      34.917   0.339  16.753  0.00  0.00    +0.000 A 
ATOM     19  C   UNL     1      34.783   1.688  16.675  0.00  0.00    +0.000 A 
ATOM     20  C   UNL     1      35.459   2.375  15.695  0.00  0.00    +0.000 A 
ENDBRANCH   3  15
BRANCH   2  21
ATOM     21  C   UNL     1      36.694   5.067  14.096  0.00  0.00    +0.000 C 
ATOM     22  O   UNL     1      37.245   6.201  14.275  0.00  0.00    +0.000 OA
ATOM     23  N   UNL     1      35.423   5.135  13.508  0.00  0.00    +0.000 NA
BRANCH  23  24
ATOM     24  C   UNL     1      34.761   6.360  13.124  0.00  0.00    +0.000 C 
BRANCH  24  25
ATOM     25  C   UNL     1      33.822   6.848  14.220  0.00  0.00    +0.000 C 
BRANCH  25  26
ATOM     26  C   UNL     1      34.166   8.271  14.467  0.00  0.00    +0.000 A 
ATOM     27  C   UNL     1      35.011   8.952  13.647  0.00  0.00    +0.000 A 
ATOM     28  C   UNL     1      35.364  10.278  13.835  0.00  0.00    +0.000 A 
ATOM     29  C   UNL     1      34.831  10.936  14.907  0.00  0.00    +0.000 A 
ATOM     30  C   UNL     1      33.972  10.269  15.753  0.00  0.00    +0.000 A 
ATOM     31  C   UNL     1      33.624   8.929  15.552  0.00  0.00    +0.000 A 
ATOM     32  F   UNL     1      32.774   8.317  16.412  0.00  0.00    +0.000 F 
ENDBRANCH  25  26
ENDBRANCH  24  25
ENDBRANCH  23  24
ENDBRANCH   2  21
TORSDOF 7
ENDMDL
MODEL 4
REMARK VINA RESULT:      -8.0      3.201      5.184
REMARK  Name = 
REMARK  7 active torsions:
REMARK  status: ('A' for Active; 'I' for Inactive)
REMARK    1  A    between atoms: N_2  and  C_4
REMARK    2  A    between atoms: C_7  and  C_8
REMARK    3  A    between atoms: C_9  and  C_10
REMARK    4  A    between atoms: N_12  and  C_13
REMARK    5  A    between atoms: C_13  and  C_14
REMARK    6  A    between atoms: C_14  and  C_15
REMARK    7  A    between atoms: C_22  and  C_23
REMARK                            x       y       z     vdW  Elec       q    Type
REMARK                         _______ _______ _______ _____ _____    ______ ____
ROOT
ATOM      1  C   UNL     1      37.990   3.411  15.267  0.00  0.00    +0.000 C 
ATOM      2  C   UNL     1      36.968   3.733  14.565  0.00  0.00    +0.000 C 
ATOM      3  C   UNL     1      36.550   2.389  13.750  0.00  0.00    +0.000 C 
ATOM      4  O   UNL     1      37.982   1.829  13.752  0.00  0.00    +0.000 OA
ATOM      5  N   UNL     1      38.314   2.040  15.028  0.00  0.00    +0.000 NA
ENDROOT
BRANCH   1   9
ATOM      6  C   UNL     1      40.015   6.020  17.968  0.00  0.00    +0.000 A 
ATOM      7  C   UNL     1      38.973   5.207  18.397  0.00  0.00    +0.000 A 
ATOM      8  C   UNL     1      38.339   4.379  17.494  0.00  0.00    +0.000 A 
ATOM      9  C   UNL     1      38.697   4.319  16.163  0.00  0.00    +0.000 A 
ATOM     10  C   UNL     1      39.730   5.139  15.794  0.00  0.00    +0.000 A 
ATOM     11  C   UNL     1      40.395   5.981  16.647  0.00  0.00    +0.000 A 
BRANCH   6  13
ATOM     12  C   UNL     1      41.137   8.191  18.405  0.00  0.00    +0.000 C 
ATOM     13  N   UNL     1      40.706   6.891  18.843  0.00  0.00    +0.000 N 
ATOM     14  C   UNL     1      40.980   6.456  20.197  0.00  0.00    +0.000 C 
ENDBRANCH   6  13
ENDBRANCH   1   9
BRANCH   3  15
ATOM     15  C   UNL     1      36.002   1.563  14.971  0.00  0.00    +0.000 A 
ATOM     16  C   UNL     1      36.280   0.237  14.975  0.00  0.00    +0.000 A 
ATOM     17  C   UNL     1      35.825  -0.586  16.040  0.00  0.00    +0.000 A 
ATOM     18  C   UNL     1      35.106   0.010  17.045  0.00  0.00    +0.000 A 
ATOM     19  C   UNL     1      34.837   1.341  17.026  0.00  0.00    +0.000 A 
ATOM     20  C   UNL     1      35.294   2.103  15.977  0.00  0.00    +0.000 A 
ENDBRANCH   3  15
BRANCH   2  21
ATOM     21  C   UNL     1      36.182   4.935  14.371  0.00  0.00    +0.000 C 
ATOM     22  O   UNL     1      34.910   4.879  14.353  0.00  0.00    +0.000 OA
ATOM     23  N   UNL     1      36.700   6.225  14.192  0.00  0.00    +0.000 NA
BRANCH  23  24
ATOM     24  C   UNL     1      35.900   7.412  14.002  0.00  0.00    +0.000 C 
BRANCH  24  25
ATOM     25  C   UNL     1      36.699   8.672  14.309  0.00  0.00    +0.000 C 
BRANCH  25  26
ATOM     26  C   UNL     1      36.587   8.897  15.771  0.00  0.00    +0.000 A 
ATOM     27  C   UNL     1      37.534   8.444  16.636  0.00  0.00    +0.000 A 
ATOM     28  C   UNL     1      37.475   8.626  18.008  0.00  0.00    +0.000 A 
ATOM     29  C   UNL     1      36.403   9.303  18.517  0.00  0.00    +0.000 A 
ATOM     30  C   UNL     1      35.430   9.773  17.663  0.00  0.00    +0.000 A 
ATOM     31  C   UNL     1      35.501   9.581  16.280  0.00  0.00    +0.000 A 
ATOM     32  F   UNL     1      34.518  10.063  15.480  0.00  0.00    +0.000 F 
ENDBRANCH  25  26
ENDBRANCH  24  25
ENDBRANCH  23  24
ENDBRANCH   2  21
TORSDOF 7
ENDMDL
MODEL 5
REMARK VINA RESULT:      -7.8      3.189      6.853
REMARK  Name = 
REMARK  7 active torsions:
REMARK  status: ('A' for Active; 'I' for Inactive)
REMARK    1  A    between atoms: N_2  and  C_4
REMARK    2  A    between atoms: C_7  and  C_8
REMARK    3  A    between atoms: C_9  and  C_10
REMARK    4  A    between atoms: N_12  and  C_13
REMARK    5  A    between atoms: C_13  and  C_14
REMARK    6  A    between atoms: C_14  and  C_15
REMARK    7  A    between atoms: C_22  and  C_23
REMARK                            x       y       z     vdW  Elec       q    Type
REMARK                         _______ _______ _______ _____ _____    ______ ____
ROOT
ATOM      1  C   UNL     1      37.265   1.882  14.328  0.00  0.00    +0.000 C 
ATOM      2  C   UNL     1      36.621   1.047  15.056  0.00  0.00    +0.000 C 
ATOM      3  C   UNL     1      36.409  -0.275  14.132  0.00  0.00    +0.000 C 
ATOM      4  O   UNL     1      36.446   0.523  12.818  0.00  0.00    +0.000 OA
ATOM      5  N   UNL     1      37.507   1.302  13.046  0.00  0.00    +0.000 NA
ENDROOT
BRANCH   1   9
ATOM      6  C   UNL     1      38.370   5.805  15.590  0.00  0.00    +0.000 A 
ATOM      7  C   UNL     1      37.140   5.561  14.989  0.00  0.00    +0.000 A 
ATOM      8  C   UNL     1      36.819   4.280  14.590  0.00  0.00    +0.000 A 
ATOM      9  C   UNL     1      37.675   3.213  14.763  0.00  0.00    +0.000 A 
ATOM     10  C   UNL     1      38.872   3.508  15.361  0.00  0.00    +0.000 A 
ATOM     11  C   UNL     1      39.243   4.760  15.777  0.00  0.00    +0.000 A 
BRANCH   6  13
ATOM     12  C   UNL     1      40.024   7.306  16.674  0.00  0.00    +0.000 C 
ATOM     13  N   UNL     1      38.759   7.095  16.022  0.00  0.00    +0.000 N 
ATOM     14  C   UNL     1      37.864   8.211  15.799  0.00  0.00    +0.000 C 
ENDBRANCH   6  13
ENDBRANCH   1   9
BRANCH   3  15
ATOM     15  C   UNL     1      37.905  -0.764  14.120  0.00  0.00    +0.000 A 
ATOM     16  C   UNL     1      38.279  -1.528  13.065  0.00  0.00    +0.000 A 
ATOM     17  C   UNL     1      39.612  -2.013  12.972  0.00  0.00    +0.000 A 
ATOM     18  C   UNL     1      40.485  -1.681  13.976  0.00  0.00    +0.000 A 
ATOM     19  C   UNL     1      40.092  -0.913  15.026  0.00  0.00    +0.000 A 
ATOM     20  C   UNL     1      38.794  -0.463  15.080  0.00  0.00    +0.000 A 
ENDBRANCH   3  15
BRANCH   2  21
ATOM     21  C   UNL     1      36.095   1.040  16.407  0.00  0.00    +0.000 C 
ATOM     22  O   UNL     1      34.932   1.496  16.650  0.00  0.00    +0.000 OA
ATOM     23  N   UNL     1      36.767   0.556  17.538  0.00  0.00    +0.000 NA
BRANCH  23  24
ATOM     24  C   UNL     1      36.226   0.556  18.877  0.00  0.00    +0.000 C 
BRANCH  24  25
ATOM     25  C   UNL     1      35.830  -0.849  19.313  0.00  0.00    +0.000 C 
BRANCH  25  26
ATOM     26  C   UNL     1      36.623  -1.789  18.481  0.00  0.00    +0.000 A 
ATOM     27  C   UNL     1      37.930  -2.050  18.752  0.00  0.00    +0.000 A 
ATOM     28  C   UNL     1      38.712  -2.916  18.005  0.00  0.00    +0.000 A 
ATOM     29  C   UNL     1      38.133  -3.543  16.939  0.00  0.00    +0.000 A 
ATOM     30  C   UNL     1      36.810  -3.297  16.644  0.00  0.00    +0.000 A 
ATOM     31  C   UNL     1      36.031  -2.419  17.405  0.00  0.00    +0.000 A 
ATOM     32  F   UNL     1      34.734  -2.209  17.075  0.00  0.00    +0.000 F 
ENDBRANCH  25  26
ENDBRANCH  24  25
ENDBRANCH  23  24
ENDBRANCH   2  21
TORSDOF 7
ENDMDL
MODEL 6
REMARK VINA RESULT:      -7.7      3.825      5.490
REMARK  Name = 
REMARK  7 active torsions:
REMARK  status: ('A' for Active; 'I' for Inactive)
REMARK    1  A    between atoms: N_2  and  C_4
REMARK    2  A    between atoms: C_7  and  C_8
REMARK    3  A    between atoms: C_9  and  C_10
REMARK    4  A    between atoms: N_12  and  C_13
REMARK    5  A    between atoms: C_13  and  C_14
REMARK    6  A    between atoms: C_14  and  C_15
REMARK    7  A    between atoms: C_22  and  C_23
REMARK                            x       y       z     vdW  Elec       q    Type
REMARK                         _______ _______ _______ _____ _____    ______ ____
ROOT
ATOM      1  C   UNL     1      38.818  -1.690  13.818  0.00  0.00    +0.000 C 
ATOM      2  C   UNL     1      37.715  -1.155  14.193  0.00  0.00    +0.000 C 
ATOM      3  C   UNL     1      36.710  -2.392  14.517  0.00  0.00    +0.000 C 
ATOM      4  O   UNL     1      37.407  -3.340  13.526  0.00  0.00    +0.000 OA
ATOM      5  N   UNL     1      38.684  -3.112  13.843  0.00  0.00    +0.000 NA
ENDROOT
BRANCH   1   9
ATOM      6  C   UNL     1      42.257   0.522  12.602  0.00  0.00    +0.000 A 
ATOM      7  C   UNL     1      41.236   0.227  11.706  0.00  0.00    +0.000 A 
ATOM      8  C   UNL     1      40.141  -0.494  12.134  0.00  0.00    +0.000 A 
ATOM      9  C   UNL     1      40.010  -0.943  13.432  0.00  0.00    +0.000 A 
ATOM     10  C   UNL     1      41.042  -0.624  14.273  0.00  0.00    +0.000 A 
ATOM     11  C   UNL     1      42.153   0.088  13.902  0.00  0.00    +0.000 A 
BRANCH   6  13
ATOM     12  C   UNL     1      44.680   1.007  12.845  0.00  0.00    +0.000 C 
ATOM     13  N   UNL     1      43.406   1.257  12.226  0.00  0.00    +0.000 N 
ATOM     14  C   UNL     1      43.286   2.275  11.202  0.00  0.00    +0.000 C 
ENDBRANCH   6  13
ENDBRANCH   1   9
BRANCH   3  15
ATOM     15  C   UNL     1      37.418  -2.901  15.826  0.00  0.00    +0.000 A 
ATOM     16  C   UNL     1      37.370  -4.236  16.056  0.00  0.00    +0.000 A 
ATOM     17  C   UNL     1      37.984  -4.783  17.214  0.00  0.00    +0.000 A 
ATOM     18  C   UNL     1      38.615  -3.920  18.072  0.00  0.00    +0.000 A 
ATOM     19  C   UNL     1      38.655  -2.584  17.826  0.00  0.00    +0.000 A 
ATOM     20  C   UNL     1      38.048  -2.093  16.694  0.00  0.00    +0.000 A 
ENDBRANCH   3  15
BRANCH   2  21
ATOM     21  C   UNL     1      37.229   0.199  14.372  0.00  0.00    +0.000 C 
ATOM     22  O   UNL     1      36.561   0.772  13.452  0.00  0.00    +0.000 OA
ATOM     23  N   UNL     1      37.424   0.988  15.514  0.00  0.00    +0.000 NA
BRANCH  23  24
ATOM     24  C   UNL     1      36.930   2.335  15.675  0.00  0.00    +0.000 C 
BRANCH  24  25
ATOM     25  C   UNL     1      36.330   2.543  17.060  0.00  0.00    +0.000 C 
BRANCH  25  26
ATOM     26  C   UNL     1      35.827   1.219  17.504  0.00  0.00    +0.000 A 
ATOM     27  C   UNL     1      34.969   0.490  16.740  0.00  0.00    +0.000 A 
ATOM     28  C   UNL     1      34.471  -0.748  17.111  0.00  0.00    +0.000 A 
ATOM     29  C   UNL     1      34.867  -1.264  18.312  0.00  0.00    +0.000 A 
ATOM     30  C   UNL     1      35.735  -0.546  19.104  0.00  0.00    +0.000 A 
ATOM     31  C   UNL     1      36.231   0.704  18.719  0.00  0.00    +0.000 A 
ATOM     32  F   UNL     1      37.084   1.372  19.534  0.00  0.00    +0.000 F 
ENDBRANCH  25  26
ENDBRANCH  24  25
ENDBRANCH  23  24
ENDBRANCH   2  21
TORSDOF 7
ENDMDL
MODEL 7
REMARK VINA RESULT:      -7.7      4.343      6.709
REMARK  Name = 
REMARK  7 active torsions:
REMARK  status: ('A' for Active; 'I' for Inactive)
REMARK    1  A    between atoms: N_2  and  C_4
REMARK    2  A    between atoms: C_7  and  C_8
REMARK    3  A    between atoms: C_9  and  C_10
REMARK    4  A    between atoms: N_12  and  C_13
REMARK    5  A    between atoms: C_13  and  C_14
REMARK    6  A    between atoms: C_14  and  C_15
REMARK    7  A    between atoms: C_22  and  C_23
REMARK                            x       y       z     vdW  Elec       q    Type
REMARK                         _______ _______ _______ _____ _____    ______ ____
ROOT
ATOM      1  C   UNL     1      38.093   3.750  15.368  0.00  0.00    +0.000 C 
ATOM      2  C   UNL     1      37.096   4.151  14.671  0.00  0.00    +0.000 C 
ATOM      3  C   UNL     1      36.683   2.894  13.725  0.00  0.00    +0.000 C 
ATOM      4  O   UNL     1      38.107   2.313  13.715  0.00  0.00    +0.000 OA
ATOM      5  N   UNL     1      38.406   2.402  15.014  0.00  0.00    +0.000 NA
ENDROOT
BRANCH   1   9
ATOM      6  C   UNL     1      40.075   6.071  18.349  0.00  0.00    +0.000 A 
ATOM      7  C   UNL     1      39.000   5.251  18.672  0.00  0.00    +0.000 A 
ATOM      8  C   UNL     1      38.381   4.518  17.680  0.00  0.00    +0.000 A 
ATOM      9  C   UNL     1      38.787   4.562  16.362  0.00  0.00    +0.000 A 
ATOM     10  C   UNL     1      39.850   5.385  16.100  0.00  0.00    +0.000 A 
ATOM     11  C   UNL     1      40.501   6.135  17.044  0.00  0.00    +0.000 A 
BRANCH   6  13
ATOM     12  C   UNL     1      42.118   6.566  19.669  0.00  0.00    +0.000 C 
ATOM     13  N   UNL     1      40.752   6.848  19.319  0.00  0.00    +0.000 N 
ATOM     14  C   UNL     1      40.050   7.939  19.962  0.00  0.00    +0.000 C 
ENDBRANCH   6  13
ENDBRANCH   1   9
BRANCH   3  15
ATOM     15  C   UNL     1      36.089   1.969  14.851  0.00  0.00    +0.000 A 
ATOM     16  C   UNL     1      36.346   0.643  14.740  0.00  0.00    +0.000 A 
ATOM     17  C   UNL     1      35.850  -0.265  15.713  0.00  0.00    +0.000 A 
ATOM     18  C   UNL     1      35.114   0.248  16.749  0.00  0.00    +0.000 A 
ATOM     19  C   UNL     1      34.866   1.580  16.847  0.00  0.00    +0.000 A 
ATOM     20  C   UNL     1      35.363   2.427  15.884  0.00  0.00    +0.000 A 
ENDBRANCH   3  15
BRANCH   2  21
ATOM     21  C   UNL     1      36.331   5.378  14.566  0.00  0.00    +0.000 C 
ATOM     22  O   UNL     1      36.883   6.504  14.789  0.00  0.00    +0.000 OA
ATOM     23  N   UNL     1      34.975   5.464  14.224  0.00  0.00    +0.000 NA
BRANCH  23  24
ATOM     24  C   UNL     1      34.230   6.697  14.122  0.00  0.00    +0.000 C 
BRANCH  24  25
ATOM     25  C   UNL     1      33.554   6.824  12.763  0.00  0.00    +0.000 C 
BRANCH  25  26
ATOM     26  C   UNL     1      34.273   7.898  12.033  0.00  0.00    +0.000 A 
ATOM     27  C   UNL     1      35.041   8.811  12.686  0.00  0.00    +0.000 A 
ATOM     28  C   UNL     1      35.731   9.831  12.050  0.00  0.00    +0.000 A 
ATOM     29  C   UNL     1      35.631   9.921  10.691  0.00  0.00    +0.000 A 
ATOM     30  C   UNL     1      34.859   9.008  10.006  0.00  0.00    +0.000 A 
ATOM     31  C   UNL     1      34.167   7.983  10.659  0.00  0.00    +0.000 A 
ATOM     32  F   UNL     1      33.421   7.108   9.942  0.00  0.00    +0.000 F 
ENDBRANCH  25  26
ENDBRANCH  24  25
ENDBRANCH  23  24
ENDBRANCH   2  21
TORSDOF 7
ENDMDL
MODEL 8
REMARK VINA RESULT:      -7.7      4.192      7.730
REMARK  Name = 
REMARK  7 active torsions:
REMARK  status: ('A' for Active; 'I' for Inactive)
REMARK    1  A    between atoms: N_2  and  C_4
REMARK    2  A    between atoms: C_7  and  C_8
REMARK    3  A    between atoms: C_9  and  C_10
REMARK    4  A    between atoms: N_12  and  C_13
REMARK    5  A    between atoms: C_13  and  C_14
REMARK    6  A    between atoms: C_14  and  C_15
REMARK    7  A    between atoms: C_22  and  C_23
REMARK                            x       y       z     vdW  Elec       q    Type
REMARK                         _______ _______ _______ _____ _____    ______ ____
ROOT
ATOM      1  C   UNL     1      39.338  -0.959  12.775  0.00  0.00    +0.000 C 
ATOM      2  C   UNL     1      39.340  -2.147  13.255  0.00  0.00    +0.000 C 
ATOM      3  C   UNL     1      40.375  -2.996  12.331  0.00  0.00    +0.000 C 
ATOM      4  O   UNL     1      40.146  -2.110  11.095  0.00  0.00    +0.000 OA
ATOM      5  N   UNL     1      40.225  -0.900  11.657  0.00  0.00    +0.000 NA
ENDROOT
BRANCH   1   9
ATOM      6  C   UNL     1      36.937   2.224  14.293  0.00  0.00    +0.000 A 
ATOM      7  C   UNL     1      36.416   1.287  13.409  0.00  0.00    +0.000 A 
ATOM      8  C   UNL     1      37.223   0.273  12.935  0.00  0.00    +0.000 A 
ATOM      9  C   UNL     1      38.546   0.145  13.305  0.00  0.00    +0.000 A 
ATOM     10  C   UNL     1      39.008   1.094  14.179  0.00  0.00    +0.000 A 
ATOM     11  C   UNL     1      38.252   2.121  14.680  0.00  0.00    +0.000 A 
BRANCH   6  13
ATOM     12  C   UNL     1      36.720   4.604  14.967  0.00  0.00    +0.000 C 
ATOM     13  N   UNL     1      36.162   3.287  14.814  0.00  0.00    +0.000 N 
ATOM     14  C   UNL     1      34.788   3.033  15.197  0.00  0.00    +0.000 C 
ENDBRANCH   6  13
ENDBRANCH   1   9
BRANCH   3  15
ATOM     15  C   UNL     1      41.705  -2.320  12.829  0.00  0.00    +0.000 A 
ATOM     16  C   UNL     1      42.677  -2.147  11.901  0.00  0.00    +0.000 A 
ATOM     17  C   UNL     1      43.911  -1.543  12.262  0.00  0.00    +0.000 A 
ATOM     18  C   UNL     1      44.073  -1.150  13.566  0.00  0.00    +0.000 A 
ATOM     19  C   UNL     1      43.087  -1.330  14.484  0.00  0.00    +0.000 A 
ATOM     20  C   UNL     1      41.907  -1.919  14.095  0.00  0.00    +0.000 A 
ENDBRANCH   3  15
BRANCH   2  21
ATOM     21  C   UNL     1      38.673  -2.824  14.350  0.00  0.00    +0.000 C 
ATOM     22  O   UNL     1      37.594  -3.469  14.149  0.00  0.00    +0.000 OA
ATOM     23  N   UNL     1      39.114  -2.846  15.680  0.00  0.00    +0.000 NA
BRANCH  23  24
ATOM     24  C   UNL     1      38.436  -3.528  16.758  0.00  0.00    +0.000 C 
BRANCH  24  25
ATOM     25  C   UNL     1      38.581  -2.768  18.071  0.00  0.00    +0.000 C 
BRANCH  25  26
ATOM     26  C   UNL     1      37.501  -1.750  18.091  0.00  0.00    +0.000 A 
ATOM     27  C   UNL     1      37.146  -1.067  16.969  0.00  0.00    +0.000 A 
ATOM     28  C   UNL     1      36.147  -0.108  16.936  0.00  0.00    +0.000 A 
ATOM     29  C   UNL     1      35.482   0.163  18.098  0.00  0.00    +0.000 A 
ATOM     30  C   UNL     1      35.822  -0.515  19.248  0.00  0.00    +0.000 A 
ATOM     31  C   UNL     1      36.834  -1.480  19.268  0.00  0.00    +0.000 A 
ATOM     32  F   UNL     1      37.132  -2.121  20.425  0.00  0.00    +0.000 F 
ENDBRANCH  25  26
ENDBRANCH  24  25
ENDBRANCH  23  24
ENDBRANCH   2  21
TORSDOF 7
ENDMDL
MODEL 9
REMARK VINA RESULT:      -7.6      3.364      6.804
REMARK  Name = 
REMARK  7 active torsions:
REMARK  status: ('A' for Active; 'I' for Inactive)
REMARK    1  A    between atoms: N_2  and  C_4
REMARK    2  A    between atoms: C_7  and  C_8
REMARK    3  A    between atoms: C_9  and  C_10
REMARK    4  A    between atoms: N_12  and  C_13
REMARK    5  A    between atoms: C_13  and  C_14
REMARK    6  A    between atoms: C_14  and  C_15
REMARK    7  A    between atoms: C_22  and  C_23
REMARK                            x       y       z     vdW  Elec       q    Type
REMARK                         _______ _______ _______ _____ _____    ______ ____
ROOT
ATOM      1  C   UNL     1      38.505   2.299  14.925  0.00  0.00    +0.000 C 
ATOM      2  C   UNL     1      37.408   2.242  15.584  0.00  0.00    +0.000 C 
ATOM      3  C   UNL     1      37.263   3.679  16.330  0.00  0.00    +0.000 C 
ATOM      4  O   UNL     1      38.782   3.911  16.383  0.00  0.00    +0.000 OA
ATOM      5  N   UNL     1      39.114   3.575  15.133  0.00  0.00    +0.000 NA
ENDROOT
BRANCH   1   9
ATOM      6  C   UNL     1      40.068  -0.912  12.591  0.00  0.00    +0.000 A 
ATOM      7  C   UNL     1      40.342  -0.809  13.950  0.00  0.00    +0.000 A 
ATOM      8  C   UNL     1      39.823   0.246  14.672  0.00  0.00    +0.000 A 
ATOM      9  C   UNL     1      39.031   1.219  14.098  0.00  0.00    +0.000 A 
ATOM     10  C   UNL     1      38.791   1.069  12.758  0.00  0.00    +0.000 A 
ATOM     11  C   UNL     1      39.281   0.043  11.993  0.00  0.00    +0.000 A 
BRANCH   6  13
ATOM     12  C   UNL     1      40.328  -2.006  10.378  0.00  0.00    +0.000 C 
ATOM     13  N   UNL     1      40.570  -1.969  11.795  0.00  0.00    +0.000 N 
ATOM     14  C   UNL     1      41.336  -3.023  12.428  0.00  0.00    +0.000 C 
ENDBRANCH   6  13
ENDBRANCH   1   9
BRANCH   3  15
ATOM     15  C   UNL     1      36.964   4.550  15.054  0.00  0.00    +0.000 A 
ATOM     16  C   UNL     1      37.523   5.784  15.022  0.00  0.00    +0.000 A 
ATOM     17  C   UNL     1      37.308   6.637  13.907  0.00  0.00    +0.000 A 
ATOM     18  C   UNL     1      36.523   6.168  12.885  0.00  0.00    +0.000 A 
ATOM     19  C   UNL     1      35.971   4.928  12.933  0.00  0.00    +0.000 A 
ATOM     20  C   UNL     1      36.203   4.131  14.029  0.00  0.00    +0.000 A 
ENDBRANCH   3  15
BRANCH   2  21
ATOM     21  C   UNL     1      36.367   1.251  15.779  0.00  0.00    +0.000 C 
ATOM     22  O   UNL     1      35.802   0.703  14.778  0.00  0.00    +0.000 OA
ATOM     23  N   UNL     1      35.892   0.806  17.019  0.00  0.00    +0.000 NA
BRANCH  23  24
ATOM     24  C   UNL     1      34.854  -0.184  17.194  0.00  0.00    +0.000 C 
BRANCH  24  25
ATOM     25  C   UNL     1      35.422  -1.491  17.733  0.00  0.00    +0.000 C 
BRANCH  25  26
ATOM     26  C   UNL     1      35.881  -2.269  16.556  0.00  0.00    +0.000 A 
ATOM     27  C   UNL     1      35.010  -2.970  15.782  0.00  0.00    +0.000 A 
ATOM     28  C   UNL     1      35.389  -3.712  14.675  0.00  0.00    +0.000 A 
ATOM     29  C   UNL     1      36.714  -3.737  14.344  0.00  0.00    +0.000 A 
ATOM     30  C   UNL     1      37.617  -3.034  15.112  0.00  0.00    +0.000 A 
ATOM     31  C   UNL     1      37.222  -2.290  16.228  0.00  0.00    +0.000 A 
ATOM     32  F   UNL     1      38.148  -1.615  16.951  0.00  0.00    +0.000 F 
ENDBRANCH  25  26
ENDBRANCH  24  25
ENDBRANCH  23  24
ENDBRANCH   2  21
TORSDOF 7
ENDMDL
MODEL 10
REMARK VINA RESULT:      -7.5      3.091      4.437
REMARK  Name = 
REMARK  7 active torsions:
REMARK  status: ('A' for Active; 'I' for Inactive)
REMARK    1  A    between atoms: N_2  and  C_4
REMARK    2  A    between atoms: C_7  and  C_8
REMARK    3  A    between atoms: C_9  and  C_10
REMARK    4  A    between atoms: N_12  and  C_13
REMARK    5  A    between atoms: C_13  and  C_14
REMARK    6  A    between atoms: C_14  and  C_15
REMARK    7  A    between atoms: C_22  and  C_23
REMARK                            x       y       z     vdW  Elec       q    Type
REMARK                         _______ _______ _______ _____ _____    ______ ____
ROOT
ATOM      1  C   UNL     1      37.654  -1.440  14.646  0.00  0.00    +0.000 C 
ATOM      2  C   UNL     1      36.694  -1.090  15.418  0.00  0.00    +0.000 C 
ATOM      3  C   UNL     1      35.811  -2.433  15.666  0.00  0.00    +0.000 C 
ATOM      4  O   UNL     1      36.214  -3.059  14.320  0.00  0.00    +0.000 OA
ATOM      5  N   UNL     1      37.530  -2.831  14.340  0.00  0.00    +0.000 NA
ENDROOT
BRANCH   1   9
ATOM      6  C   UNL     1      40.778   1.124  13.281  0.00  0.00    +0.000 A 
ATOM      7  C   UNL     1      41.025   0.120  14.211  0.00  0.00    +0.000 A 
ATOM      8  C   UNL     1      39.988  -0.687  14.632  0.00  0.00    +0.000 A 
ATOM      9  C   UNL     1      38.698  -0.543  14.166  0.00  0.00    +0.000 A 
ATOM     10  C   UNL     1      38.511   0.460  13.251  0.00  0.00    +0.000 A 
ATOM     11  C   UNL     1      39.503   1.291  12.798  0.00  0.00    +0.000 A 
BRANCH   6  13
ATOM     12  C   UNL     1      41.482   3.290  12.295  0.00  0.00    +0.000 C 
ATOM     13  N   UNL     1      41.797   1.985  12.809  0.00  0.00    +0.000 N 
ATOM     14  C   UNL     1      43.173   1.534  12.849  0.00  0.00    +0.000 C 
ENDBRANCH   6  13
ENDBRANCH   1   9
BRANCH   3  15
ATOM     15  C   UNL     1      36.845  -3.201  16.570  0.00  0.00    +0.000 A 
ATOM     16  C   UNL     1      36.946  -4.537  16.368  0.00  0.00    +0.000 A 
ATOM     17  C   UNL     1      37.856  -5.310  17.139  0.00  0.00    +0.000 A 
ATOM     18  C   UNL     1      38.612  -4.657  18.078  0.00  0.00    +0.000 A 
ATOM     19  C   UNL     1      38.499  -3.316  18.267  0.00  0.00    +0.000 A 
ATOM     20  C   UNL     1      37.607  -2.603  17.501  0.00  0.00    +0.000 A 
ENDBRANCH   3  15
BRANCH   2  21
ATOM     21  C   UNL     1      36.276   0.142  16.058  0.00  0.00    +0.000 C 
ATOM     22  O   UNL     1      36.772   0.489  17.178  0.00  0.00    +0.000 OA
ATOM     23  N   UNL     1      35.332   1.043  15.547  0.00  0.00    +0.000 NA
BRANCH  23  24
ATOM     24  C   UNL     1      34.930   2.268  16.198  0.00  0.00    +0.000 C 
BRANCH  24  25
ATOM     25  C   UNL     1      35.009   3.454  15.245  0.00  0.00    +0.000 C 
BRANCH  25  26
ATOM     26  C   UNL     1      36.445   3.809  15.131  0.00  0.00    +0.000 A 
ATOM     27  C   UNL     1      37.269   3.798  16.214  0.00  0.00    +0.000 A 
ATOM     28  C   UNL     1      38.615   4.122  16.160  0.00  0.00    +0.000 A 
ATOM     29  C   UNL     1      39.141   4.469  14.949  0.00  0.00    +0.000 A 
ATOM     30  C   UNL     1      38.329   4.487  13.837  0.00  0.00    +0.000 A 
ATOM     31  C   UNL     1      36.971   4.159  13.904  0.00  0.00    +0.000 A 
ATOM     32  F   UNL     1      36.212   4.191  12.782  0.00  0.00    +0.000 F 
ENDBRANCH  25  26
ENDBRANCH  24  25
ENDBRANCH  23  24
ENDBRANCH   2  21
TORSDOF 7
ENDMDL
