MODEL 1
REMARK VINA RESULT:      -6.8      0.000      0.000
REMARK  Name = 
REMARK  2 active torsions:
REMARK  status: ('A' for Active; 'I' for Inactive)
REMARK    1  A    between atoms: C_2  and  C_4
REMARK    2  A    between atoms: C_9  and  C_10
REMARK                            x       y       z     vdW  Elec       q    Type
REMARK                         _______ _______ _______ _____ _____    ______ ____
ROOT
ATOM      1  C   UNL     1      33.635   3.230  34.179  0.00  0.00    +0.000 A 
ATOM      2  C   UNL     1      33.834   2.922  32.849  0.00  0.00    +0.000 A 
ATOM      3  C   UNL     1      33.935   1.607  32.415  0.00  0.00    +0.000 A 
ATOM      4  C   UNL     1      33.841   0.559  33.303  0.00  0.00    +0.000 A 
ATOM      5  O   UNL     1      33.901  -0.744  33.161  0.00  0.00    +0.000 OA
ATOM      6  C   UNL     1      33.749  -1.323  34.343  0.00  0.00    +0.000 A 
ATOM      7  N   UNL     1      33.590  -0.349  35.248  0.00  0.00    +0.000 NA
ATOM      8  C   UNL     1      33.642   0.850  34.639  0.00  0.00    +0.000 A 
ATOM      9  C   UNL     1      33.541   2.171  35.060  0.00  0.00    +0.000 A 
ENDROOT
BRANCH   6  10
ATOM     10  C   UNL     1      33.751  -2.728  34.628  0.00  0.00    +0.000 A 
ATOM     11  C   UNL     1      32.738  -3.543  34.197  0.00  0.00    +0.000 A 
ATOM     12  C   UNL     1      32.717  -4.880  34.454  0.00  0.00    +0.000 A 
ATOM     13  N   UNL     1      31.634  -5.684  33.980  0.00  0.00    +0.000 NA
ATOM     14  C   UNL     1      33.767  -5.415  35.176  0.00  0.00    +0.000 A 
ATOM     15  C   UNL     1      34.804  -4.626  35.626  0.00  0.00    +0.000 A 
ATOM     16  C   UNL     1      34.782  -3.273  35.341  0.00  0.00    +0.000 A 
ATOM     17 CL   UNL     1      36.135  -2.318  35.942  0.00  0.00    +0.000 Cl
ENDBRANCH   6  10
BRANCH   1  19
ATOM     18  C   UNL     1      32.488   5.418  33.907  0.00  0.00    +0.000 C 
ATOM     19  C   UNL     1      33.523   4.626  34.669  0.00  0.00    +0.000 C 
ATOM     20  C   UNL     1      34.841   5.317  34.773  0.00  0.00    +0.000 C 
ENDBRANCH   1  19
TORSDOF 2
ENDMDL
MODEL 2
REMARK VINA RESULT:      -6.7     23.012     25.995
REMARK  Name = 
REMARK  2 active torsions:
REMARK  status: ('A' for Active; 'I' for Inactive)
REMARK    1  A    between atoms: C_2  and  C_4
REMARK    2  A    between atoms: C_9  and  C_10
REMARK                            x       y       z     vdW  Elec       q    Type
REMARK                         _______ _______ _______ _____ _____    ______ ____
ROOT
ATOM      1  C   UNL     1      31.743  22.294  29.212  0.00  0.00    +0.000 A 
ATOM      2  C   UNL     1      31.320  23.561  29.559  0.00  0.00    +0.000 A 
ATOM      3  C   UNL     1      30.558  24.335  28.695  0.00  0.00    +0.000 A 
ATOM      4  C   UNL     1      30.196  23.862  27.454  0.00  0.00    +0.000 A 
ATOM      5  O   UNL     1      29.498  24.375  26.468  0.00  0.00    +0.000 OA
ATOM      6  C   UNL     1      29.435  23.502  25.472  0.00  0.00    +0.000 A 
ATOM      7  N   UNL     1      30.115  22.413  25.852  0.00  0.00    +0.000 NA
ATOM      8  C   UNL     1      30.611  22.596  27.090  0.00  0.00    +0.000 A 
ATOM      9  C   UNL     1      31.373  21.831  27.965  0.00  0.00    +0.000 A 
ENDROOT
BRANCH   6  10
ATOM     10  C   UNL     1      28.770  23.669  24.214  0.00  0.00    +0.000 A 
ATOM     11  C   UNL     1      29.450  24.085  23.100  0.00  0.00    +0.000 A 
ATOM     12  C   UNL     1      28.842  24.251  21.892  0.00  0.00    +0.000 A 
ATOM     13  N   UNL     1      29.600  24.689  20.762  0.00  0.00    +0.000 NA
ATOM     14  C   UNL     1      27.489  23.982  21.809  0.00  0.00    +0.000 A 
ATOM     15  C   UNL     1      26.772  23.561  22.909  0.00  0.00    +0.000 A 
ATOM     16  C   UNL     1      27.433  23.407  24.114  0.00  0.00    +0.000 A 
ATOM     17 CL   UNL     1      26.462  22.866  25.482  0.00  0.00    +0.000 Cl
ENDBRANCH   6  10
BRANCH   1  19
ATOM     18  C   UNL     1      31.879  21.212  31.446  0.00  0.00    +0.000 C 
ATOM     19  C   UNL     1      32.557  21.446  30.118  0.00  0.00    +0.000 C 
ATOM     20  C   UNL     1      33.968  21.915  30.246  0.00  0.00    +0.000 C 
ENDBRANCH   1  19
TORSDOF 2
ENDMDL
MODEL 3
REMARK VINA RESULT:      -6.5     15.882     17.534
REMARK  Name = 
REMARK  2 active torsions:
REMARK  status: ('A' for Active; 'I' for Inactive)
REMARK    1  A    between atoms: C_2  and  C_4
REMARK    2  A    between atoms: C_9  and  C_10
REMARK                            x       y       z     vdW  Elec       q    Type
REMARK                         _______ _______ _______ _____ _____    ______ ____
ROOT
ATOM      1  C   UNL     1      25.077  -8.064  23.627  0.00  0.00    +0.000 A 
ATOM      2  C   UNL     1      24.900  -6.695  23.604  0.00  0.00    +0.000 A 
ATOM      3  C   UNL     1      23.758  -6.102  24.124  0.00  0.00    +0.000 A 
ATOM      4  C   UNL     1      22.756  -6.864  24.683  0.00  0.00    +0.000 A 
ATOM      5  O   UNL     1      21.602  -6.564  25.232  0.00  0.00    +0.000 OA
ATOM      6  C   UNL     1      20.998  -7.677  25.622  0.00  0.00    +0.000 A 
ATOM      7  N   UNL     1      21.801  -8.700  25.306  0.00  0.00    +0.000 NA
ATOM      8  C   UNL     1      22.917  -8.235  24.713  0.00  0.00    +0.000 A 
ATOM      9  C   UNL     1      24.066  -8.817  24.190  0.00  0.00    +0.000 A 
ENDROOT
BRANCH   6  10
ATOM     10  C   UNL     1      19.722  -7.791  26.264  0.00  0.00    +0.000 A 
ATOM     11  C   UNL     1      19.235  -9.007  26.666  0.00  0.00    +0.000 A 
ATOM     12  C   UNL     1      18.026  -9.143  27.278  0.00  0.00    +0.000 A 
ATOM     13  N   UNL     1      17.565 -10.436  27.676  0.00  0.00    +0.000 NA
ATOM     14  C   UNL     1      17.279  -8.000  27.495  0.00  0.00    +0.000 A 
ATOM     15  C   UNL     1      17.738  -6.760  27.105  0.00  0.00    +0.000 A 
ATOM     16  C   UNL     1      18.972  -6.671  26.486  0.00  0.00    +0.000 A 
ATOM     17 CL   UNL     1      19.502  -5.059  26.012  0.00  0.00    +0.000 Cl
ENDBRANCH   6  10
BRANCH   1  19
ATOM     18  C   UNL     1      26.958  -9.622  24.090  0.00  0.00    +0.000 C 
ATOM     19  C   UNL     1      26.289  -8.723  23.078  0.00  0.00    +0.000 C 
ATOM     20  C   UNL     1      27.227  -7.767  22.422  0.00  0.00    +0.000 C 
ENDBRANCH   1  19
TORSDOF 2
ENDMDL
MODEL 4
REMARK VINA RESULT:      -6.4      1.536      2.114
REMARK  Name = 
REMARK  2 active torsions:
REMARK  status: ('A' for Active; 'I' for Inactive)
REMARK    1  A    between atoms: C_2  and  C_4
REMARK    2  A    between atoms: C_9  and  C_10
REMARK                            x       y       z     vdW  Elec       q    Type
REMARK                         _______ _______ _______ _____ _____    ______ ____
ROOT
ATOM      1  C   UNL     1      33.744   3.655  34.832  0.00  0.00    +0.000 A 
ATOM      2  C   UNL     1      34.069   3.377  36.144  0.00  0.00    +0.000 A 
ATOM      3  C   UNL     1      34.169   2.072  36.607  0.00  0.00    +0.000 A 
ATOM      4  C   UNL     1      33.945   1.004  35.767  0.00  0.00    +0.000 A 
ATOM      5  O   UNL     1      33.973  -0.296  35.945  0.00  0.00    +0.000 OA
ATOM      6  C   UNL     1      33.680  -0.902  34.803  0.00  0.00    +0.000 A 
ATOM      7  N   UNL     1      33.463   0.051  33.888  0.00  0.00    +0.000 NA
ATOM      8  C   UNL     1      33.618   1.264  34.451  0.00  0.00    +0.000 A 
ATOM      9  C   UNL     1      33.522   2.576  34.000  0.00  0.00    +0.000 A 
ENDROOT
BRANCH   6  10
ATOM     10  C   UNL     1      33.601  -2.313  34.565  0.00  0.00    +0.000 A 
ATOM     11  C   UNL     1      33.594  -2.821  33.293  0.00  0.00    +0.000 A 
ATOM     12  C   UNL     1      33.521  -4.157  33.040  0.00  0.00    +0.000 A 
ATOM     13  N   UNL     1      33.516  -4.633  31.692  0.00  0.00    +0.000 NA
ATOM     14  C   UNL     1      33.453  -5.016  34.121  0.00  0.00    +0.000 A 
ATOM     15  C   UNL     1      33.458  -4.541  35.416  0.00  0.00    +0.000 A 
ATOM     16  C   UNL     1      33.534  -3.176  35.623  0.00  0.00    +0.000 A 
ATOM     17 CL   UNL     1      33.537  -2.631  37.299  0.00  0.00    +0.000 Cl
ENDBRANCH   6  10
BRANCH   1  19
ATOM     18  C   UNL     1      34.019   6.072  35.343  0.00  0.00    +0.000 C 
ATOM     19  C   UNL     1      33.632   5.040  34.311  0.00  0.00    +0.000 C 
ATOM     20  C   UNL     1      32.318   5.316  33.661  0.00  0.00    +0.000 C 
ENDBRANCH   1  19
TORSDOF 2
ENDMDL
MODEL 5
REMARK VINA RESULT:      -6.3     23.269     26.201
REMARK  Name = 
REMARK  2 active torsions:
REMARK  status: ('A' for Active; 'I' for Inactive)
REMARK    1  A    between atoms: C_2  and  C_4
REMARK    2  A    between atoms: C_9  and  C_10
REMARK                            x       y       z     vdW  Elec       q    Type
REMARK                         _______ _______ _______ _____ _____    ______ ____
ROOT
ATOM      1  C   UNL     1      31.381  22.216  29.101  0.00  0.00    +0.000 A 
ATOM      2  C   UNL     1      30.477  23.065  29.705  0.00  0.00    +0.000 A 
ATOM      3  C   UNL     1      29.522  23.753  28.968  0.00  0.00    +0.000 A 
ATOM      4  C   UNL     1      29.447  23.612  27.600  0.00  0.00    +0.000 A 
ATOM      5  O   UNL     1      28.660  24.133  26.688  0.00  0.00    +0.000 OA
ATOM      6  C   UNL     1      29.001  23.667  25.495  0.00  0.00    +0.000 A 
ATOM      7  N   UNL     1      30.031  22.830  25.672  0.00  0.00    +0.000 NA
ATOM      8  C   UNL     1      30.344  22.766  26.980  0.00  0.00    +0.000 A 
ATOM      9  C   UNL     1      31.295  22.082  27.730  0.00  0.00    +0.000 A 
ENDROOT
BRANCH   6  10
ATOM     10  C   UNL     1      28.397  23.984  24.235  0.00  0.00    +0.000 A 
ATOM     11  C   UNL     1      27.268  23.339  23.805  0.00  0.00    +0.000 A 
ATOM     12  C   UNL     1      26.674  23.622  22.612  0.00  0.00    +0.000 A 
ATOM     13  N   UNL     1      25.497  22.918  22.212  0.00  0.00    +0.000 NA
ATOM     14  C   UNL     1      27.248  24.600  21.822  0.00  0.00    +0.000 A 
ATOM     15  C   UNL     1      28.384  25.271  22.222  0.00  0.00    +0.000 A 
ATOM     16  C   UNL     1      28.951  24.949  23.442  0.00  0.00    +0.000 A 
ATOM     17 CL   UNL     1      30.402  25.841  23.897  0.00  0.00    +0.000 Cl
ENDBRANCH   6  10
BRANCH   1  19
ATOM     18  C   UNL     1      32.033  21.297  31.317  0.00  0.00    +0.000 C 
ATOM     19  C   UNL     1      32.411  21.468  29.865  0.00  0.00    +0.000 C 
ATOM     20  C   UNL     1      33.789  22.005  29.670  0.00  0.00    +0.000 C 
ENDBRANCH   1  19
TORSDOF 2
ENDMDL
MODEL 6
REMARK VINA RESULT:      -6.2     27.301     30.701
REMARK  Name = 
REMARK  2 active torsions:
REMARK  status: ('A' for Active; 'I' for Inactive)
REMARK    1  A    between atoms: C_2  and  C_4
REMARK    2  A    between atoms: C_9  and  C_10
REMARK                            x       y       z     vdW  Elec       q    Type
REMARK                         _______ _______ _______ _____ _____    ______ ____
ROOT
ATOM      1  C   UNL     1      30.947  28.588  18.164  0.00  0.00    +0.000 A 
ATOM      2  C   UNL     1      30.417  29.572  18.973  0.00  0.00    +0.000 A 
ATOM      3  C   UNL     1      29.681  29.261  20.108  0.00  0.00    +0.000 A 
ATOM      4  C   UNL     1      29.452  27.951  20.467  0.00  0.00    +0.000 A 
ATOM      5  O   UNL     1      28.805  27.395  21.464  0.00  0.00    +0.000 OA
ATOM      6  C   UNL     1      28.881  26.076  21.357  0.00  0.00    +0.000 A 
ATOM      7  N   UNL     1      29.597  25.805  20.258  0.00  0.00    +0.000 NA
ATOM      8  C   UNL     1      29.975  26.954  19.668  0.00  0.00    +0.000 A 
ATOM      9  C   UNL     1      30.712  27.279  18.534  0.00  0.00    +0.000 A 
ENDROOT
BRANCH   6  10
ATOM     10  C   UNL     1      28.311  25.100  22.237  0.00  0.00    +0.000 A 
ATOM     11  C   UNL     1      27.160  24.433  21.911  0.00  0.00    +0.000 A 
ATOM     12  C   UNL     1      26.598  23.501  22.730  0.00  0.00    +0.000 A 
ATOM     13  N   UNL     1      25.395  22.835  22.340  0.00  0.00    +0.000 NA
ATOM     14  C   UNL     1      27.229  23.232  23.930  0.00  0.00    +0.000 A 
ATOM     15  C   UNL     1      28.390  23.883  24.292  0.00  0.00    +0.000 A 
ATOM     16  C   UNL     1      28.923  24.822  23.427  0.00  0.00    +0.000 A 
ATOM     17 CL   UNL     1      30.406  25.619  23.946  0.00  0.00    +0.000 Cl
ENDBRANCH   6  10
BRANCH   1  19
ATOM     18  C   UNL     1      33.128  29.385  17.275  0.00  0.00    +0.000 C 
ATOM     19  C   UNL     1      31.738  28.894  16.946  0.00  0.00    +0.000 C 
ATOM     20  C   UNL     1      31.012  29.770  15.982  0.00  0.00    +0.000 C 
ENDBRANCH   1  19
TORSDOF 2
ENDMDL
MODEL 7
REMARK VINA RESULT:      -6.2     15.956     17.602
REMARK  Name = 
REMARK  2 active torsions:
REMARK  status: ('A' for Active; 'I' for Inactive)
REMARK    1  A    between atoms: C_2  and  C_4
REMARK    2  A    between atoms: C_9  and  C_10
REMARK                            x       y       z     vdW  Elec       q    Type
REMARK                         _______ _______ _______ _____ _____    ______ ____
ROOT
ATOM      1  C   UNL     1      24.927  -8.120  23.032  0.00  0.00    +0.000 A 
ATOM      2  C   UNL     1      24.951  -6.797  23.423  0.00  0.00    +0.000 A 
ATOM      3  C   UNL     1      23.988  -6.274  24.276  0.00  0.00    +0.000 A 
ATOM      4  C   UNL     1      22.970  -7.064  24.763  0.00  0.00    +0.000 A 
ATOM      5  O   UNL     1      21.958  -6.827  25.564  0.00  0.00    +0.000 OA
ATOM      6  C   UNL     1      21.255  -7.939  25.726  0.00  0.00    +0.000 A 
ATOM      7  N   UNL     1      21.850  -8.896  25.003  0.00  0.00    +0.000 NA
ATOM      8  C   UNL     1      22.932  -8.390  24.382  0.00  0.00    +0.000 A 
ATOM      9  C   UNL     1      23.902  -8.901  23.527  0.00  0.00    +0.000 A 
ENDROOT
BRANCH   6  10
ATOM     10  C   UNL     1      20.075  -8.111  26.520  0.00  0.00    +0.000 A 
ATOM     11  C   UNL     1      19.032  -7.225  26.446  0.00  0.00    +0.000 A 
ATOM     12  C   UNL     1      17.900  -7.366  27.190  0.00  0.00    +0.000 A 
ATOM     13  N   UNL     1      16.842  -6.412  27.074  0.00  0.00    +0.000 NA
ATOM     14  C   UNL     1      17.819  -8.451  28.043  0.00  0.00    +0.000 A 
ATOM     15  C   UNL     1      18.848  -9.363  28.143  0.00  0.00    +0.000 A 
ATOM     16  C   UNL     1      19.979  -9.178  27.368  0.00  0.00    +0.000 A 
ATOM     17 CL   UNL     1      21.259 -10.377  27.541  0.00  0.00    +0.000 Cl
ENDBRANCH   6  10
BRANCH   1  19
ATOM     18  C   UNL     1      25.438  -9.938  21.415  0.00  0.00    +0.000 C 
ATOM     19  C   UNL     1      25.944  -8.704  22.122  0.00  0.00    +0.000 C 
ATOM     20  C   UNL     1      27.271  -8.897  22.776  0.00  0.00    +0.000 C 
ENDBRANCH   1  19
TORSDOF 2
ENDMDL
MODEL 8
REMARK VINA RESULT:      -6.1     15.893     17.167
REMARK  Name = 
REMARK  2 active torsions:
REMARK  status: ('A' for Active; 'I' for Inactive)
REMARK    1  A    between atoms: C_2  and  C_4
REMARK    2  A    between atoms: C_9  and  C_10
REMARK                            x       y       z     vdW  Elec       q    Type
REMARK                         _______ _______ _______ _____ _____    ______ ____
ROOT
ATOM      1  C   UNL     1      19.785  -7.069  26.022  0.00  0.00    +0.000 A 
ATOM      2  C   UNL     1      19.804  -8.345  26.545  0.00  0.00    +0.000 A 
ATOM      3  C   UNL     1      20.853  -9.218  26.295  0.00  0.00    +0.000 A 
ATOM      4  C   UNL     1      21.918  -8.838  25.509  0.00  0.00    +0.000 A 
ATOM      5  O   UNL     1      23.012  -9.452  25.123  0.00  0.00    +0.000 OA
ATOM      6  C   UNL     1      23.729  -8.639  24.362  0.00  0.00    +0.000 A 
ATOM      7  N   UNL     1      23.059  -7.483  24.271  0.00  0.00    +0.000 NA
ATOM      8  C   UNL     1      21.916  -7.564  24.977  0.00  0.00    +0.000 A 
ATOM      9  C   UNL     1      20.858  -6.699  25.236  0.00  0.00    +0.000 A 
ENDROOT
BRANCH   6  10
ATOM     10  C   UNL     1      24.988  -8.919  23.738  0.00  0.00    +0.000 A 
ATOM     11  C   UNL     1      26.112  -9.162  24.483  0.00  0.00    +0.000 A 
ATOM     12  C   UNL     1      27.321  -9.431  23.915  0.00  0.00    +0.000 A 
ATOM     13  N   UNL     1      28.462  -9.677  24.739  0.00  0.00    +0.000 NA
ATOM     14  C   UNL     1      27.394  -9.457  22.535  0.00  0.00    +0.000 A 
ATOM     15  C   UNL     1      26.283  -9.218  21.753  0.00  0.00    +0.000 A 
ATOM     16  C   UNL     1      25.077  -8.948  22.375  0.00  0.00    +0.000 A 
ATOM     17 CL   UNL     1      23.696  -8.651  21.322  0.00  0.00    +0.000 Cl
ENDBRANCH   6  10
BRANCH   1  19
ATOM     18  C   UNL     1      19.177  -4.738  26.636  0.00  0.00    +0.000 C 
ATOM     19  C   UNL     1      18.676  -6.115  26.275  0.00  0.00    +0.000 C 
ATOM     20  C   UNL     1      17.657  -6.645  27.227  0.00  0.00    +0.000 C 
ENDBRANCH   1  19
TORSDOF 2
ENDMDL
MODEL 9
REMARK VINA RESULT:      -5.9     24.247     26.752
REMARK  Name = 
REMARK  2 active torsions:
REMARK  status: ('A' for Active; 'I' for Inactive)
REMARK    1  A    between atoms: C_2  and  C_4
REMARK    2  A    between atoms: C_9  and  C_10
REMARK                            x       y       z     vdW  Elec       q    Type
REMARK                         _______ _______ _______ _____ _____    ______ ____
ROOT
ATOM      1  C   UNL     1      28.888  25.693  22.568  0.00  0.00    +0.000 A 
ATOM      2  C   UNL     1      29.064  24.369  22.222  0.00  0.00    +0.000 A 
ATOM      3  C   UNL     1      29.083  23.364  23.180  0.00  0.00    +0.000 A 
ATOM      4  C   UNL     1      28.926  23.658  24.516  0.00  0.00    +0.000 A 
ATOM      5  O   UNL     1      28.905  22.917  25.599  0.00  0.00    +0.000 OA
ATOM      6  C   UNL     1      28.721  23.691  26.659  0.00  0.00    +0.000 A 
ATOM      7  N   UNL     1      28.625  24.953  26.220  0.00  0.00    +0.000 NA
ATOM      8  C   UNL     1      28.749  24.978  24.880  0.00  0.00    +0.000 A 
ATOM      9  C   UNL     1      28.731  25.974  23.911  0.00  0.00    +0.000 A 
ENDROOT
BRANCH   6  10
ATOM     10  C   UNL     1      28.637  23.281  28.029  0.00  0.00    +0.000 A 
ATOM     11  C   UNL     1      27.427  23.105  28.647  0.00  0.00    +0.000 A 
ATOM     12  C   UNL     1      27.321  22.716  29.948  0.00  0.00    +0.000 A 
ATOM     13  N   UNL     1      26.032  22.548  30.543  0.00  0.00    +0.000 NA
ATOM     14  C   UNL     1      28.488  22.493  30.653  0.00  0.00    +0.000 A 
ATOM     15  C   UNL     1      29.724  22.660  30.064  0.00  0.00    +0.000 A 
ATOM     16  C   UNL     1      29.783  23.057  28.740  0.00  0.00    +0.000 A 
ATOM     17 CL   UNL     1      31.390  23.252  28.045  0.00  0.00    +0.000 Cl
ENDBRANCH   6  10
BRANCH   1  19
ATOM     18  C   UNL     1      27.464  27.289  21.301  0.00  0.00    +0.000 C 
ATOM     19  C   UNL     1      28.863  26.786  21.564  0.00  0.00    +0.000 C 
ATOM     20  C   UNL     1      29.618  26.455  20.321  0.00  0.00    +0.000 C 
ENDBRANCH   1  19
TORSDOF 2
ENDMDL
MODEL 10
REMARK VINA RESULT:      -5.8     16.036     18.488
REMARK  Name = 
REMARK  2 active torsions:
REMARK  status: ('A' for Active; 'I' for Inactive)
REMARK    1  A    between atoms: C_2  and  C_4
REMARK    2  A    between atoms: C_9  and  C_10
REMARK                            x       y       z     vdW  Elec       q    Type
REMARK                         _______ _______ _______ _____ _____    ______ ____
ROOT
ATOM      1  C   UNL     1      24.331  11.851  37.777  0.00  0.00    +0.000 A 
ATOM      2  C   UNL     1      24.255  10.795  36.893  0.00  0.00    +0.000 A 
ATOM      3  C   UNL     1      23.044  10.188  36.588  0.00  0.00    +0.000 A 
ATOM      4  C   UNL     1      21.871  10.622  37.163  0.00  0.00    +0.000 A 
ATOM      5  O   UNL     1      20.622  10.235  37.053  0.00  0.00    +0.000 OA
ATOM      6  C   UNL     1      19.856  10.989  37.828  0.00  0.00    +0.000 A 
ATOM      7  N   UNL     1      20.655  11.873  38.439  0.00  0.00    +0.000 NA
ATOM      8  C   UNL     1      21.929  11.678  38.051  0.00  0.00    +0.000 A 
ATOM      9  C   UNL     1      23.149  12.277  38.347  0.00  0.00    +0.000 A 
ENDROOT
BRANCH   6  10
ATOM     10  C   UNL     1      18.437  10.897  37.999  0.00  0.00    +0.000 A 
ATOM     11  C   UNL     1      17.576  11.577  37.178  0.00  0.00    +0.000 A 
ATOM     12  C   UNL     1      16.223  11.506  37.320  0.00  0.00    +0.000 A 
ATOM     13  N   UNL     1      15.370  12.237  36.435  0.00  0.00    +0.000 NA
ATOM     14  C   UNL     1      15.720  10.713  38.334  0.00  0.00    +0.000 A 
ATOM     15  C   UNL     1      16.557  10.014  39.178  0.00  0.00    +0.000 A 
ATOM     16  C   UNL     1      17.924  10.117  38.996  0.00  0.00    +0.000 A 
ATOM     17 CL   UNL     1      18.939   9.200  40.108  0.00  0.00    +0.000 Cl
ENDBRANCH   6  10
BRANCH   1  19
ATOM     18  C   UNL     1      26.199  12.002  39.412  0.00  0.00    +0.000 C 
ATOM     19  C   UNL     1      25.613  12.517  38.119  0.00  0.00    +0.000 C 
ATOM     20  C   UNL     1      25.533  14.005  38.056  0.00  0.00    +0.000 C 
ENDBRANCH   1  19
TORSDOF 2
ENDMDL
