MODEL 1
REMARK VINA RESULT:      -5.8      0.000      0.000
REMARK  Name = 
REMARK  3 active torsions:
REMARK  status: ('A' for Active; 'I' for Inactive)
REMARK    1  A    between atoms: C_10  and  C_11
REMARK    2  A    between atoms: N_13  and  C_14
REMARK    3  A    between atoms: C_14  and  C_15
REMARK                            x       y       z     vdW  Elec       q    Type
REMARK                         _______ _______ _______ _____ _____    ______ ____
ROOT
ATOM      1  C   UNL     1      26.441  23.430  29.141  0.00  0.00    +0.000 C 
ATOM      2  C   UNL     1      27.702  22.524  28.538  0.00  0.00    +0.000 C 
ATOM      3  C   UNL     1      27.152  22.613  27.005  0.00  0.00    +0.000 C 
ATOM      4  C   UNL     1      27.543  23.882  26.371  0.00  0.00    +0.000 C 
ATOM      5  C   UNL     1      29.034  23.682  26.140  0.00  0.00    +0.000 A 
ATOM      6  C   UNL     1      29.642  23.641  27.372  0.00  0.00    +0.000 A 
ATOM      7  S   UNL     1      31.292  23.412  26.982  0.00  0.00    +0.000 S 
ATOM      8  C   UNL     1      31.150  23.376  25.271  0.00  0.00    +0.000 A 
ATOM      9  N   UNL     1      32.211  23.207  24.336  0.00  0.00    +0.000 NA
ATOM     10  C   UNL     1      29.820  23.545  25.063  0.00  0.00    +0.000 A 
ATOM     11  C   UNL     1      28.724  23.802  28.526  0.00  0.00    +0.000 C 
ENDROOT
BRANCH  10  12
ATOM     12  C   UNL     1      29.251  23.576  23.688  0.00  0.00    +0.000 C 
ATOM     13  O   UNL     1      28.453  22.688  23.291  0.00  0.00    +0.000 OA
ATOM     14  N   UNL     1      29.561  24.588  22.751  0.00  0.00    +0.000 NA
BRANCH  14  15
ATOM     15  C   UNL     1      28.990  24.593  21.418  0.00  0.00    +0.000 C 
BRANCH  15  16
ATOM     16  C   UNL     1      29.359  25.842  20.688  0.00  0.00    +0.000 A 
ATOM     17  C   UNL     1      29.162  27.153  21.067  0.00  0.00    +0.000 A 
ATOM     18  C   UNL     1      29.677  27.948  20.053  0.00  0.00    +0.000 A 
ATOM     19  C   UNL     1      30.158  27.071  19.115  0.00  0.00    +0.000 A 
ATOM     20  O   UNL     1      29.951  25.847  19.526  0.00  0.00    +0.000 OA
ENDBRANCH  15  16
ENDBRANCH  14  15
ENDBRANCH  10  12
TORSDOF 3
ENDMDL
MODEL 2
REMARK VINA RESULT:      -5.7      2.576      3.788
REMARK  Name = 
REMARK  3 active torsions:
REMARK  status: ('A' for Active; 'I' for Inactive)
REMARK    1  A    between atoms: C_10  and  C_11
REMARK    2  A    between atoms: N_13  and  C_14
REMARK    3  A    between atoms: C_14  and  C_15
REMARK                            x       y       z     vdW  Elec       q    Type
REMARK                         _______ _______ _______ _____ _____    ______ ____
ROOT
ATOM      1  C   UNL     1      25.625  24.575  29.823  0.00  0.00    +0.000 C 
ATOM      2  C   UNL     1      26.558  23.197  29.886  0.00  0.00    +0.000 C 
ATOM      3  C   UNL     1      27.097  23.383  28.358  0.00  0.00    +0.000 C 
ATOM      4  C   UNL     1      28.217  24.336  28.300  0.00  0.00    +0.000 C 
ATOM      5  C   UNL     1      29.354  23.538  28.920  0.00  0.00    +0.000 A 
ATOM      6  C   UNL     1      29.052  23.350  30.247  0.00  0.00    +0.000 A 
ATOM      7  S   UNL     1      30.387  22.449  30.825  0.00  0.00    +0.000 S 
ATOM      8  C   UNL     1      31.279  22.343  29.362  0.00  0.00    +0.000 A 
ATOM      9  N   UNL     1      32.532  21.692  29.179  0.00  0.00    +0.000 NA
ATOM     10  C   UNL     1      30.505  23.016  28.473  0.00  0.00    +0.000 A 
ATOM     11  C   UNL     1      27.769  23.952  30.686  0.00  0.00    +0.000 C 
ENDROOT
BRANCH  10  12
ATOM     12  C   UNL     1      30.916  23.169  27.051  0.00  0.00    +0.000 C 
ATOM     13  O   UNL     1      31.805  23.992  26.714  0.00  0.00    +0.000 OA
ATOM     14  N   UNL     1      30.348  22.412  26.002  0.00  0.00    +0.000 NA
BRANCH  14  15
ATOM     15  C   UNL     1      30.769  22.583  24.624  0.00  0.00    +0.000 C 
BRANCH  15  16
ATOM     16  C   UNL     1      29.658  23.138  23.795  0.00  0.00    +0.000 A 
ATOM     17  C   UNL     1      28.302  23.129  24.050  0.00  0.00    +0.000 A 
ATOM     18  C   UNL     1      27.687  23.765  22.982  0.00  0.00    +0.000 A 
ATOM     19  C   UNL     1      28.706  24.125  22.138  0.00  0.00    +0.000 A 
ATOM     20  O   UNL     1      29.845  23.738  22.653  0.00  0.00    +0.000 OA
ENDBRANCH  15  16
ENDBRANCH  14  15
ENDBRANCH  10  12
TORSDOF 3
ENDMDL
MODEL 3
REMARK VINA RESULT:      -5.6     21.744     24.506
REMARK  Name = 
REMARK  3 active torsions:
REMARK  status: ('A' for Active; 'I' for Inactive)
REMARK    1  A    between atoms: C_10  and  C_11
REMARK    2  A    between atoms: N_13  and  C_14
REMARK    3  A    between atoms: C_14  and  C_15
REMARK                            x       y       z     vdW  Elec       q    Type
REMARK                         _______ _______ _______ _____ _____    ______ ____
ROOT
ATOM      1  C   UNL     1      15.216  12.265  35.476  0.00  0.00    +0.000 C 
ATOM      2  C   UNL     1      15.970  12.718  36.891  0.00  0.00    +0.000 C 
ATOM      3  C   UNL     1      15.638  11.301  37.627  0.00  0.00    +0.000 C 
ATOM      4  C   UNL     1      16.610  10.262  37.248  0.00  0.00    +0.000 C 
ATOM      5  C   UNL     1      17.860  10.700  37.997  0.00  0.00    +0.000 A 
ATOM      6  C   UNL     1      18.287  11.879  37.435  0.00  0.00    +0.000 A 
ATOM      7  S   UNL     1      19.678  12.265  38.355  0.00  0.00    +0.000 S 
ATOM      8  C   UNL     1      19.665  10.918  39.418  0.00  0.00    +0.000 A 
ATOM      9  N   UNL     1      20.601  10.650  40.458  0.00  0.00    +0.000 NA
ATOM     10  C   UNL     1      18.577  10.212  39.019  0.00  0.00    +0.000 A 
ATOM     11  C   UNL     1      17.458  12.370  36.307  0.00  0.00    +0.000 C 
ENDROOT
BRANCH  10  12
ATOM     12  C   UNL     1      18.191   8.941  39.689  0.00  0.00    +0.000 C 
ATOM     13  O   UNL     1      17.192   8.883  40.452  0.00  0.00    +0.000 OA
ATOM     14  N   UNL     1      18.906   7.734  39.518  0.00  0.00    +0.000 NA
BRANCH  14  15
ATOM     15  C   UNL     1      18.506   6.510  40.185  0.00  0.00    +0.000 C 
BRANCH  15  16
ATOM     16  C   UNL     1      19.674   5.598  40.367  0.00  0.00    +0.000 A 
ATOM     17  C   UNL     1      19.742   4.234  40.173  0.00  0.00    +0.000 A 
ATOM     18  C   UNL     1      21.041   3.849  40.472  0.00  0.00    +0.000 A 
ATOM     19  C   UNL     1      21.688   5.004  40.830  0.00  0.00    +0.000 A 
ATOM     20  O   UNL     1      20.850   6.005  40.755  0.00  0.00    +0.000 OA
ENDBRANCH  15  16
ENDBRANCH  14  15
ENDBRANCH  10  12
TORSDOF 3
ENDMDL
MODEL 4
REMARK VINA RESULT:      -5.6     21.754     25.266
REMARK  Name = 
REMARK  3 active torsions:
REMARK  status: ('A' for Active; 'I' for Inactive)
REMARK    1  A    between atoms: C_10  and  C_11
REMARK    2  A    between atoms: N_13  and  C_14
REMARK    3  A    between atoms: C_14  and  C_15
REMARK                            x       y       z     vdW  Elec       q    Type
REMARK                         _______ _______ _______ _____ _____    ______ ____
ROOT
ATOM      1  C   UNL     1      15.192  12.379  35.449  0.00  0.00    +0.000 C 
ATOM      2  C   UNL     1      15.981  12.802  36.853  0.00  0.00    +0.000 C 
ATOM      3  C   UNL     1      15.520  11.444  37.629  0.00  0.00    +0.000 C 
ATOM      4  C   UNL     1      16.393  10.310  37.285  0.00  0.00    +0.000 C 
ATOM      5  C   UNL     1      17.676  10.654  38.028  0.00  0.00    +0.000 A 
ATOM      6  C   UNL     1      18.211  11.772  37.434  0.00  0.00    +0.000 A 
ATOM      7  S   UNL     1      19.628  12.056  38.350  0.00  0.00    +0.000 S 
ATOM      8  C   UNL     1      19.490  10.748  39.452  0.00  0.00    +0.000 A 
ATOM      9  N   UNL     1      20.395  10.426  40.504  0.00  0.00    +0.000 NA
ATOM     10  C   UNL     1      18.343  10.133  39.067  0.00  0.00    +0.000 A 
ATOM     11  C   UNL     1      17.433  12.303  36.288  0.00  0.00    +0.000 C 
ENDROOT
BRANCH  10  12
ATOM     12  C   UNL     1      17.841   8.923  39.773  0.00  0.00    +0.000 C 
ATOM     13  O   UNL     1      18.418   7.811  39.656  0.00  0.00    +0.000 OA
ATOM     14  N   UNL     1      16.701   8.939  40.609  0.00  0.00    +0.000 NA
BRANCH  14  15
ATOM     15  C   UNL     1      16.234   7.744  41.284  0.00  0.00    +0.000 C 
BRANCH  15  16
ATOM     16  C   UNL     1      16.135   7.970  42.757  0.00  0.00    +0.000 A 
ATOM     17  C   UNL     1      16.589   9.042  43.497  0.00  0.00    +0.000 A 
ATOM     18  C   UNL     1      16.258   8.787  44.820  0.00  0.00    +0.000 A 
ATOM     19  C   UNL     1      15.621   7.572  44.807  0.00  0.00    +0.000 A 
ATOM     20  O   UNL     1      15.571   7.129  43.577  0.00  0.00    +0.000 OA
ENDBRANCH  15  16
ENDBRANCH  14  15
ENDBRANCH  10  12
TORSDOF 3
ENDMDL
MODEL 5
REMARK VINA RESULT:      -5.3     21.106     23.193
REMARK  Name = 
REMARK  3 active torsions:
REMARK  status: ('A' for Active; 'I' for Inactive)
REMARK    1  A    between atoms: C_10  and  C_11
REMARK    2  A    between atoms: N_13  and  C_14
REMARK    3  A    between atoms: C_14  and  C_15
REMARK                            x       y       z     vdW  Elec       q    Type
REMARK                         _______ _______ _______ _____ _____    ______ ____
ROOT
ATOM      1  C   UNL     1      17.246   8.271  42.535  0.00  0.00    +0.000 C 
ATOM      2  C   UNL     1      17.211   9.748  41.765  0.00  0.00    +0.000 C 
ATOM      3  C   UNL     1      18.566   9.438  40.913  0.00  0.00    +0.000 C 
ATOM      4  C   UNL     1      18.274   8.625  39.722  0.00  0.00    +0.000 C 
ATOM      5  C   UNL     1      17.574   9.624  38.813  0.00  0.00    +0.000 A 
ATOM      6  C   UNL     1      16.369   9.939  39.393  0.00  0.00    +0.000 A 
ATOM      7  S   UNL     1      15.689  11.058  38.292  0.00  0.00    +0.000 S 
ATOM      8  C   UNL     1      16.957  11.086  37.136  0.00  0.00    +0.000 A 
ATOM      9  N   UNL     1      16.995  11.853  35.937  0.00  0.00    +0.000 NA
ATOM     10  C   UNL     1      17.868  10.220  37.648  0.00  0.00    +0.000 A 
ATOM     11  C   UNL     1      16.096   9.248  40.677  0.00  0.00    +0.000 C 
ENDROOT
BRANCH  10  12
ATOM     12  C   UNL     1      19.150   9.941  36.945  0.00  0.00    +0.000 C 
ATOM     13  O   UNL     1      19.171   9.342  35.839  0.00  0.00    +0.000 OA
ATOM     14  N   UNL     1      20.408  10.323  37.462  0.00  0.00    +0.000 NA
BRANCH  14  15
ATOM     15  C   UNL     1      21.642  10.037  36.754  0.00  0.00    +0.000 C 
BRANCH  15  16
ATOM     16  C   UNL     1      22.654   9.436  37.673  0.00  0.00    +0.000 A 
ATOM     17  C   UNL     1      23.972   9.120  37.417  0.00  0.00    +0.000 A 
ATOM     18  C   UNL     1      24.493   8.587  38.587  0.00  0.00    +0.000 A 
ATOM     19  C   UNL     1      23.460   8.610  39.488  0.00  0.00    +0.000 A 
ATOM     20  O   UNL     1      22.400   9.115  38.911  0.00  0.00    +0.000 OA
ENDBRANCH  15  16
ENDBRANCH  14  15
ENDBRANCH  10  12
TORSDOF 3
ENDMDL
MODEL 6
REMARK VINA RESULT:      -5.3     17.200     18.498
REMARK  Name = 
REMARK  3 active torsions:
REMARK  status: ('A' for Active; 'I' for Inactive)
REMARK    1  A    between atoms: C_10  and  C_11
REMARK    2  A    between atoms: N_13  and  C_14
REMARK    3  A    between atoms: C_14  and  C_15
REMARK                            x       y       z     vdW  Elec       q    Type
REMARK                         _______ _______ _______ _____ _____    ______ ____
ROOT
ATOM      1  C   UNL     1      10.329  27.668  20.724  0.00  0.00    +0.000 C 
ATOM      2  C   UNL     1      11.171  26.863  21.915  0.00  0.00    +0.000 C 
ATOM      3  C   UNL     1      10.689  25.396  21.390  0.00  0.00    +0.000 C 
ATOM      4  C   UNL     1      11.515  24.934  20.264  0.00  0.00    +0.000 C 
ATOM      5  C   UNL     1      12.829  24.587  20.947  0.00  0.00    +0.000 A 
ATOM      6  C   UNL     1      13.382  25.761  21.400  0.00  0.00    +0.000 A 
ATOM      7  S   UNL     1      14.834  25.243  22.144  0.00  0.00    +0.000 S 
ATOM      8  C   UNL     1      14.686  23.558  21.853  0.00  0.00    +0.000 A 
ATOM      9  N   UNL     1      15.610  22.546  22.241  0.00  0.00    +0.000 NA
ATOM     10  C   UNL     1      13.509  23.456  21.185  0.00  0.00    +0.000 A 
ATOM     11  C   UNL     1      12.588  26.979  21.106  0.00  0.00    +0.000 C 
ENDROOT
BRANCH  10  12
ATOM     12  C   UNL     1      12.989  22.138  20.732  0.00  0.00    +0.000 C 
ATOM     13  O   UNL     1      13.521  21.520  19.774  0.00  0.00    +0.000 OA
ATOM     14  N   UNL     1      11.881  21.501  21.335  0.00  0.00    +0.000 NA
BRANCH  14  15
ATOM     15  C   UNL     1      11.396  20.215  20.872  0.00  0.00    +0.000 C 
BRANCH  15  16
ATOM     16  C   UNL     1      10.095  20.366  20.154  0.00  0.00    +0.000 A 
ATOM     17  C   UNL     1       9.447  21.524  19.777  0.00  0.00    +0.000 A 
ATOM     18  C   UNL     1       8.276  21.141  19.139  0.00  0.00    +0.000 A 
ATOM     19  C   UNL     1       8.280  19.770  19.166  0.00  0.00    +0.000 A 
ATOM     20  O   UNL     1       9.365  19.357  19.770  0.00  0.00    +0.000 OA
ENDBRANCH  15  16
ENDBRANCH  14  15
ENDBRANCH  10  12
TORSDOF 3
ENDMDL
MODEL 7
REMARK VINA RESULT:      -5.2     33.991     36.082
REMARK  Name = 
REMARK  3 active torsions:
REMARK  status: ('A' for Active; 'I' for Inactive)
REMARK    1  A    between atoms: C_10  and  C_11
REMARK    2  A    between atoms: N_13  and  C_14
REMARK    3  A    between atoms: C_14  and  C_15
REMARK                            x       y       z     vdW  Elec       q    Type
REMARK                         _______ _______ _______ _____ _____    ______ ____
ROOT
ATOM      1  C   UNL     1      12.930  -8.265  20.103  0.00  0.00    +0.000 C 
ATOM      2  C   UNL     1      12.429  -9.340  21.272  0.00  0.00    +0.000 C 
ATOM      3  C   UNL     1      13.924  -9.485  21.907  0.00  0.00    +0.000 C 
ATOM      4  C   UNL     1      14.224  -8.374  22.824  0.00  0.00    +0.000 C 
ATOM      5  C   UNL     1      13.357  -8.706  24.029  0.00  0.00    +0.000 A 
ATOM      6  C   UNL     1      12.044  -8.570  23.645  0.00  0.00    +0.000 A 
ATOM      7  S   UNL     1      11.181  -8.968  25.067  0.00  0.00    +0.000 S 
ATOM      8  C   UNL     1      12.515  -9.293  26.097  0.00  0.00    +0.000 A 
ATOM      9  N   UNL     1      12.454  -9.690  27.463  0.00  0.00    +0.000 NA
ATOM     10  C   UNL     1      13.589  -9.078  25.296  0.00  0.00    +0.000 A 
ATOM     11  C   UNL     1      11.848  -8.152  22.235  0.00  0.00    +0.000 C 
ENDROOT
BRANCH  10  12
ATOM     12  C   UNL     1      14.978  -9.251  25.802  0.00  0.00    +0.000 C 
ATOM     13  O   UNL     1      15.469 -10.395  25.985  0.00  0.00    +0.000 OA
ATOM     14  N   UNL     1      15.825  -8.162  26.107  0.00  0.00    +0.000 NA
BRANCH  14  15
ATOM     15  C   UNL     1      17.175  -8.360  26.599  0.00  0.00    +0.000 C 
BRANCH  15  16
ATOM     16  C   UNL     1      17.976  -7.107  26.472  0.00  0.00    +0.000 A 
ATOM     17  C   UNL     1      19.216  -6.930  25.892  0.00  0.00    +0.000 A 
ATOM     18  C   UNL     1      19.534  -5.587  26.024  0.00  0.00    +0.000 A 
ATOM     19  C   UNL     1      18.468  -5.023  26.677  0.00  0.00    +0.000 A 
ATOM     20  O   UNL     1      17.577  -5.950  26.920  0.00  0.00    +0.000 OA
ENDBRANCH  15  16
ENDBRANCH  14  15
ENDBRANCH  10  12
TORSDOF 3
ENDMDL
MODEL 8
REMARK VINA RESULT:      -5.2     24.508     27.284
REMARK  Name = 
REMARK  3 active torsions:
REMARK  status: ('A' for Active; 'I' for Inactive)
REMARK    1  A    between atoms: C_10  and  C_11
REMARK    2  A    between atoms: N_13  and  C_14
REMARK    3  A    between atoms: C_14  and  C_15
REMARK                            x       y       z     vdW  Elec       q    Type
REMARK                         _______ _______ _______ _____ _____    ______ ____
ROOT
ATOM      1  C   UNL     1      35.360   2.254  39.765  0.00  0.00    +0.000 C 
ATOM      2  C   UNL     1      35.929   2.608  38.240  0.00  0.00    +0.000 C 
ATOM      3  C   UNL     1      35.404   1.195  37.618  0.00  0.00    +0.000 C 
ATOM      4  C   UNL     1      33.973   1.260  37.278  0.00  0.00    +0.000 C 
ATOM      5  C   UNL     1      33.974   2.146  36.042  0.00  0.00    +0.000 A 
ATOM      6  C   UNL     1      34.354   3.406  36.436  0.00  0.00    +0.000 A 
ATOM      7  S   UNL     1      34.321   4.296  34.974  0.00  0.00    +0.000 S 
ATOM      8  C   UNL     1      33.826   3.037  33.918  0.00  0.00    +0.000 A 
ATOM      9  N   UNL     1      33.609   3.144  32.514  0.00  0.00    +0.000 NA
ATOM     10  C   UNL     1      33.703   1.965  34.741  0.00  0.00    +0.000 A 
ATOM     11  C   UNL     1      34.638   3.548  37.885  0.00  0.00    +0.000 C 
ENDROOT
BRANCH  10  12
ATOM     12  C   UNL     1      33.283   0.635  34.222  0.00  0.00    +0.000 C 
ATOM     13  O   UNL     1      32.085   0.402  33.917  0.00  0.00    +0.000 OA
ATOM     14  N   UNL     1      34.185  -0.437  34.038  0.00  0.00    +0.000 NA
BRANCH  14  15
ATOM     15  C   UNL     1      33.747  -1.723  33.530  0.00  0.00    +0.000 C 
BRANCH  15  16
ATOM     16  C   UNL     1      33.612  -2.713  34.639  0.00  0.00    +0.000 A 
ATOM     17  C   UNL     1      34.586  -3.505  35.212  0.00  0.00    +0.000 A 
ATOM     18  C   UNL     1      33.965  -4.254  36.201  0.00  0.00    +0.000 A 
ATOM     19  C   UNL     1      32.648  -3.872  36.173  0.00  0.00    +0.000 A 
ATOM     20  O   UNL     1      32.485  -2.967  35.242  0.00  0.00    +0.000 OA
ENDBRANCH  15  16
ENDBRANCH  14  15
ENDBRANCH  10  12
TORSDOF 3
ENDMDL
MODEL 9
REMARK VINA RESULT:      -5.2      3.335      5.692
REMARK  Name = 
REMARK  3 active torsions:
REMARK  status: ('A' for Active; 'I' for Inactive)
REMARK    1  A    between atoms: C_10  and  C_11
REMARK    2  A    between atoms: N_13  and  C_14
REMARK    3  A    between atoms: C_14  and  C_15
REMARK                            x       y       z     vdW  Elec       q    Type
REMARK                         _______ _______ _______ _____ _____    ______ ____
ROOT
ATOM      1  C   UNL     1      27.477  24.909  21.645  0.00  0.00    +0.000 C 
ATOM      2  C   UNL     1      27.007  23.731  22.724  0.00  0.00    +0.000 C 
ATOM      3  C   UNL     1      28.539  23.416  23.187  0.00  0.00    +0.000 C 
ATOM      4  C   UNL     1      29.002  24.386  24.193  0.00  0.00    +0.000 C 
ATOM      5  C   UNL     1      28.225  23.962  25.431  0.00  0.00    +0.000 A 
ATOM      6  C   UNL     1      26.897  24.225  25.197  0.00  0.00    +0.000 A 
ATOM      7  S   UNL     1      26.139  23.708  26.641  0.00  0.00    +0.000 S 
ATOM      8  C   UNL     1      27.534  23.177  27.489  0.00  0.00    +0.000 A 
ATOM      9  N   UNL     1      27.569  22.619  28.799  0.00  0.00    +0.000 NA
ATOM     10  C   UNL     1      28.544  23.422  26.616  0.00  0.00    +0.000 A 
ATOM     11  C   UNL     1      26.604  24.824  23.872  0.00  0.00    +0.000 C 
ENDROOT
BRANCH  10  12
ATOM     12  C   UNL     1      29.957  23.103  26.959  0.00  0.00    +0.000 C 
ATOM     13  O   UNL     1      30.396  21.926  26.890  0.00  0.00    +0.000 OA
ATOM     14  N   UNL     1      30.885  24.083  27.378  0.00  0.00    +0.000 NA
BRANCH  14  15
ATOM     15  C   UNL     1      32.256  23.742  27.706  0.00  0.00    +0.000 C 
BRANCH  15  16
ATOM     16  C   UNL     1      33.198  24.288  26.684  0.00  0.00    +0.000 A 
ATOM     17  C   UNL     1      32.947  24.616  25.368  0.00  0.00    +0.000 A 
ATOM     18  C   UNL     1      34.140  25.081  24.834  0.00  0.00    +0.000 A 
ATOM     19  C   UNL     1      35.048  25.009  25.859  0.00  0.00    +0.000 A 
ATOM     20  O   UNL     1      34.454  24.538  26.925  0.00  0.00    +0.000 OA
ENDBRANCH  15  16
ENDBRANCH  14  15
ENDBRANCH  10  12
TORSDOF 3
ENDMDL
MODEL 10
REMARK VINA RESULT:      -5.1      3.264      6.477
REMARK  Name = 
REMARK  3 active torsions:
REMARK  status: ('A' for Active; 'I' for Inactive)
REMARK    1  A    between atoms: C_10  and  C_11
REMARK    2  A    between atoms: N_13  and  C_14
REMARK    3  A    between atoms: C_14  and  C_15
REMARK                            x       y       z     vdW  Elec       q    Type
REMARK                         _______ _______ _______ _____ _____    ______ ____
ROOT
ATOM      1  C   UNL     1      27.449  25.168  21.503  0.00  0.00    +0.000 C 
ATOM      2  C   UNL     1      28.836  25.115  22.423  0.00  0.00    +0.000 C 
ATOM      3  C   UNL     1      28.071  25.626  23.770  0.00  0.00    +0.000 C 
ATOM      4  C   UNL     1      27.383  24.514  24.446  0.00  0.00    +0.000 C 
ATOM      5  C   UNL     1      28.543  23.731  25.044  0.00  0.00    +0.000 A 
ATOM      6  C   UNL     1      29.257  23.191  24.002  0.00  0.00    +0.000 A 
ATOM      7  S   UNL     1      30.520  22.349  24.794  0.00  0.00    +0.000 S 
ATOM      8  C   UNL     1      30.095  22.715  26.416  0.00  0.00    +0.000 A 
ATOM      9  N   UNL     1      30.782  22.289  27.588  0.00  0.00    +0.000 NA
ATOM     10  C   UNL     1      28.982  23.480  26.285  0.00  0.00    +0.000 A 
ATOM     11  C   UNL     1      28.723  23.499  22.652  0.00  0.00    +0.000 C 
ENDROOT
BRANCH  10  12
ATOM     12  C   UNL     1      28.273  24.023  27.475  0.00  0.00    +0.000 C 
ATOM     13  O   UNL     1      28.695  25.044  28.078  0.00  0.00    +0.000 OA
ATOM     14  N   UNL     1      27.097  23.442  28.000  0.00  0.00    +0.000 NA
BRANCH  14  15
ATOM     15  C   UNL     1      26.427  23.993  29.162  0.00  0.00    +0.000 C 
BRANCH  15  16
ATOM     16  C   UNL     1      25.338  24.929  28.752  0.00  0.00    +0.000 A 
ATOM     17  C   UNL     1      24.682  25.876  29.512  0.00  0.00    +0.000 A 
ATOM     18  C   UNL     1      23.756  26.489  28.680  0.00  0.00    +0.000 A 
ATOM     19  C   UNL     1      23.905  25.879  27.461  0.00  0.00    +0.000 A 
ATOM     20  O   UNL     1      24.842  24.971  27.548  0.00  0.00    +0.000 OA
ENDBRANCH  15  16
ENDBRANCH  14  15
ENDBRANCH  10  12
TORSDOF 3
ENDMDL
