MODEL 1
REMARK VINA RESULT:      -8.0      0.000      0.000
REMARK  Name = 
REMARK  8 active torsions:
REMARK  status: ('A' for Active; 'I' for Inactive)
REMARK    1  A    between atoms: O_2  and  C_3
REMARK    2  A    between atoms: C_5  and  N_6
REMARK    3  A    between atoms: C_7  and  C_9
REMARK    4  A    between atoms: C_12  and  C_13
REMARK    5  A    between atoms: C_13  and  O_14
REMARK    6  A    between atoms: O_14  and  C_15
REMARK    7  A    between atoms: C_28  and  O_29
REMARK    8  A    between atoms: C_31  and  O_32
REMARK                            x       y       z     vdW  Elec       q    Type
REMARK                         _______ _______ _______ _____ _____    ______ ____
ROOT
ATOM      1  C   UNL     1      12.743   0.359  26.871  0.00  0.00    +0.000 A 
ATOM      2  C   UNL     1      13.503  -0.340  25.960  0.00  0.00    +0.000 A 
ATOM      3  C   UNL     1      14.868  -0.550  26.123  0.00  0.00    +0.000 A 
ATOM      4  C   UNL     1      15.491  -0.035  27.250  0.00  0.00    +0.000 A 
ATOM      5  C   UNL     1      14.744   0.664  28.167  0.00  0.00    +0.000 A 
ATOM      6  C   UNL     1      13.383   0.861  27.983  0.00  0.00    +0.000 A 
ENDROOT
BRANCH   1   8
ATOM      7  N   UNL     1      10.766   1.765  26.158  0.00  0.00    +0.000 NA
ATOM      8  C   UNL     1      11.304   0.564  26.668  0.00  0.00    +0.000 C 
ATOM      9  O   UNL     1      10.508  -0.364  26.960  0.00  0.00    +0.000 OA
BRANCH   7  12
ATOM     10  C   UNL     1       7.370   1.670  24.698  0.00  0.00    +0.000 A 
ATOM     11  C   UNL     1       8.713   1.489  24.840  0.00  0.00    +0.000 A 
ATOM     12  C   UNL     1       9.344   1.939  25.970  0.00  0.00    +0.000 A 
ATOM     13  C   UNL     1       8.639   2.574  26.971  0.00  0.00    +0.000 A 
ATOM     14  C   UNL     1       7.278   2.768  26.851  0.00  0.00    +0.000 A 
ATOM     15  C   UNL     1       6.670   2.303  25.696  0.00  0.00    +0.000 A 
BRANCH  10  17
ATOM     16  C   UNL     1       6.506  -0.140  23.283  0.00  0.00    +0.000 C 
ATOM     17  O   UNL     1       6.659   1.236  23.568  0.00  0.00    +0.000 OA
ENDBRANCH  10  17
BRANCH  14  18
ATOM     18  O   UNL     1       6.518   3.403  27.831  0.00  0.00    +0.000 OA
ATOM     19  C   UNL     1       6.483   2.789  29.118  0.00  0.00    +0.000 C 
ENDBRANCH  14  18
BRANCH  15  20
ATOM     20  O   UNL     1       5.292   2.508  25.589  0.00  0.00    +0.000 OA
ATOM     21  C   UNL     1       4.449   1.481  26.063  0.00  0.00    +0.000 C 
ENDBRANCH  15  20
ENDBRANCH   7  12
ENDBRANCH   1   8
BRANCH   4  22
ATOM     22  C   UNL     1      16.947  -0.267  27.418  0.00  0.00    +0.000 C 
BRANCH  22  23
ATOM     23  O   UNL     1      17.717   0.426  26.491  0.00  0.00    +0.000 OA
BRANCH  23  24
ATOM     24  C   UNL     1      18.431  -0.142  25.440  0.00  0.00    +0.000 A 
ATOM     25  C   UNL     1      18.535  -1.508  25.309  0.00  0.00    +0.000 A 
ATOM     26  C   UNL     1      19.236  -2.092  24.278  0.00  0.00    +0.000 A 
ATOM     27  C   UNL     1      19.879  -1.312  23.311  0.00  0.00    +0.000 A 
ATOM     28  C   UNL     1      20.579  -1.866  22.281  0.00  0.00    +0.000 A 
ATOM     29  C   UNL     1      21.204  -1.082  21.340  0.00  0.00    +0.000 A 
ATOM     30  C   UNL     1      21.107   0.286  21.459  0.00  0.00    +0.000 A 
ATOM     31  C   UNL     1      20.402   0.848  22.496  0.00  0.00    +0.000 A 
ATOM     32  C   UNL     1      19.777   0.054  23.439  0.00  0.00    +0.000 A 
ATOM     33  C   UNL     1      19.063   0.628  24.489  0.00  0.00    +0.000 A 
ENDBRANCH  23  24
ENDBRANCH  22  23
ENDBRANCH   4  22
TORSDOF 8
ENDMDL
MODEL 2
REMARK VINA RESULT:      -7.8      1.039      2.777
REMARK  Name = 
REMARK  8 active torsions:
REMARK  status: ('A' for Active; 'I' for Inactive)
REMARK    1  A    between atoms: O_2  and  C_3
REMARK    2  A    between atoms: C_5  and  N_6
REMARK    3  A    between atoms: C_7  and  C_9
REMARK    4  A    between atoms: C_12  and  C_13
REMARK    5  A    between atoms: C_13  and  O_14
REMARK    6  A    between atoms: O_14  and  C_15
REMARK    7  A    between atoms: C_28  and  O_29
REMARK    8  A    between atoms: C_31  and  O_32
REMARK                            x       y       z     vdW  Elec       q    Type
REMARK                         _______ _______ _______ _____ _____    ______ ____
ROOT
ATOM      1  C   UNL     1      12.950   0.036  26.904  0.00  0.00    +0.000 A 
ATOM      2  C   UNL     1      13.456   0.507  28.094  0.00  0.00    +0.000 A 
ATOM      3  C   UNL     1      14.816   0.507  28.387  0.00  0.00    +0.000 A 
ATOM      4  C   UNL     1      15.701   0.012  27.441  0.00  0.00    +0.000 A 
ATOM      5  C   UNL     1      15.209  -0.460  26.248  0.00  0.00    +0.000 A 
ATOM      6  C   UNL     1      13.848  -0.451  25.979  0.00  0.00    +0.000 A 
ENDROOT
BRANCH   1   8
ATOM      7  N   UNL     1      10.932   0.849  25.616  0.00  0.00    +0.000 NA
ATOM      8  C   UNL     1      11.509   0.050  26.627  0.00  0.00    +0.000 C 
ATOM      9  O   UNL     1      10.749  -0.677  27.314  0.00  0.00    +0.000 OA
BRANCH   7  12
ATOM     10  C   UNL     1       7.355   1.785  25.608  0.00  0.00    +0.000 A 
ATOM     11  C   UNL     1       8.692   1.824  25.864  0.00  0.00    +0.000 A 
ATOM     12  C   UNL     1       9.509   0.842  25.367  0.00  0.00    +0.000 A 
ATOM     13  C   UNL     1       8.996  -0.190  24.608  0.00  0.00    +0.000 A 
ATOM     14  C   UNL     1       7.645  -0.251  24.335  0.00  0.00    +0.000 A 
ATOM     15  C   UNL     1       6.847   0.757  24.852  0.00  0.00    +0.000 A 
BRANCH  10  17
ATOM     16  C   UNL     1       6.212   2.908  27.468  0.00  0.00    +0.000 C 
ATOM     17  O   UNL     1       6.460   2.756  26.084  0.00  0.00    +0.000 OA
ENDBRANCH  10  17
BRANCH  14  18
ATOM     18  O   UNL     1       7.075  -1.269  23.574  0.00  0.00    +0.000 OA
ATOM     19  C   UNL     1       7.242  -1.188  22.160  0.00  0.00    +0.000 C 
ENDBRANCH  14  18
BRANCH  15  20
ATOM     20  O   UNL     1       5.481   0.681  24.567  0.00  0.00    +0.000 OA
ATOM     21  C   UNL     1       4.665   0.009  25.502  0.00  0.00    +0.000 C 
ENDBRANCH  15  20
ENDBRANCH   7  12
ENDBRANCH   1   8
BRANCH   4  22
ATOM     22  C   UNL     1      17.149   0.019  27.760  0.00  0.00    +0.000 C 
BRANCH  22  23
ATOM     23  O   UNL     1      17.878  -0.883  26.993  0.00  0.00    +0.000 OA
BRANCH  23  24
ATOM     24  C   UNL     1      18.548  -0.587  25.808  0.00  0.00    +0.000 A 
ATOM     25  C   UNL     1      18.867   0.710  25.478  0.00  0.00    +0.000 A 
ATOM     26  C   UNL     1      19.528   1.025  24.313  0.00  0.00    +0.000 A 
ATOM     27  C   UNL     1      19.907   0.029  23.407  0.00  0.00    +0.000 A 
ATOM     28  C   UNL     1      20.562   0.315  22.246  0.00  0.00    +0.000 A 
ATOM     29  C   UNL     1      20.926  -0.678  21.369  0.00  0.00    +0.000 A 
ATOM     30  C   UNL     1      20.614  -1.980  21.687  0.00  0.00    +0.000 A 
ATOM     31  C   UNL     1      19.953  -2.272  22.856  0.00  0.00    +0.000 A 
ATOM     32  C   UNL     1      19.590  -1.269  23.734  0.00  0.00    +0.000 A 
ATOM     33  C   UNL     1      18.920  -1.570  24.918  0.00  0.00    +0.000 A 
ENDBRANCH  23  24
ENDBRANCH  22  23
ENDBRANCH   4  22
TORSDOF 8
ENDMDL
MODEL 3
REMARK VINA RESULT:      -7.8     24.707     29.645
REMARK  Name = 
REMARK  8 active torsions:
REMARK  status: ('A' for Active; 'I' for Inactive)
REMARK    1  A    between atoms: O_2  and  C_3
REMARK    2  A    between atoms: C_5  and  N_6
REMARK    3  A    between atoms: C_7  and  C_9
REMARK    4  A    between atoms: C_12  and  C_13
REMARK    5  A    between atoms: C_13  and  O_14
REMARK    6  A    between atoms: O_14  and  C_15
REMARK    7  A    between atoms: C_28  and  O_29
REMARK    8  A    between atoms: C_31  and  O_32
REMARK                            x       y       z     vdW  Elec       q    Type
REMARK                         _______ _______ _______ _____ _____    ______ ____
ROOT
ATOM      1  C   UNL     1      39.986   5.781  18.280  0.00  0.00    +0.000 A 
ATOM      2  C   UNL     1      40.396   6.018  16.988  0.00  0.00    +0.000 A 
ATOM      3  C   UNL     1      39.736   5.496  15.881  0.00  0.00    +0.000 A 
ATOM      4  C   UNL     1      38.617   4.703  16.085  0.00  0.00    +0.000 A 
ATOM      5  C   UNL     1      38.196   4.458  17.370  0.00  0.00    +0.000 A 
ATOM      6  C   UNL     1      38.872   4.990  18.460  0.00  0.00    +0.000 A 
ENDROOT
BRANCH   1   8
ATOM      7  N   UNL     1      42.111   6.481  19.458  0.00  0.00    +0.000 NA
ATOM      8  C   UNL     1      40.706   6.346  19.428  0.00  0.00    +0.000 C 
ATOM      9  O   UNL     1      40.052   6.728  20.431  0.00  0.00    +0.000 OA
BRANCH   7  12
ATOM     10  C   UNL     1      43.596   8.885  21.843  0.00  0.00    +0.000 A 
ATOM     11  C   UNL     1      42.948   8.394  20.750  0.00  0.00    +0.000 A 
ATOM     12  C   UNL     1      42.793   7.040  20.603  0.00  0.00    +0.000 A 
ATOM     13  C   UNL     1      43.284   6.163  21.547  0.00  0.00    +0.000 A 
ATOM     14  C   UNL     1      43.944   6.636  22.663  0.00  0.00    +0.000 A 
ATOM     15  C   UNL     1      44.085   8.010  22.782  0.00  0.00    +0.000 A 
BRANCH  10  17
ATOM     16  C   UNL     1      42.697  11.131  22.260  0.00  0.00    +0.000 C 
ATOM     17  O   UNL     1      43.791  10.258  22.058  0.00  0.00    +0.000 OA
ENDBRANCH  10  17
BRANCH  14  18
ATOM     18  O   UNL     1      44.460   5.796  23.647  0.00  0.00    +0.000 OA
ATOM     19  C   UNL     1      45.520   4.924  23.259  0.00  0.00    +0.000 C 
ENDBRANCH  14  18
BRANCH  15  20
ATOM     20  O   UNL     1      44.755   8.474  23.917  0.00  0.00    +0.000 OA
ATOM     21  C   UNL     1      46.155   8.622  23.822  0.00  0.00    +0.000 C 
ENDBRANCH  15  20
ENDBRANCH   7  12
ENDBRANCH   1   8
BRANCH   4  22
ATOM     22  C   UNL     1      37.917   4.153  14.899  0.00  0.00    +0.000 C 
BRANCH  22  23
ATOM     23  O   UNL     1      36.603   3.785  15.166  0.00  0.00    +0.000 OA
BRANCH  23  24
ATOM     24  C   UNL     1      36.175   2.516  15.548  0.00  0.00    +0.000 A 
ATOM     25  C   UNL     1      35.289   2.349  16.587  0.00  0.00    +0.000 A 
ATOM     26  C   UNL     1      34.853   1.104  16.981  0.00  0.00    +0.000 A 
ATOM     27  C   UNL     1      35.297  -0.053  16.335  0.00  0.00    +0.000 A 
ATOM     28  C   UNL     1      34.880  -1.297  16.706  0.00  0.00    +0.000 A 
ATOM     29  C   UNL     1      35.329  -2.423  16.058  0.00  0.00    +0.000 A 
ATOM     30  C   UNL     1      36.215  -2.270  15.016  0.00  0.00    +0.000 A 
ATOM     31  C   UNL     1      36.638  -1.017  14.639  0.00  0.00    +0.000 A 
ATOM     32  C   UNL     1      36.183   0.110  15.295  0.00  0.00    +0.000 A 
ATOM     33  C   UNL     1      36.614   1.378  14.909  0.00  0.00    +0.000 A 
ENDBRANCH  23  24
ENDBRANCH  22  23
ENDBRANCH   4  22
TORSDOF 8
ENDMDL
MODEL 4
REMARK VINA RESULT:      -7.7     24.675     29.605
REMARK  Name = 
REMARK  8 active torsions:
REMARK  status: ('A' for Active; 'I' for Inactive)
REMARK    1  A    between atoms: O_2  and  C_3
REMARK    2  A    between atoms: C_5  and  N_6
REMARK    3  A    between atoms: C_7  and  C_9
REMARK    4  A    between atoms: C_12  and  C_13
REMARK    5  A    between atoms: C_13  and  O_14
REMARK    6  A    between atoms: O_14  and  C_15
REMARK    7  A    between atoms: C_28  and  O_29
REMARK    8  A    between atoms: C_31  and  O_32
REMARK                            x       y       z     vdW  Elec       q    Type
REMARK                         _______ _______ _______ _____ _____    ______ ____
ROOT
ATOM      1  C   UNL     1      39.972   5.756  18.277  0.00  0.00    +0.000 A 
ATOM      2  C   UNL     1      40.371   5.993  16.981  0.00  0.00    +0.000 A 
ATOM      3  C   UNL     1      39.713   5.457  15.880  0.00  0.00    +0.000 A 
ATOM      4  C   UNL     1      38.607   4.648  16.094  0.00  0.00    +0.000 A 
ATOM      5  C   UNL     1      38.197   4.403  17.383  0.00  0.00    +0.000 A 
ATOM      6  C   UNL     1      38.871   4.949  18.466  0.00  0.00    +0.000 A 
ENDROOT
BRANCH   1   8
ATOM      7  N   UNL     1      42.098   6.434  19.466  0.00  0.00    +0.000 NA
ATOM      8  C   UNL     1      40.691   6.337  19.417  0.00  0.00    +0.000 C 
ATOM      9  O   UNL     1      40.033   6.767  20.397  0.00  0.00    +0.000 OA
BRANCH   7  12
ATOM     10  C   UNL     1      43.892   6.805  22.678  0.00  0.00    +0.000 A 
ATOM     11  C   UNL     1      43.257   6.227  21.621  0.00  0.00    +0.000 A 
ATOM     12  C   UNL     1      42.778   7.010  20.603  0.00  0.00    +0.000 A 
ATOM     13  C   UNL     1      42.931   8.381  20.631  0.00  0.00    +0.000 A 
ATOM     14  C   UNL     1      43.572   8.990  21.690  0.00  0.00    +0.000 A 
ATOM     15  C   UNL     1      44.044   8.171  22.703  0.00  0.00    +0.000 A 
BRANCH  10  17
ATOM     16  C   UNL     1      45.382   5.062  23.554  0.00  0.00    +0.000 C 
ATOM     17  O   UNL     1      44.407   6.066  23.754  0.00  0.00    +0.000 OA
ENDBRANCH  10  17
BRANCH  14  18
ATOM     18  O   UNL     1      43.755  10.369  21.769  0.00  0.00    +0.000 OA
ATOM     19  C   UNL     1      42.656  11.137  22.256  0.00  0.00    +0.000 C 
ENDBRANCH  14  18
BRANCH  15  20
ATOM     20  O   UNL     1      44.690   8.803  23.769  0.00  0.00    +0.000 OA
ATOM     21  C   UNL     1      46.094   8.922  23.691  0.00  0.00    +0.000 C 
ENDBRANCH  15  20
ENDBRANCH   7  12
ENDBRANCH   1   8
BRANCH   4  22
ATOM     22  C   UNL     1      37.908   4.082  14.915  0.00  0.00    +0.000 C 
BRANCH  22  23
ATOM     23  O   UNL     1      36.592   3.723  15.184  0.00  0.00    +0.000 OA
BRANCH  23  24
ATOM     24  C   UNL     1      36.158   2.459  15.572  0.00  0.00    +0.000 A 
ATOM     25  C   UNL     1      35.274   2.301  16.614  0.00  0.00    +0.000 A 
ATOM     26  C   UNL     1      34.830   1.061  17.015  0.00  0.00    +0.000 A 
ATOM     27  C   UNL     1      35.265  -0.102  16.372  0.00  0.00    +0.000 A 
ATOM     28  C   UNL     1      34.842  -1.342  16.749  0.00  0.00    +0.000 A 
ATOM     29  C   UNL     1      35.281  -2.473  16.105  0.00  0.00    +0.000 A 
ATOM     30  C   UNL     1      36.165  -2.330  15.060  0.00  0.00    +0.000 A 
ATOM     31  C   UNL     1      36.595  -1.082  14.676  0.00  0.00    +0.000 A 
ATOM     32  C   UNL     1      36.150   0.052  15.329  0.00  0.00    +0.000 A 
ATOM     33  C   UNL     1      36.588   1.315  14.936  0.00  0.00    +0.000 A 
ENDBRANCH  23  24
ENDBRANCH  22  23
ENDBRANCH   4  22
TORSDOF 8
ENDMDL
MODEL 5
REMARK VINA RESULT:      -7.6      1.316      1.691
REMARK  Name = 
REMARK  8 active torsions:
REMARK  status: ('A' for Active; 'I' for Inactive)
REMARK    1  A    between atoms: O_2  and  C_3
REMARK    2  A    between atoms: C_5  and  N_6
REMARK    3  A    between atoms: C_7  and  C_9
REMARK    4  A    between atoms: C_12  and  C_13
REMARK    5  A    between atoms: C_13  and  O_14
REMARK    6  A    between atoms: O_14  and  C_15
REMARK    7  A    between atoms: C_28  and  O_29
REMARK    8  A    between atoms: C_31  and  O_32
REMARK                            x       y       z     vdW  Elec       q    Type
REMARK                         _______ _______ _______ _____ _____    ______ ____
ROOT
ATOM      1  C   UNL     1      11.982   0.199  26.639  0.00  0.00    +0.000 A 
ATOM      2  C   UNL     1      12.850  -0.739  26.128  0.00  0.00    +0.000 A 
ATOM      3  C   UNL     1      14.210  -0.742  26.418  0.00  0.00    +0.000 A 
ATOM      4  C   UNL     1      14.715   0.241  27.257  0.00  0.00    +0.000 A 
ATOM      5  C   UNL     1      13.858   1.183  27.774  0.00  0.00    +0.000 A 
ATOM      6  C   UNL     1      12.505   1.166  27.470  0.00  0.00    +0.000 A 
ENDROOT
BRANCH   1   8
ATOM      7  N   UNL     1      10.050   0.534  25.042  0.00  0.00    +0.000 NA
ATOM      8  C   UNL     1      10.551   0.174  26.312  0.00  0.00    +0.000 C 
ATOM      9  O   UNL     1       9.729  -0.179  27.194  0.00  0.00    +0.000 OA
BRANCH   7  12
ATOM     10  C   UNL     1       6.701  -0.615  23.975  0.00  0.00    +0.000 A 
ATOM     11  C   UNL     1       8.037  -0.620  24.239  0.00  0.00    +0.000 A 
ATOM     12  C   UNL     1       8.635   0.502  24.749  0.00  0.00    +0.000 A 
ATOM     13  C   UNL     1       7.902   1.643  25.003  0.00  0.00    +0.000 A 
ATOM     14  C   UNL     1       6.547   1.673  24.745  0.00  0.00    +0.000 A 
ATOM     15  C   UNL     1       5.973   0.522  24.229  0.00  0.00    +0.000 A 
BRANCH  10  17
ATOM     16  C   UNL     1       6.675  -2.648  22.600  0.00  0.00    +0.000 C 
ATOM     17  O   UNL     1       6.023  -1.727  23.452  0.00  0.00    +0.000 OA
ENDBRANCH  10  17
BRANCH  14  18
ATOM     18  O   UNL     1       5.760   2.798  24.983  0.00  0.00    +0.000 OA
ATOM     19  C   UNL     1       5.711   3.278  26.325  0.00  0.00    +0.000 C 
ENDBRANCH  14  18
BRANCH  15  20
ATOM     20  O   UNL     1       4.600   0.569  23.973  0.00  0.00    +0.000 OA
ATOM     21  C   UNL     1       3.740   0.090  24.983  0.00  0.00    +0.000 C 
ENDBRANCH  15  20
ENDBRANCH   7  12
ENDBRANCH   1   8
BRANCH   4  22
ATOM     22  C   UNL     1      16.166   0.228  27.564  0.00  0.00    +0.000 C 
BRANCH  22  23
ATOM     23  O   UNL     1      16.929   0.886  26.606  0.00  0.00    +0.000 OA
BRANCH  23  24
ATOM     24  C   UNL     1      17.784   0.280  25.690  0.00  0.00    +0.000 A 
ATOM     25  C   UNL     1      17.830  -1.089  25.562  0.00  0.00    +0.000 A 
ATOM     26  C   UNL     1      18.668  -1.710  24.663  0.00  0.00    +0.000 A 
ATOM     27  C   UNL     1      19.516  -0.968  23.836  0.00  0.00    +0.000 A 
ATOM     28  C   UNL     1      20.356  -1.558  22.939  0.00  0.00    +0.000 A 
ATOM     29  C   UNL     1      21.182  -0.810  22.134  0.00  0.00    +0.000 A 
ATOM     30  C   UNL     1      21.145   0.560  22.253  0.00  0.00    +0.000 A 
ATOM     31  C   UNL     1      20.301   1.160  23.157  0.00  0.00    +0.000 A 
ATOM     32  C   UNL     1      19.473   0.402  23.962  0.00  0.00    +0.000 A 
ATOM     33  C   UNL     1      18.618   1.014  24.877  0.00  0.00    +0.000 A 
ENDBRANCH  23  24
ENDBRANCH  22  23
ENDBRANCH   4  22
TORSDOF 8
ENDMDL
MODEL 6
REMARK VINA RESULT:      -7.5     25.313     28.009
REMARK  Name = 
REMARK  8 active torsions:
REMARK  status: ('A' for Active; 'I' for Inactive)
REMARK    1  A    between atoms: O_2  and  C_3
REMARK    2  A    between atoms: C_5  and  N_6
REMARK    3  A    between atoms: C_7  and  C_9
REMARK    4  A    between atoms: C_12  and  C_13
REMARK    5  A    between atoms: C_13  and  O_14
REMARK    6  A    between atoms: O_14  and  C_15
REMARK    7  A    between atoms: C_28  and  O_29
REMARK    8  A    between atoms: C_31  and  O_32
REMARK                            x       y       z     vdW  Elec       q    Type
REMARK                         _______ _______ _______ _____ _____    ______ ____
ROOT
ATOM      1  C   UNL     1      38.534   3.479  15.113  0.00  0.00    +0.000 A 
ATOM      2  C   UNL     1      39.502   2.598  14.687  0.00  0.00    +0.000 A 
ATOM      3  C   UNL     1      39.227   1.526  13.845  0.00  0.00    +0.000 A 
ATOM      4  C   UNL     1      37.922   1.335  13.415  0.00  0.00    +0.000 A 
ATOM      5  C   UNL     1      36.946   2.207  13.832  0.00  0.00    +0.000 A 
ATOM      6  C   UNL     1      37.245   3.270  14.674  0.00  0.00    +0.000 A 
ENDROOT
BRANCH   1   8
ATOM      7  N   UNL     1      38.604   4.573  17.392  0.00  0.00    +0.000 NA
ATOM      8  C   UNL     1      38.858   4.600  16.004  0.00  0.00    +0.000 C 
ATOM      9  O   UNL     1      39.383   5.633  15.518  0.00  0.00    +0.000 OA
BRANCH   7  12
ATOM     10  C   UNL     1      40.332   6.760  19.821  0.00  0.00    +0.000 A 
ATOM     11  C   UNL     1      40.054   5.686  19.031  0.00  0.00    +0.000 A 
ATOM     12  C   UNL     1      38.933   5.693  18.244  0.00  0.00    +0.000 A 
ATOM     13  C   UNL     1      38.077   6.775  18.237  0.00  0.00    +0.000 A 
ATOM     14  C   UNL     1      38.338   7.875  19.028  0.00  0.00    +0.000 A 
ATOM     15  C   UNL     1      39.479   7.837  19.813  0.00  0.00    +0.000 A 
BRANCH  10  17
ATOM     16  C   UNL     1      42.769   6.828  20.114  0.00  0.00    +0.000 C 
ATOM     17  O   UNL     1      41.461   6.821  20.653  0.00  0.00    +0.000 OA
ENDBRANCH  10  17
BRANCH  14  18
ATOM     18  O   UNL     1      37.508   8.994  19.060  0.00  0.00    +0.000 OA
ATOM     19  C   UNL     1      36.948   9.416  17.818  0.00  0.00    +0.000 C 
ENDBRANCH  14  18
BRANCH  15  20
ATOM     20  O   UNL     1      39.729   8.958  20.609  0.00  0.00    +0.000 OA
ATOM     21  C   UNL     1      40.550   9.966  20.062  0.00  0.00    +0.000 C 
ENDBRANCH  15  20
ENDBRANCH   7  12
ENDBRANCH   1   8
BRANCH   4  22
ATOM     22  C   UNL     1      37.638   0.192  12.515  0.00  0.00    +0.000 C 
BRANCH  22  23
ATOM     23  O   UNL     1      37.189  -0.936  13.194  0.00  0.00    +0.000 OA
BRANCH  23  24
ATOM     24  C   UNL     1      37.495  -1.267  14.511  0.00  0.00    +0.000 A 
ATOM     25  C   UNL     1      38.650  -1.945  14.822  0.00  0.00    +0.000 A 
ATOM     26  C   UNL     1      38.973  -2.284  16.117  0.00  0.00    +0.000 A 
ATOM     27  C   UNL     1      38.130  -1.948  17.180  0.00  0.00    +0.000 A 
ATOM     28  C   UNL     1      38.426  -2.271  18.471  0.00  0.00    +0.000 A 
ATOM     29  C   UNL     1      37.584  -1.931  19.503  0.00  0.00    +0.000 A 
ATOM     30  C   UNL     1      36.425  -1.252  19.206  0.00  0.00    +0.000 A 
ATOM     31  C   UNL     1      36.122  -0.925  17.906  0.00  0.00    +0.000 A 
ATOM     32  C   UNL     1      36.973  -1.269  16.873  0.00  0.00    +0.000 A 
ATOM     33  C   UNL     1      36.662  -0.935  15.556  0.00  0.00    +0.000 A 
ENDBRANCH  23  24
ENDBRANCH  22  23
ENDBRANCH   4  22
TORSDOF 8
ENDMDL
MODEL 7
REMARK VINA RESULT:      -7.4     26.590     30.118
REMARK  Name = 
REMARK  8 active torsions:
REMARK  status: ('A' for Active; 'I' for Inactive)
REMARK    1  A    between atoms: O_2  and  C_3
REMARK    2  A    between atoms: C_5  and  N_6
REMARK    3  A    between atoms: C_7  and  C_9
REMARK    4  A    between atoms: C_12  and  C_13
REMARK    5  A    between atoms: C_13  and  O_14
REMARK    6  A    between atoms: O_14  and  C_15
REMARK    7  A    between atoms: C_28  and  O_29
REMARK    8  A    between atoms: C_31  and  O_32
REMARK                            x       y       z     vdW  Elec       q    Type
REMARK                         _______ _______ _______ _____ _____    ______ ____
ROOT
ATOM      1  C   UNL     1      39.696   5.570  17.929  0.00  0.00    +0.000 A 
ATOM      2  C   UNL     1      40.093   5.744  16.623  0.00  0.00    +0.000 A 
ATOM      3  C   UNL     1      39.431   5.156  15.550  0.00  0.00    +0.000 A 
ATOM      4  C   UNL     1      38.324   4.361  15.805  0.00  0.00    +0.000 A 
ATOM      5  C   UNL     1      37.917   4.179  17.105  0.00  0.00    +0.000 A 
ATOM      6  C   UNL     1      38.594   4.775  18.159  0.00  0.00    +0.000 A 
ENDROOT
BRANCH   1   8
ATOM      7  N   UNL     1      41.806   6.461  19.002  0.00  0.00    +0.000 NA
ATOM      8  C   UNL     1      40.418   6.204  19.039  0.00  0.00    +0.000 C 
ATOM      9  O   UNL     1      39.782   6.534  20.071  0.00  0.00    +0.000 OA
BRANCH   7  12
ATOM     10  C   UNL     1      43.196   9.003  21.299  0.00  0.00    +0.000 A 
ATOM     11  C   UNL     1      42.542   8.449  20.240  0.00  0.00    +0.000 A 
ATOM     12  C   UNL     1      42.489   7.086  20.110  0.00  0.00    +0.000 A 
ATOM     13  C   UNL     1      43.090   6.261  21.040  0.00  0.00    +0.000 A 
ATOM     14  C   UNL     1      43.757   6.798  22.121  0.00  0.00    +0.000 A 
ATOM     15  C   UNL     1      43.793   8.180  22.223  0.00  0.00    +0.000 A 
BRANCH  10  17
ATOM     16  C   UNL     1      42.158  11.158  21.851  0.00  0.00    +0.000 C 
ATOM     17  O   UNL     1      43.290  10.389  21.495  0.00  0.00    +0.000 OA
ENDBRANCH  10  17
BRANCH  14  18
ATOM     18  O   UNL     1      44.380   6.012  23.088  0.00  0.00    +0.000 OA
ATOM     19  C   UNL     1      44.951   4.782  22.648  0.00  0.00    +0.000 C 
ENDBRANCH  14  18
BRANCH  15  20
ATOM     20  O   UNL     1      44.473   8.708  23.324  0.00  0.00    +0.000 OA
ATOM     21  C   UNL     1      45.840   9.011  23.151  0.00  0.00    +0.000 C 
ENDBRANCH  15  20
ENDBRANCH   7  12
ENDBRANCH   1   8
BRANCH   4  22
ATOM     22  C   UNL     1      37.622   3.740  14.656  0.00  0.00    +0.000 C 
BRANCH  22  23
ATOM     23  O   UNL     1      36.985   2.550  14.986  0.00  0.00    +0.000 OA
BRANCH  23  24
ATOM     24  C   UNL     1      37.601   1.309  15.126  0.00  0.00    +0.000 A 
ATOM     25  C   UNL     1      36.971   0.272  15.774  0.00  0.00    +0.000 A 
ATOM     26  C   UNL     1      37.561  -0.962  15.924  0.00  0.00    +0.000 A 
ATOM     27  C   UNL     1      38.839  -1.216  15.417  0.00  0.00    +0.000 A 
ATOM     28  C   UNL     1      39.445  -2.430  15.552  0.00  0.00    +0.000 A 
ATOM     29  C   UNL     1      40.702  -2.660  15.046  0.00  0.00    +0.000 A 
ATOM     30  C   UNL     1      41.344  -1.632  14.395  0.00  0.00    +0.000 A 
ATOM     31  C   UNL     1      40.736  -0.406  14.257  0.00  0.00    +0.000 A 
ATOM     32  C   UNL     1      39.472  -0.182  14.767  0.00  0.00    +0.000 A 
ATOM     33  C   UNL     1      38.860   1.062  14.625  0.00  0.00    +0.000 A 
ENDBRANCH  23  24
ENDBRANCH  22  23
ENDBRANCH   4  22
TORSDOF 8
ENDMDL
MODEL 8
REMARK VINA RESULT:      -7.3     16.592     18.871
REMARK  Name = 
REMARK  8 active torsions:
REMARK  status: ('A' for Active; 'I' for Inactive)
REMARK    1  A    between atoms: O_2  and  C_3
REMARK    2  A    between atoms: C_5  and  N_6
REMARK    3  A    between atoms: C_7  and  C_9
REMARK    4  A    between atoms: C_12  and  C_13
REMARK    5  A    between atoms: C_13  and  O_14
REMARK    6  A    between atoms: O_14  and  C_15
REMARK    7  A    between atoms: C_28  and  O_29
REMARK    8  A    between atoms: C_31  and  O_32
REMARK                            x       y       z     vdW  Elec       q    Type
REMARK                         _______ _______ _______ _____ _____    ______ ____
ROOT
ATOM      1  C   UNL     1      11.814   1.003   7.202  0.00  0.00    +0.000 A 
ATOM      2  C   UNL     1      12.625   0.111   7.864  0.00  0.00    +0.000 A 
ATOM      3  C   UNL     1      13.565  -0.680   7.212  0.00  0.00    +0.000 A 
ATOM      4  C   UNL     1      13.692  -0.566   5.835  0.00  0.00    +0.000 A 
ATOM      5  C   UNL     1      12.888   0.322   5.162  0.00  0.00    +0.000 A 
ATOM      6  C   UNL     1      11.957   1.100   5.834  0.00  0.00    +0.000 A 
ENDROOT
BRANCH   1   8
ATOM      7  N   UNL     1      11.185   2.698   8.970  0.00  0.00    +0.000 NA
ATOM      8  C   UNL     1      10.831   1.823   7.920  0.00  0.00    +0.000 C 
ATOM      9  O   UNL     1       9.620   1.748   7.595  0.00  0.00    +0.000 OA
BRANCH   7  12
ATOM     10  C   UNL     1       8.550   3.759  11.336  0.00  0.00    +0.000 A 
ATOM     11  C   UNL     1       9.475   2.981  10.709  0.00  0.00    +0.000 A 
ATOM     12  C   UNL     1      10.195   3.491   9.661  0.00  0.00    +0.000 A 
ATOM     13  C   UNL     1       9.997   4.787   9.228  0.00  0.00    +0.000 A 
ATOM     14  C   UNL     1       9.066   5.594   9.848  0.00  0.00    +0.000 A 
ATOM     15  C   UNL     1       8.354   5.048  10.904  0.00  0.00    +0.000 A 
BRANCH  10  17
ATOM     16  C   UNL     1       8.382   2.753  13.570  0.00  0.00    +0.000 C 
ATOM     17  O   UNL     1       7.777   3.303  12.415  0.00  0.00    +0.000 OA
ENDBRANCH  10  17
BRANCH  14  18
ATOM     18  O   UNL     1       8.826   6.909   9.453  0.00  0.00    +0.000 OA
ATOM     19  C   UNL     1       8.305   7.101   8.139  0.00  0.00    +0.000 C 
ENDBRANCH  14  18
BRANCH  15  20
ATOM     20  O   UNL     1       7.415   5.879  11.521  0.00  0.00    +0.000 OA
ATOM     21  C   UNL     1       6.095   5.837  11.025  0.00  0.00    +0.000 C 
ENDBRANCH  15  20
ENDBRANCH   7  12
ENDBRANCH   1   8
BRANCH   4  22
ATOM     22  C   UNL     1      14.698  -1.411   5.148  0.00  0.00    +0.000 C 
BRANCH  22  23
ATOM     23  O   UNL     1      16.002  -1.126   5.537  0.00  0.00    +0.000 OA
BRANCH  23  24
ATOM     24  C   UNL     1      16.966  -0.497   4.753  0.00  0.00    +0.000 A 
ATOM     25  C   UNL     1      18.302  -0.788   4.900  0.00  0.00    +0.000 A 
ATOM     26  C   UNL     1      19.271  -0.179   4.136  0.00  0.00    +0.000 A 
ATOM     27  C   UNL     1      18.934   0.772   3.169  0.00  0.00    +0.000 A 
ATOM     28  C   UNL     1      19.874   1.391   2.399  0.00  0.00    +0.000 A 
ATOM     29  C   UNL     1      19.522   2.323   1.453  0.00  0.00    +0.000 A 
ATOM     30  C   UNL     1      18.189   2.624   1.295  0.00  0.00    +0.000 A 
ATOM     31  C   UNL     1      17.237   2.003   2.069  0.00  0.00    +0.000 A 
ATOM     32  C   UNL     1      17.598   1.067   3.018  0.00  0.00    +0.000 A 
ATOM     33  C   UNL     1      16.630   0.440   3.800  0.00  0.00    +0.000 A 
ENDBRANCH  23  24
ENDBRANCH  22  23
ENDBRANCH   4  22
TORSDOF 8
ENDMDL
MODEL 9
REMARK VINA RESULT:      -7.3     20.564     22.675
REMARK  Name = 
REMARK  8 active torsions:
REMARK  status: ('A' for Active; 'I' for Inactive)
REMARK    1  A    between atoms: O_2  and  C_3
REMARK    2  A    between atoms: C_5  and  N_6
REMARK    3  A    between atoms: C_7  and  C_9
REMARK    4  A    between atoms: C_12  and  C_13
REMARK    5  A    between atoms: C_13  and  O_14
REMARK    6  A    between atoms: O_14  and  C_15
REMARK    7  A    between atoms: C_28  and  O_29
REMARK    8  A    between atoms: C_31  and  O_32
REMARK                            x       y       z     vdW  Elec       q    Type
REMARK                         _______ _______ _______ _____ _____    ______ ____
ROOT
ATOM      1  C   UNL     1      21.977  15.853  41.326  0.00  0.00    +0.000 A 
ATOM      2  C   UNL     1      22.912  15.357  40.447  0.00  0.00    +0.000 A 
ATOM      3  C   UNL     1      23.806  16.171  39.760  0.00  0.00    +0.000 A 
ATOM      4  C   UNL     1      23.754  17.541  39.967  0.00  0.00    +0.000 A 
ATOM      5  C   UNL     1      22.825  18.050  40.842  0.00  0.00    +0.000 A 
ATOM      6  C   UNL     1      21.943  17.218  41.517  0.00  0.00    +0.000 A 
ENDROOT
BRANCH   1   8
ATOM      7  N   UNL     1      20.825  13.626  41.651  0.00  0.00    +0.000 NA
ATOM      8  C   UNL     1      21.047  14.966  42.035  0.00  0.00    +0.000 C 
ATOM      9  O   UNL     1      20.415  15.411  43.026  0.00  0.00    +0.000 OA
BRANCH   7  12
ATOM     10  C   UNL     1      19.436  11.118  43.987  0.00  0.00    +0.000 A 
ATOM     11  C   UNL     1      20.335  11.904  43.332  0.00  0.00    +0.000 A 
ATOM     12  C   UNL     1      19.902  12.777  42.368  0.00  0.00    +0.000 A 
ATOM     13  C   UNL     1      18.563  12.874  42.050  0.00  0.00    +0.000 A 
ATOM     14  C   UNL     1      17.632  12.090  42.701  0.00  0.00    +0.000 A 
ATOM     15  C   UNL     1      18.103  11.217  43.669  0.00  0.00    +0.000 A 
BRANCH  10  17
ATOM     16  C   UNL     1      21.047   9.523  44.928  0.00  0.00    +0.000 C 
ATOM     17  O   UNL     1      19.809  10.203  44.983  0.00  0.00    +0.000 OA
ENDBRANCH  10  17
BRANCH  14  18
ATOM     18  O   UNL     1      16.269  12.148  42.420  0.00  0.00    +0.000 OA
ATOM     19  C   UNL     1      15.637  13.419  42.555  0.00  0.00    +0.000 C 
ENDBRANCH  14  18
BRANCH  15  20
ATOM     20  O   UNL     1      17.149  10.429  44.318  0.00  0.00    +0.000 OA
ATOM     21  C   UNL     1      16.543  10.971  45.472  0.00  0.00    +0.000 C 
ENDBRANCH  15  20
ENDBRANCH   7  12
ENDBRANCH   1   8
BRANCH   4  22
ATOM     22  C   UNL     1      24.713  18.402  39.233  0.00  0.00    +0.000 C 
BRANCH  22  23
ATOM     23  O   UNL     1      25.583  17.679  38.425  0.00  0.00    +0.000 OA
BRANCH  23  24
ATOM     24  C   UNL     1      25.416  17.434  37.065  0.00  0.00    +0.000 A 
ATOM     25  C   UNL     1      24.978  18.422  36.214  0.00  0.00    +0.000 A 
ATOM     26  C   UNL     1      24.806  18.203  34.866  0.00  0.00    +0.000 A 
ATOM     27  C   UNL     1      25.072  16.953  34.300  0.00  0.00    +0.000 A 
ATOM     28  C   UNL     1      24.909  16.709  32.968  0.00  0.00    +0.000 A 
ATOM     29  C   UNL     1      25.176  15.473  32.431  0.00  0.00    +0.000 A 
ATOM     30  C   UNL     1      25.616  14.475  33.271  0.00  0.00    +0.000 A 
ATOM     31  C   UNL     1      25.781  14.716  34.614  0.00  0.00    +0.000 A 
ATOM     32  C   UNL     1      25.510  15.961  35.148  0.00  0.00    +0.000 A 
ATOM     33  C   UNL     1      25.679  16.201  36.510  0.00  0.00    +0.000 A 
ENDBRANCH  23  24
ENDBRANCH  22  23
ENDBRANCH   4  22
TORSDOF 8
ENDMDL
MODEL 10
REMARK VINA RESULT:      -7.2     20.805     25.118
REMARK  Name = 
REMARK  8 active torsions:
REMARK  status: ('A' for Active; 'I' for Inactive)
REMARK    1  A    between atoms: O_2  and  C_3
REMARK    2  A    between atoms: C_5  and  N_6
REMARK    3  A    between atoms: C_7  and  C_9
REMARK    4  A    between atoms: C_12  and  C_13
REMARK    5  A    between atoms: C_13  and  O_14
REMARK    6  A    between atoms: O_14  and  C_15
REMARK    7  A    between atoms: C_28  and  O_29
REMARK    8  A    between atoms: C_31  and  O_32
REMARK                            x       y       z     vdW  Elec       q    Type
REMARK                         _______ _______ _______ _____ _____    ______ ____
ROOT
ATOM      1  C   UNL     1      26.718  17.584  21.348  0.00  0.00    +0.000 A 
ATOM      2  C   UNL     1      26.357  18.864  21.703  0.00  0.00    +0.000 A 
ATOM      3  C   UNL     1      25.041  19.313  21.662  0.00  0.00    +0.000 A 
ATOM      4  C   UNL     1      24.050  18.437  21.247  0.00  0.00    +0.000 A 
ATOM      5  C   UNL     1      24.397  17.156  20.890  0.00  0.00    +0.000 A 
ATOM      6  C   UNL     1      25.717  16.730  20.938  0.00  0.00    +0.000 A 
ENDROOT
BRANCH   1   8
ATOM      7  N   UNL     1      29.138  17.904  22.008  0.00  0.00    +0.000 NA
ATOM      8  C   UNL     1      28.117  17.141  21.401  0.00  0.00    +0.000 C 
ATOM      9  O   UNL     1      28.427  16.038  20.886  0.00  0.00    +0.000 OA
BRANCH   7  12
ATOM     10  C   UNL     1      32.557  16.943  20.980  0.00  0.00    +0.000 A 
ATOM     11  C   UNL     1      31.271  17.383  20.908  0.00  0.00    +0.000 A 
ATOM     12  C   UNL     1      30.507  17.443  22.044  0.00  0.00    +0.000 A 
ATOM     13  C   UNL     1      31.023  17.063  23.266  0.00  0.00    +0.000 A 
ATOM     14  C   UNL     1      32.324  16.614  23.365  0.00  0.00    +0.000 A 
ATOM     15  C   UNL     1      33.069  16.566  22.197  0.00  0.00    +0.000 A 
BRANCH  10  17
ATOM     16  C   UNL     1      33.315  15.763  18.965  0.00  0.00    +0.000 C 
ATOM     17  O   UNL     1      33.396  16.856  19.858  0.00  0.00    +0.000 OA
ENDBRANCH  10  17
BRANCH  14  18
ATOM     18  O   UNL     1      32.895  16.219  24.572  0.00  0.00    +0.000 OA
ATOM     19  C   UNL     1      32.969  17.202  25.602  0.00  0.00    +0.000 C 
ENDBRANCH  14  18
BRANCH  15  20
ATOM     20  O   UNL     1      34.385  16.108  22.314  0.00  0.00    +0.000 OA
ATOM     21  C   UNL     1      35.386  17.078  22.530  0.00  0.00    +0.000 C 
ENDBRANCH  15  20
ENDBRANCH   7  12
ENDBRANCH   1   8
BRANCH   4  22
ATOM     22  C   UNL     1      22.650  18.923  21.210  0.00  0.00    +0.000 C 
BRANCH  22  23
ATOM     23  O   UNL     1      21.818  18.123  20.435  0.00  0.00    +0.000 OA
BRANCH  23  24
ATOM     24  C   UNL     1      21.189  18.508  19.254  0.00  0.00    +0.000 A 
ATOM     25  C   UNL     1      19.823  18.416  19.115  0.00  0.00    +0.000 A 
ATOM     26  C   UNL     1      19.180  18.791  17.957  0.00  0.00    +0.000 A 
ATOM     27  C   UNL     1      19.896  19.286  16.863  0.00  0.00    +0.000 A 
ATOM     28  C   UNL     1      19.283  19.663  15.705  0.00  0.00    +0.000 A 
ATOM     29  C   UNL     1      20.005  20.147  14.640  0.00  0.00    +0.000 A 
ATOM     30  C   UNL     1      21.372  20.245  14.766  0.00  0.00    +0.000 A 
ATOM     31  C   UNL     1      21.994  19.865  15.932  0.00  0.00    +0.000 A 
ATOM     32  C   UNL     1      21.262  19.379  16.998  0.00  0.00    +0.000 A 
ATOM     33  C   UNL     1      21.897  18.995  18.178  0.00  0.00    +0.000 A 
ENDBRANCH  23  24
ENDBRANCH  22  23
ENDBRANCH   4  22
TORSDOF 8
ENDMDL
