MODEL 1
REMARK VINA RESULT:      -7.7      0.000      0.000
REMARK  Name = 
REMARK  9 active torsions:
REMARK  status: ('A' for Active; 'I' for Inactive)
REMARK    1  A    between atoms: C_2  and  O_3
REMARK    2  A    between atoms: O_3  and  C_4
REMARK    3  A    between atoms: C_7  and  N_8
REMARK    4  A    between atoms: C_9  and  C_11
REMARK    5  A    between atoms: C_11  and  S_12
REMARK    6  A    between atoms: S_12  and  C_13
REMARK    7  A    between atoms: C_16  and  C_17
REMARK    8  A    between atoms: N_23  and  C_24
REMARK    9  A    between atoms: C_24  and  C_25
REMARK                            x       y       z     vdW  Elec       q    Type
REMARK                         _______ _______ _______ _____ _____    ______ ____
ROOT
ATOM      1  C   UNL     1      38.446   1.901  14.562  0.00  0.00    +0.000 A 
ATOM      2  N   UNL     1      39.705   1.504  14.325  0.00  0.00    +0.000 NA
ATOM      3  C   UNL     1      39.812   0.215  14.610  0.00  0.00    +0.000 A 
ATOM      4  C   UNL     1      38.568  -0.231  15.049  0.00  0.00    +0.000 A 
ATOM      5  N   UNL     1      37.755   0.842  15.003  0.00  0.00    +0.000 N 
ENDROOT
BRANCH   4   6
ATOM      6  C   UNL     1      38.291  -1.594  15.467  0.00  0.00    +0.000 A 
ATOM      7  C   UNL     1      38.778  -2.054  16.662  0.00  0.00    +0.000 A 
ATOM      8  C   UNL     1      38.524  -3.354  17.110  0.00  0.00    +0.000 A 
ATOM      9  C   UNL     1      37.767  -4.213  16.345  0.00  0.00    +0.000 A 
ATOM     10  C   UNL     1      37.275  -3.757  15.144  0.00  0.00    +0.000 A 
ATOM     11  C   UNL     1      37.541  -2.455  14.715  0.00  0.00    +0.000 A 
ENDBRANCH   4   6
BRANCH   1  12
ATOM     12  S   UNL     1      37.795   3.546  14.351  0.00  0.00    +0.000 S 
BRANCH  12  13
ATOM     13  C   UNL     1      37.015   4.063  15.874  0.00  0.00    +0.000 C 
BRANCH  13  15
ATOM     14  N   UNL     1      38.759   5.681  16.826  0.00  0.00    +0.000 NA
ATOM     15  C   UNL     1      38.005   4.477  16.910  0.00  0.00    +0.000 C 
ATOM     16  O   UNL     1      38.211   3.757  17.920  0.00  0.00    +0.000 OA
BRANCH  14  20
ATOM     17  C   UNL     1      41.449   6.882  19.879  0.00  0.00    +0.000 A 
ATOM     18  C   UNL     1      41.907   6.581  18.615  0.00  0.00    +0.000 A 
ATOM     19  C   UNL     1      41.052   6.185  17.595  0.00  0.00    +0.000 A 
ATOM     20  C   UNL     1      39.697   6.075  17.806  0.00  0.00    +0.000 A 
ATOM     21  C   UNL     1      39.244   6.378  19.073  0.00  0.00    +0.000 A 
ATOM     22  C   UNL     1      40.091   6.773  20.089  0.00  0.00    +0.000 A 
BRANCH  17  23
ATOM     23  O   UNL     1      42.324   7.282  20.898  0.00  0.00    +0.000 OA
BRANCH  23  25
ATOM     24  C   UNL     1      43.935   5.632  21.629  0.00  0.00    +0.000 C 
ATOM     25  C   UNL     1      43.693   6.925  20.882  0.00  0.00    +0.000 C 
ENDBRANCH  23  25
ENDBRANCH  17  23
ENDBRANCH  14  20
ENDBRANCH  13  15
ENDBRANCH  12  13
ENDBRANCH   1  12
BRANCH   5  26
ATOM     26  C   UNL     1      36.367   0.882  15.347  0.00  0.00    +0.000 C 
BRANCH  26  27
ATOM     27  C   UNL     1      36.045   0.430  16.694  0.00  0.00    +0.000 A 
ATOM     28  C   UNL     1      35.161  -0.547  17.054  0.00  0.00    +0.000 A 
ATOM     29  C   UNL     1      35.192  -0.626  18.428  0.00  0.00    +0.000 A 
ATOM     30  C   UNL     1      36.106   0.320  18.831  0.00  0.00    +0.000 A 
ATOM     31  O   UNL     1      36.573   0.906  17.786  0.00  0.00    +0.000 OA
ENDBRANCH  26  27
ENDBRANCH   5  26
TORSDOF 9
ENDMDL
MODEL 2
REMARK VINA RESULT:      -7.7      1.653      2.386
REMARK  Name = 
REMARK  9 active torsions:
REMARK  status: ('A' for Active; 'I' for Inactive)
REMARK    1  A    between atoms: C_2  and  O_3
REMARK    2  A    between atoms: O_3  and  C_4
REMARK    3  A    between atoms: C_7  and  N_8
REMARK    4  A    between atoms: C_9  and  C_11
REMARK    5  A    between atoms: C_11  and  S_12
REMARK    6  A    between atoms: S_12  and  C_13
REMARK    7  A    between atoms: C_16  and  C_17
REMARK    8  A    between atoms: N_23  and  C_24
REMARK    9  A    between atoms: C_24  and  C_25
REMARK                            x       y       z     vdW  Elec       q    Type
REMARK                         _______ _______ _______ _____ _____    ______ ____
ROOT
ATOM      1  C   UNL     1      38.478   0.654  14.653  0.00  0.00    +0.000 A 
ATOM      2  N   UNL     1      39.689   0.145  14.376  0.00  0.00    +0.000 NA
ATOM      3  C   UNL     1      39.726  -1.119  14.772  0.00  0.00    +0.000 A 
ATOM      4  C   UNL     1      38.487  -1.431  15.324  0.00  0.00    +0.000 A 
ATOM      5  N   UNL     1      37.748  -0.309  15.230  0.00  0.00    +0.000 N 
ENDROOT
BRANCH   4   6
ATOM      6  C   UNL     1      38.146  -2.728  15.882  0.00  0.00    +0.000 A 
ATOM      7  C   UNL     1      37.164  -3.485  15.298  0.00  0.00    +0.000 A 
ATOM      8  C   UNL     1      36.813  -4.745  15.793  0.00  0.00    +0.000 A 
ATOM      9  C   UNL     1      37.457  -5.258  16.896  0.00  0.00    +0.000 A 
ATOM     10  C   UNL     1      38.444  -4.503  17.488  0.00  0.00    +0.000 A 
ATOM     11  C   UNL     1      38.779  -3.247  16.977  0.00  0.00    +0.000 A 
ENDBRANCH   4   6
BRANCH   1  12
ATOM     12  S   UNL     1      37.929   2.318  14.332  0.00  0.00    +0.000 S 
BRANCH  12  13
ATOM     13  C   UNL     1      39.242   3.455  14.750  0.00  0.00    +0.000 C 
BRANCH  13  15
ATOM     14  N   UNL     1      39.604   5.459  16.305  0.00  0.00    +0.000 NA
ATOM     15  C   UNL     1      38.951   4.235  15.988  0.00  0.00    +0.000 C 
ATOM     16  O   UNL     1      38.096   3.827  16.814  0.00  0.00    +0.000 OA
BRANCH  14  20
ATOM     17  C   UNL     1      38.908   7.604  19.899  0.00  0.00    +0.000 A 
ATOM     18  C   UNL     1      38.108   7.801  18.795  0.00  0.00    +0.000 A 
ATOM     19  C   UNL     1      38.310   7.115  17.605  0.00  0.00    +0.000 A 
ATOM     20  C   UNL     1      39.330   6.199  17.476  0.00  0.00    +0.000 A 
ATOM     21  C   UNL     1      40.127   6.006  18.584  0.00  0.00    +0.000 A 
ATOM     22  C   UNL     1      39.928   6.687  19.769  0.00  0.00    +0.000 A 
BRANCH  17  23
ATOM     23  O   UNL     1      38.691   8.304  21.093  0.00  0.00    +0.000 OA
BRANCH  23  25
ATOM     24  C   UNL     1      39.840  10.418  20.844  0.00  0.00    +0.000 C 
ATOM     25  C   UNL     1      38.530   9.710  21.110  0.00  0.00    +0.000 C 
ENDBRANCH  23  25
ENDBRANCH  17  23
ENDBRANCH  14  20
ENDBRANCH  13  15
ENDBRANCH  12  13
ENDBRANCH   1  12
BRANCH   5  26
ATOM     26  C   UNL     1      36.392  -0.136  15.653  0.00  0.00    +0.000 C 
BRANCH  26  27
ATOM     27  C   UNL     1      36.185  -0.133  17.095  0.00  0.00    +0.000 A 
ATOM     28  C   UNL     1      35.487  -1.044  17.836  0.00  0.00    +0.000 A 
ATOM     29  C   UNL     1      35.565  -0.633  19.148  0.00  0.00    +0.000 A 
ATOM     30  C   UNL     1      36.315   0.519  19.129  0.00  0.00    +0.000 A 
ATOM     31  O   UNL     1      36.651   0.767  17.913  0.00  0.00    +0.000 OA
ENDBRANCH  26  27
ENDBRANCH   5  26
TORSDOF 9
ENDMDL
MODEL 3
REMARK VINA RESULT:      -7.5      2.012      3.665
REMARK  Name = 
REMARK  9 active torsions:
REMARK  status: ('A' for Active; 'I' for Inactive)
REMARK    1  A    between atoms: C_2  and  O_3
REMARK    2  A    between atoms: O_3  and  C_4
REMARK    3  A    between atoms: C_7  and  N_8
REMARK    4  A    between atoms: C_9  and  C_11
REMARK    5  A    between atoms: C_11  and  S_12
REMARK    6  A    between atoms: S_12  and  C_13
REMARK    7  A    between atoms: C_16  and  C_17
REMARK    8  A    between atoms: N_23  and  C_24
REMARK    9  A    between atoms: C_24  and  C_25
REMARK                            x       y       z     vdW  Elec       q    Type
REMARK                         _______ _______ _______ _____ _____    ______ ____
ROOT
ATOM      1  C   UNL     1      36.466   2.716  13.828  0.00  0.00    +0.000 A 
ATOM      2  N   UNL     1      35.279   3.241  14.171  0.00  0.00    +0.000 NA
ATOM      3  C   UNL     1      34.850   2.648  15.276  0.00  0.00    +0.000 A 
ATOM      4  C   UNL     1      35.802   1.706  15.654  0.00  0.00    +0.000 A 
ATOM      5  N   UNL     1      36.782   1.782  14.733  0.00  0.00    +0.000 N 
ENDROOT
BRANCH   4   6
ATOM      6  C   UNL     1      35.679   0.843  16.817  0.00  0.00    +0.000 A 
ATOM      7  C   UNL     1      36.315   1.176  17.984  0.00  0.00    +0.000 A 
ATOM      8  C   UNL     1      36.213   0.383  19.130  0.00  0.00    +0.000 A 
ATOM      9  C   UNL     1      35.460  -0.770  19.109  0.00  0.00    +0.000 A 
ATOM     10  C   UNL     1      34.819  -1.110  17.940  0.00  0.00    +0.000 A 
ATOM     11  C   UNL     1      34.934  -0.303  16.806  0.00  0.00    +0.000 A 
ENDBRANCH   4   6
BRANCH   1  12
ATOM     12  S   UNL     1      37.451   3.160  12.412  0.00  0.00    +0.000 S 
BRANCH  12  13
ATOM     13  C   UNL     1      37.827   4.906  12.490  0.00  0.00    +0.000 C 
BRANCH  13  15
ATOM     14  N   UNL     1      39.107   4.689  14.698  0.00  0.00    +0.000 NA
ATOM     15  C   UNL     1      38.161   5.358  13.871  0.00  0.00    +0.000 C 
ATOM     16  O   UNL     1      37.605   6.371  14.365  0.00  0.00    +0.000 OA
BRANCH  14  20
ATOM     17  C   UNL     1      39.933   5.878  18.686  0.00  0.00    +0.000 A 
ATOM     18  C   UNL     1      40.711   6.327  17.642  0.00  0.00    +0.000 A 
ATOM     19  C   UNL     1      40.466   5.957  16.326  0.00  0.00    +0.000 A 
ATOM     20  C   UNL     1      39.426   5.114  16.007  0.00  0.00    +0.000 A 
ATOM     21  C   UNL     1      38.651   4.667  17.056  0.00  0.00    +0.000 A 
ATOM     22  C   UNL     1      38.891   5.035  18.365  0.00  0.00    +0.000 A 
BRANCH  17  23
ATOM     23  O   UNL     1      40.192   6.261  20.009  0.00  0.00    +0.000 OA
BRANCH  23  25
ATOM     24  C   UNL     1      38.730   8.112  20.546  0.00  0.00    +0.000 C 
ATOM     25  C   UNL     1      40.154   7.619  20.408  0.00  0.00    +0.000 C 
ENDBRANCH  23  25
ENDBRANCH  17  23
ENDBRANCH  14  20
ENDBRANCH  13  15
ENDBRANCH  12  13
ENDBRANCH   1  12
BRANCH   5  26
ATOM     26  C   UNL     1      37.989   1.015  14.699  0.00  0.00    +0.000 C 
BRANCH  26  27
ATOM     27  C   UNL     1      37.813  -0.429  14.781  0.00  0.00    +0.000 A 
ATOM     28  C   UNL     1      38.388  -1.287  15.675  0.00  0.00    +0.000 A 
ATOM     29  C   UNL     1      37.928  -2.549  15.368  0.00  0.00    +0.000 A 
ATOM     30  C   UNL     1      37.089  -2.383  14.291  0.00  0.00    +0.000 A 
ATOM     31  O   UNL     1      37.057  -1.134  13.989  0.00  0.00    +0.000 OA
ENDBRANCH  26  27
ENDBRANCH   5  26
TORSDOF 9
ENDMDL
MODEL 4
REMARK VINA RESULT:      -7.4      1.592      3.008
REMARK  Name = 
REMARK  9 active torsions:
REMARK  status: ('A' for Active; 'I' for Inactive)
REMARK    1  A    between atoms: C_2  and  O_3
REMARK    2  A    between atoms: O_3  and  C_4
REMARK    3  A    between atoms: C_7  and  N_8
REMARK    4  A    between atoms: C_9  and  C_11
REMARK    5  A    between atoms: C_11  and  S_12
REMARK    6  A    between atoms: S_12  and  C_13
REMARK    7  A    between atoms: C_16  and  C_17
REMARK    8  A    between atoms: N_23  and  C_24
REMARK    9  A    between atoms: C_24  and  C_25
REMARK                            x       y       z     vdW  Elec       q    Type
REMARK                         _______ _______ _______ _____ _____    ______ ____
ROOT
ATOM      1  C   UNL     1      37.012   1.122  15.761  0.00  0.00    +0.000 A 
ATOM      2  N   UNL     1      36.395   1.074  16.951  0.00  0.00    +0.000 NA
ATOM      3  C   UNL     1      36.055  -0.180  17.210  0.00  0.00    +0.000 A 
ATOM      4  C   UNL     1      36.472  -0.967  16.140  0.00  0.00    +0.000 A 
ATOM      5  N   UNL     1      37.058  -0.123  15.270  0.00  0.00    +0.000 N 
ENDROOT
BRANCH   4   6
ATOM      6  C   UNL     1      36.265  -2.402  16.053  0.00  0.00    +0.000 A 
ATOM      7  C   UNL     1      37.201  -3.259  16.567  0.00  0.00    +0.000 A 
ATOM      8  C   UNL     1      37.036  -4.647  16.517  0.00  0.00    +0.000 A 
ATOM      9  C   UNL     1      35.910  -5.189  15.939  0.00  0.00    +0.000 A 
ATOM     10  C   UNL     1      34.965  -4.333  15.421  0.00  0.00    +0.000 A 
ATOM     11  C   UNL     1      35.150  -2.950  15.481  0.00  0.00    +0.000 A 
ENDBRANCH   4   6
BRANCH   1  12
ATOM     12  S   UNL     1      37.649   2.577  14.954  0.00  0.00    +0.000 S 
BRANCH  12  13
ATOM     13  C   UNL     1      37.050   4.026  15.812  0.00  0.00    +0.000 C 
BRANCH  13  15
ATOM     14  N   UNL     1      38.663   5.707  16.878  0.00  0.00    +0.000 NA
ATOM     15  C   UNL     1      37.969   4.465  16.902  0.00  0.00    +0.000 C 
ATOM     16  O   UNL     1      38.166   3.734  17.906  0.00  0.00    +0.000 OA
BRANCH  14  20
ATOM     17  C   UNL     1      41.407   6.936  19.872  0.00  0.00    +0.000 A 
ATOM     18  C   UNL     1      40.053   6.918  20.122  0.00  0.00    +0.000 A 
ATOM     19  C   UNL     1      39.130   6.521  19.164  0.00  0.00    +0.000 A 
ATOM     20  C   UNL     1      39.533   6.126  17.909  0.00  0.00    +0.000 A 
ATOM     21  C   UNL     1      40.890   6.146  17.663  0.00  0.00    +0.000 A 
ATOM     22  C   UNL     1      41.810   6.539  18.615  0.00  0.00    +0.000 A 
BRANCH  17  23
ATOM     23  O   UNL     1      42.327   7.338  20.849  0.00  0.00    +0.000 OA
BRANCH  23  25
ATOM     24  C   UNL     1      43.904   5.684  21.641  0.00  0.00    +0.000 C 
ATOM     25  C   UNL     1      43.680   6.927  20.808  0.00  0.00    +0.000 C 
ENDBRANCH  23  25
ENDBRANCH  17  23
ENDBRANCH  14  20
ENDBRANCH  13  15
ENDBRANCH  12  13
ENDBRANCH   1  12
BRANCH   5  26
ATOM     26  C   UNL     1      37.658  -0.464  14.016  0.00  0.00    +0.000 C 
BRANCH  26  27
ATOM     27  C   UNL     1      38.905  -1.212  14.104  0.00  0.00    +0.000 A 
ATOM     28  C   UNL     1      39.228  -2.368  13.453  0.00  0.00    +0.000 A 
ATOM     29  C   UNL     1      40.505  -2.702  13.844  0.00  0.00    +0.000 A 
ATOM     30  C   UNL     1      40.890  -1.717  14.723  0.00  0.00    +0.000 A 
ATOM     31  O   UNL     1      39.926  -0.876  14.840  0.00  0.00    +0.000 OA
ENDBRANCH  26  27
ENDBRANCH   5  26
TORSDOF 9
ENDMDL
MODEL 5
REMARK VINA RESULT:      -7.1      2.207      9.529
REMARK  Name = 
REMARK  9 active torsions:
REMARK  status: ('A' for Active; 'I' for Inactive)
REMARK    1  A    between atoms: C_2  and  O_3
REMARK    2  A    between atoms: O_3  and  C_4
REMARK    3  A    between atoms: C_7  and  N_8
REMARK    4  A    between atoms: C_9  and  C_11
REMARK    5  A    between atoms: C_11  and  S_12
REMARK    6  A    between atoms: S_12  and  C_13
REMARK    7  A    between atoms: C_16  and  C_17
REMARK    8  A    between atoms: N_23  and  C_24
REMARK    9  A    between atoms: C_24  and  C_25
REMARK                            x       y       z     vdW  Elec       q    Type
REMARK                         _______ _______ _______ _____ _____    ______ ____
ROOT
ATOM      1  C   UNL     1      40.002   5.764  16.797  0.00  0.00    +0.000 A 
ATOM      2  N   UNL     1      41.118   5.994  16.088  0.00  0.00    +0.000 NA
ATOM      3  C   UNL     1      42.046   6.490  16.894  0.00  0.00    +0.000 A 
ATOM      4  C   UNL     1      41.499   6.580  18.171  0.00  0.00    +0.000 A 
ATOM      5  N   UNL     1      40.237   6.122  18.065  0.00  0.00    +0.000 N 
ENDROOT
BRANCH   4   6
ATOM      6  C   UNL     1      42.212   7.092  19.330  0.00  0.00    +0.000 A 
ATOM      7  C   UNL     1      42.605   6.235  20.323  0.00  0.00    +0.000 A 
ATOM      8  C   UNL     1      43.305   6.682  21.448  0.00  0.00    +0.000 A 
ATOM      9  C   UNL     1      43.616   8.016  21.583  0.00  0.00    +0.000 A 
ATOM     10  C   UNL     1      43.223   8.883  20.589  0.00  0.00    +0.000 A 
ATOM     11  C   UNL     1      42.526   8.415  19.473  0.00  0.00    +0.000 A 
ENDBRANCH   4   6
BRANCH   1  12
ATOM     12  S   UNL     1      38.466   5.114  16.173  0.00  0.00    +0.000 S 
BRANCH  12  13
ATOM     13  C   UNL     1      38.814   3.990  14.827  0.00  0.00    +0.000 C 
BRANCH  13  15
ATOM     14  N   UNL     1      38.272   1.567  15.455  0.00  0.00    +0.000 NA
ATOM     15  C   UNL     1      37.919   2.797  14.832  0.00  0.00    +0.000 C 
ATOM     16  O   UNL     1      36.795   2.838  14.272  0.00  0.00    +0.000 OA
BRANCH  14  20
ATOM     17  C   UNL     1      35.662  -1.775  15.615  0.00  0.00    +0.000 A 
ATOM     18  C   UNL     1      36.595  -1.658  14.609  0.00  0.00    +0.000 A 
ATOM     19  C   UNL     1      37.463  -0.577  14.529  0.00  0.00    +0.000 A 
ATOM     20  C   UNL     1      37.426   0.435  15.462  0.00  0.00    +0.000 A 
ATOM     21  C   UNL     1      36.490   0.312  16.467  0.00  0.00    +0.000 A 
ATOM     22  C   UNL     1      35.626  -0.762  16.548  0.00  0.00    +0.000 A 
BRANCH  17  23
ATOM     23  O   UNL     1      34.793  -2.872  15.683  0.00  0.00    +0.000 OA
BRANCH  23  25
ATOM     24  C   UNL     1      33.663  -4.592  14.412  0.00  0.00    +0.000 C 
ATOM     25  C   UNL     1      34.984  -4.020  14.877  0.00  0.00    +0.000 C 
ENDBRANCH  23  25
ENDBRANCH  17  23
ENDBRANCH  14  20
ENDBRANCH  13  15
ENDBRANCH  12  13
ENDBRANCH   1  12
BRANCH   5  26
ATOM     26  C   UNL     1      39.275   6.006  19.118  0.00  0.00    +0.000 C 
BRANCH  26  27
ATOM     27  C   UNL     1      38.595   7.242  19.480  0.00  0.00    +0.000 A 
ATOM     28  C   UNL     1      38.868   8.062  20.537  0.00  0.00    +0.000 A 
ATOM     29  C   UNL     1      37.970   9.105  20.475  0.00  0.00    +0.000 A 
ATOM     30  C   UNL     1      37.193   8.856  19.368  0.00  0.00    +0.000 A 
ATOM     31  O   UNL     1      37.596   7.762  18.825  0.00  0.00    +0.000 OA
ENDBRANCH  26  27
ENDBRANCH   5  26
TORSDOF 9
ENDMDL
MODEL 6
REMARK VINA RESULT:      -7.1     24.658     27.998
REMARK  Name = 
REMARK  9 active torsions:
REMARK  status: ('A' for Active; 'I' for Inactive)
REMARK    1  A    between atoms: C_2  and  O_3
REMARK    2  A    between atoms: O_3  and  C_4
REMARK    3  A    between atoms: C_7  and  N_8
REMARK    4  A    between atoms: C_9  and  C_11
REMARK    5  A    between atoms: C_11  and  S_12
REMARK    6  A    between atoms: S_12  and  C_13
REMARK    7  A    between atoms: C_16  and  C_17
REMARK    8  A    between atoms: N_23  and  C_24
REMARK    9  A    between atoms: C_24  and  C_25
REMARK                            x       y       z     vdW  Elec       q    Type
REMARK                         _______ _______ _______ _____ _____    ______ ____
ROOT
ATOM      1  C   UNL     1      11.676   1.698  27.583  0.00  0.00    +0.000 A 
ATOM      2  N   UNL     1      11.889   2.872  26.970  0.00  0.00    +0.000 NA
ATOM      3  C   UNL     1      10.783   3.234  26.336  0.00  0.00    +0.000 A 
ATOM      4  C   UNL     1       9.823   2.250  26.554  0.00  0.00    +0.000 A 
ATOM      5  N   UNL     1      10.417   1.322  27.328  0.00  0.00    +0.000 N 
ENDROOT
BRANCH   4   6
ATOM      6  C   UNL     1       8.478   2.288  26.007  0.00  0.00    +0.000 A 
ATOM      7  C   UNL     1       8.204   1.653  24.824  0.00  0.00    +0.000 A 
ATOM      8  C   UNL     1       6.921   1.652  24.268  0.00  0.00    +0.000 A 
ATOM      9  C   UNL     1       5.890   2.300  24.909  0.00  0.00    +0.000 A 
ATOM     10  C   UNL     1       6.158   2.940  26.097  0.00  0.00    +0.000 A 
ATOM     11  C   UNL     1       7.446   2.929  26.635  0.00  0.00    +0.000 A 
ENDBRANCH   4   6
BRANCH   1  12
ATOM     12  S   UNL     1      12.854   0.779  28.554  0.00  0.00    +0.000 S 
BRANCH  12  13
ATOM     13  C   UNL     1      13.556  -0.516  27.542  0.00  0.00    +0.000 C 
BRANCH  13  15
ATOM     14  N   UNL     1      15.529  -0.593  25.910  0.00  0.00    +0.000 NA
ATOM     15  C   UNL     1      14.977  -0.249  27.176  0.00  0.00    +0.000 C 
ATOM     16  O   UNL     1      15.755   0.304  27.994  0.00  0.00    +0.000 OA
BRANCH  14  20
ATOM     17  C   UNL     1      19.603   0.001  24.882  0.00  0.00    +0.000 A 
ATOM     18  C   UNL     1      18.722   1.059  24.910  0.00  0.00    +0.000 A 
ATOM     19  C   UNL     1      17.384   0.898  25.243  0.00  0.00    +0.000 A 
ATOM     20  C   UNL     1      16.875  -0.341  25.561  0.00  0.00    +0.000 A 
ATOM     21  C   UNL     1      17.761  -1.397  25.531  0.00  0.00    +0.000 A 
ATOM     22  C   UNL     1      19.092  -1.239  25.202  0.00  0.00    +0.000 A 
BRANCH  17  23
ATOM     23  O   UNL     1      20.951   0.180  24.546  0.00  0.00    +0.000 OA
BRANCH  23  25
ATOM     24  C   UNL     1      20.983  -0.408  22.200  0.00  0.00    +0.000 C 
ATOM     25  C   UNL     1      21.342   0.613  23.257  0.00  0.00    +0.000 C 
ENDBRANCH  23  25
ENDBRANCH  17  23
ENDBRANCH  14  20
ENDBRANCH  13  15
ENDBRANCH  12  13
ENDBRANCH   1  12
BRANCH   5  26
ATOM     26  C   UNL     1       9.826   0.119  27.831  0.00  0.00    +0.000 C 
BRANCH  26  27
ATOM     27  C   UNL     1      10.013  -1.062  26.999  0.00  0.00    +0.000 A 
ATOM     28  C   UNL     1       9.888  -2.370  27.373  0.00  0.00    +0.000 A 
ATOM     29  C   UNL     1      10.155  -3.131  26.256  0.00  0.00    +0.000 A 
ATOM     30  C   UNL     1      10.429  -2.229  25.254  0.00  0.00    +0.000 A 
ATOM     31  O   UNL     1      10.333  -1.042  25.736  0.00  0.00    +0.000 OA
ENDBRANCH  26  27
ENDBRANCH   5  26
TORSDOF 9
ENDMDL
MODEL 7
REMARK VINA RESULT:      -7.0      1.664      2.538
REMARK  Name = 
REMARK  9 active torsions:
REMARK  status: ('A' for Active; 'I' for Inactive)
REMARK    1  A    between atoms: C_2  and  O_3
REMARK    2  A    between atoms: O_3  and  C_4
REMARK    3  A    between atoms: C_7  and  N_8
REMARK    4  A    between atoms: C_9  and  C_11
REMARK    5  A    between atoms: C_11  and  S_12
REMARK    6  A    between atoms: S_12  and  C_13
REMARK    7  A    between atoms: C_16  and  C_17
REMARK    8  A    between atoms: N_23  and  C_24
REMARK    9  A    between atoms: C_24  and  C_25
REMARK                            x       y       z     vdW  Elec       q    Type
REMARK                         _______ _______ _______ _____ _____    ______ ____
ROOT
ATOM      1  C   UNL     1      38.117   1.751  15.110  0.00  0.00    +0.000 A 
ATOM      2  N   UNL     1      39.228   2.373  14.687  0.00  0.00    +0.000 NA
ATOM      3  C   UNL     1      40.033   1.482  14.127  0.00  0.00    +0.000 A 
ATOM      4  C   UNL     1      39.410   0.239  14.194  0.00  0.00    +0.000 A 
ATOM      5  N   UNL     1      38.230   0.451  14.808  0.00  0.00    +0.000 N 
ENDROOT
BRANCH   4   6
ATOM      6  C   UNL     1      39.992  -0.994  13.692  0.00  0.00    +0.000 A 
ATOM      7  C   UNL     1      39.671  -1.438  12.436  0.00  0.00    +0.000 A 
ATOM      8  C   UNL     1      40.217  -2.611  11.908  0.00  0.00    +0.000 A 
ATOM      9  C   UNL     1      41.103  -3.357  12.652  0.00  0.00    +0.000 A 
ATOM     10  C   UNL     1      41.429  -2.917  13.914  0.00  0.00    +0.000 A 
ATOM     11  C   UNL     1      40.872  -1.743  14.423  0.00  0.00    +0.000 A 
ENDBRANCH   4   6
BRANCH   1  12
ATOM     12  S   UNL     1      36.733   2.503  15.943  0.00  0.00    +0.000 S 
BRANCH  12  13
ATOM     13  C   UNL     1      37.001   4.267  16.039  0.00  0.00    +0.000 C 
BRANCH  13  15
ATOM     14  N   UNL     1      38.632   5.911  17.135  0.00  0.00    +0.000 NA
ATOM     15  C   UNL     1      37.997   4.638  17.086  0.00  0.00    +0.000 C 
ATOM     16  O   UNL     1      38.316   3.819  17.983  0.00  0.00    +0.000 OA
BRANCH  14  20
ATOM     17  C   UNL     1      41.588   6.941  20.000  0.00  0.00    +0.000 A 
ATOM     18  C   UNL     1      40.249   6.990  20.320  0.00  0.00    +0.000 A 
ATOM     19  C   UNL     1      39.258   6.659  19.405  0.00  0.00    +0.000 A 
ATOM     20  C   UNL     1      39.576   6.265  18.125  0.00  0.00    +0.000 A 
ATOM     21  C   UNL     1      40.917   6.217  17.810  0.00  0.00    +0.000 A 
ATOM     22  C   UNL     1      41.904   6.545  18.718  0.00  0.00    +0.000 A 
BRANCH  17  23
ATOM     23  O   UNL     1      42.576   7.277  20.934  0.00  0.00    +0.000 OA
BRANCH  23  25
ATOM     24  C   UNL     1      44.716   6.156  21.051  0.00  0.00    +0.000 C 
ATOM     25  C   UNL     1      43.941   7.363  20.571  0.00  0.00    +0.000 C 
ENDBRANCH  23  25
ENDBRANCH  17  23
ENDBRANCH  14  20
ENDBRANCH  13  15
ENDBRANCH  12  13
ENDBRANCH   1  12
BRANCH   5  26
ATOM     26  C   UNL     1      37.226  -0.525  15.098  0.00  0.00    +0.000 C 
BRANCH  26  27
ATOM     27  C   UNL     1      37.549  -1.453  16.174  0.00  0.00    +0.000 A 
ATOM     28  C   UNL     1      37.533  -2.818  16.127  0.00  0.00    +0.000 A 
ATOM     29  C   UNL     1      37.911  -3.263  17.374  0.00  0.00    +0.000 A 
ATOM     30  C   UNL     1      38.138  -2.128  18.117  0.00  0.00    +0.000 A 
ATOM     31  O   UNL     1      37.914  -1.104  17.375  0.00  0.00    +0.000 OA
ENDBRANCH  26  27
ENDBRANCH   5  26
TORSDOF 9
ENDMDL
MODEL 8
REMARK VINA RESULT:      -7.0      2.165      3.402
REMARK  Name = 
REMARK  9 active torsions:
REMARK  status: ('A' for Active; 'I' for Inactive)
REMARK    1  A    between atoms: C_2  and  O_3
REMARK    2  A    between atoms: O_3  and  C_4
REMARK    3  A    between atoms: C_7  and  N_8
REMARK    4  A    between atoms: C_9  and  C_11
REMARK    5  A    between atoms: C_11  and  S_12
REMARK    6  A    between atoms: S_12  and  C_13
REMARK    7  A    between atoms: C_16  and  C_17
REMARK    8  A    between atoms: N_23  and  C_24
REMARK    9  A    between atoms: C_24  and  C_25
REMARK                            x       y       z     vdW  Elec       q    Type
REMARK                         _______ _______ _______ _____ _____    ______ ____
ROOT
ATOM      1  C   UNL     1      36.790   1.971  16.003  0.00  0.00    +0.000 A 
ATOM      2  N   UNL     1      36.352   1.861  17.267  0.00  0.00    +0.000 NA
ATOM      3  C   UNL     1      36.175   0.579  17.551  0.00  0.00    +0.000 A 
ATOM      4  C   UNL     1      36.514  -0.161  16.421  0.00  0.00    +0.000 A 
ATOM      5  N   UNL     1      36.888   0.738  15.491  0.00  0.00    +0.000 N 
ENDROOT
BRANCH   4   6
ATOM      6  C   UNL     1      36.437  -1.609  16.341  0.00  0.00    +0.000 A 
ATOM      7  C   UNL     1      37.533  -2.369  16.656  0.00  0.00    +0.000 A 
ATOM      8  C   UNL     1      37.499  -3.766  16.607  0.00  0.00    +0.000 A 
ATOM      9  C   UNL     1      36.346  -4.417  16.232  0.00  0.00    +0.000 A 
ATOM     10  C   UNL     1      35.241  -3.659  15.914  0.00  0.00    +0.000 A 
ATOM     11  C   UNL     1      35.296  -2.265  15.971  0.00  0.00    +0.000 A 
ENDBRANCH   4   6
BRANCH   1  12
ATOM     12  S   UNL     1      37.164   3.484  15.139  0.00  0.00    +0.000 S 
BRANCH  12  13
ATOM     13  C   UNL     1      38.907   3.840  15.318  0.00  0.00    +0.000 C 
BRANCH  13  15
ATOM     14  N   UNL     1      38.409   5.111  17.485  0.00  0.00    +0.000 NA
ATOM     15  C   UNL     1      39.169   4.935  16.295  0.00  0.00    +0.000 C 
ATOM     16  O   UNL     1      40.095   5.762  16.095  0.00  0.00    +0.000 OA
BRANCH  14  20
ATOM     17  C   UNL     1      39.028   8.316  20.196  0.00  0.00    +0.000 A 
ATOM     18  C   UNL     1      39.794   7.173  20.270  0.00  0.00    +0.000 A 
ATOM     19  C   UNL     1      39.616   6.108  19.397  0.00  0.00    +0.000 A 
ATOM     20  C   UNL     1      38.656   6.148  18.412  0.00  0.00    +0.000 A 
ATOM     21  C   UNL     1      37.892   7.294  18.343  0.00  0.00    +0.000 A 
ATOM     22  C   UNL     1      38.067   8.355  19.209  0.00  0.00    +0.000 A 
BRANCH  17  23
ATOM     23  O   UNL     1      39.220   9.383  21.083  0.00  0.00    +0.000 OA
BRANCH  23  25
ATOM     24  C   UNL     1      41.389  10.451  21.000  0.00  0.00    +0.000 C 
ATOM     25  C   UNL     1      39.911  10.555  20.694  0.00  0.00    +0.000 C 
ENDBRANCH  23  25
ENDBRANCH  17  23
ENDBRANCH  14  20
ENDBRANCH  13  15
ENDBRANCH  12  13
ENDBRANCH   1  12
BRANCH   5  26
ATOM     26  C   UNL     1      37.339   0.460  14.162  0.00  0.00    +0.000 C 
BRANCH  26  27
ATOM     27  C   UNL     1      38.693  -0.068  14.059  0.00  0.00    +0.000 A 
ATOM     28  C   UNL     1      39.089  -1.225  13.452  0.00  0.00    +0.000 A 
ATOM     29  C   UNL     1      40.455  -1.307  13.606  0.00  0.00    +0.000 A 
ATOM     30  C   UNL     1      40.815  -0.180  14.307  0.00  0.00    +0.000 A 
ATOM     31  O   UNL     1      39.756   0.507  14.546  0.00  0.00    +0.000 OA
ENDBRANCH  26  27
ENDBRANCH   5  26
TORSDOF 9
ENDMDL
MODEL 9
REMARK VINA RESULT:      -7.0     23.475     26.131
REMARK  Name = 
REMARK  9 active torsions:
REMARK  status: ('A' for Active; 'I' for Inactive)
REMARK    1  A    between atoms: C_2  and  O_3
REMARK    2  A    between atoms: O_3  and  C_4
REMARK    3  A    between atoms: C_7  and  N_8
REMARK    4  A    between atoms: C_9  and  C_11
REMARK    5  A    between atoms: C_11  and  S_12
REMARK    6  A    between atoms: S_12  and  C_13
REMARK    7  A    between atoms: C_16  and  C_17
REMARK    8  A    between atoms: N_23  and  C_24
REMARK    9  A    between atoms: C_24  and  C_25
REMARK                            x       y       z     vdW  Elec       q    Type
REMARK                         _______ _______ _______ _____ _____    ______ ____
ROOT
ATOM      1  C   UNL     1      29.574  16.532  35.609  0.00  0.00    +0.000 A 
ATOM      2  N   UNL     1      29.723  17.392  36.629  0.00  0.00    +0.000 NA
ATOM      3  C   UNL     1      28.744  17.201  37.500  0.00  0.00    +0.000 A 
ATOM      4  C   UNL     1      27.936  16.176  37.018  0.00  0.00    +0.000 A 
ATOM      5  N   UNL     1      28.485  15.792  35.850  0.00  0.00    +0.000 N 
ENDROOT
BRANCH   4   6
ATOM      6  C   UNL     1      26.747  15.687  37.695  0.00  0.00    +0.000 A 
ATOM      7  C   UNL     1      25.511  16.139  37.316  0.00  0.00    +0.000 A 
ATOM      8  C   UNL     1      24.340  15.685  37.931  0.00  0.00    +0.000 A 
ATOM      9  C   UNL     1      24.407  14.759  38.947  0.00  0.00    +0.000 A 
ATOM     10  C   UNL     1      25.646  14.301  39.333  0.00  0.00    +0.000 A 
ATOM     11  C   UNL     1      26.803  14.767  38.706  0.00  0.00    +0.000 A 
ENDBRANCH   4   6
BRANCH   1  12
ATOM     12  S   UNL     1      30.622  16.397  34.175  0.00  0.00    +0.000 S 
BRANCH  12  13
ATOM     13  C   UNL     1      31.996  15.321  34.558  0.00  0.00    +0.000 C 
BRANCH  13  15
ATOM     14  N   UNL     1      31.997  14.539  36.997  0.00  0.00    +0.000 NA
ATOM     15  C   UNL     1      31.669  14.335  35.628  0.00  0.00    +0.000 C 
ATOM     16  O   UNL     1      31.078  13.261  35.349  0.00  0.00    +0.000 OA
BRANCH  14  20
ATOM     17  C   UNL     1      30.945  11.838  40.095  0.00  0.00    +0.000 A 
ATOM     18  C   UNL     1      32.016  11.579  39.269  0.00  0.00    +0.000 A 
ATOM     19  C   UNL     1      32.386  12.443  38.247  0.00  0.00    +0.000 A 
ATOM     20  C   UNL     1      31.689  13.607  38.013  0.00  0.00    +0.000 A 
ATOM     21  C   UNL     1      30.617  13.861  38.843  0.00  0.00    +0.000 A 
ATOM     22  C   UNL     1      30.248  13.003  39.860  0.00  0.00    +0.000 A 
BRANCH  17  23
ATOM     23  O   UNL     1      30.584  10.957  41.123  0.00  0.00    +0.000 OA
BRANCH  23  25
ATOM     24  C   UNL     1      28.618   9.669  40.552  0.00  0.00    +0.000 C 
ATOM     25  C   UNL     1      30.101   9.655  40.849  0.00  0.00    +0.000 C 
ENDBRANCH  23  25
ENDBRANCH  17  23
ENDBRANCH  14  20
ENDBRANCH  13  15
ENDBRANCH  12  13
ENDBRANCH   1  12
BRANCH   5  26
ATOM     26  C   UNL     1      28.018  14.755  34.981  0.00  0.00    +0.000 C 
BRANCH  26  27
ATOM     27  C   UNL     1      26.877  15.108  34.146  0.00  0.00    +0.000 A 
ATOM     28  C   UNL     1      26.449  16.360  33.809  0.00  0.00    +0.000 A 
ATOM     29  C   UNL     1      25.341  16.200  33.007  0.00  0.00    +0.000 A 
ATOM     30  C   UNL     1      25.157  14.841  32.901  0.00  0.00    +0.000 A 
ATOM     31  O   UNL     1      26.075  14.252  33.580  0.00  0.00    +0.000 OA
ENDBRANCH  26  27
ENDBRANCH   5  26
TORSDOF 9
ENDMDL
MODEL 10
REMARK VINA RESULT:      -6.9      2.005      2.922
REMARK  Name = 
REMARK  9 active torsions:
REMARK  status: ('A' for Active; 'I' for Inactive)
REMARK    1  A    between atoms: C_2  and  O_3
REMARK    2  A    between atoms: O_3  and  C_4
REMARK    3  A    between atoms: C_7  and  N_8
REMARK    4  A    between atoms: C_9  and  C_11
REMARK    5  A    between atoms: C_11  and  S_12
REMARK    6  A    between atoms: S_12  and  C_13
REMARK    7  A    between atoms: C_16  and  C_17
REMARK    8  A    between atoms: N_23  and  C_24
REMARK    9  A    between atoms: C_24  and  C_25
REMARK                            x       y       z     vdW  Elec       q    Type
REMARK                         _______ _______ _______ _____ _____    ______ ____
ROOT
ATOM      1  C   UNL     1      38.596  -0.028  13.543  0.00  0.00    +0.000 A 
ATOM      2  N   UNL     1      39.922  -0.187  13.664  0.00  0.00    +0.000 NA
ATOM      3  C   UNL     1      40.169  -0.976  14.700  0.00  0.00    +0.000 A 
ATOM      4  C   UNL     1      38.948  -1.337  15.264  0.00  0.00    +0.000 A 
ATOM      5  N   UNL     1      38.005  -0.730  14.518  0.00  0.00    +0.000 N 
ENDROOT
BRANCH   4   6
ATOM      6  C   UNL     1      38.809  -2.190  16.431  0.00  0.00    +0.000 A 
ATOM      7  C   UNL     1      38.501  -1.638  17.647  0.00  0.00    +0.000 A 
ATOM      8  C   UNL     1      38.344  -2.423  18.793  0.00  0.00    +0.000 A 
ATOM      9  C   UNL     1      38.499  -3.789  18.723  0.00  0.00    +0.000 A 
ATOM     10  C   UNL     1      38.809  -4.350  17.504  0.00  0.00    +0.000 A 
ATOM     11  C   UNL     1      38.961  -3.548  16.371  0.00  0.00    +0.000 A 
ENDBRANCH   4   6
BRANCH   1  12
ATOM     12  S   UNL     1      37.753   0.953  12.318  0.00  0.00    +0.000 S 
BRANCH  12  13
ATOM     13  C   UNL     1      38.657   2.475  12.070  0.00  0.00    +0.000 C 
BRANCH  13  15
ATOM     14  N   UNL     1      39.505   3.545  14.237  0.00  0.00    +0.000 NA
ATOM     15  C   UNL     1      38.519   3.416  13.218  0.00  0.00    +0.000 C 
ATOM     16  O   UNL     1      37.502   4.145  13.329  0.00  0.00    +0.000 OA
BRANCH  14  20
ATOM     17  C   UNL     1      39.230   6.321  17.435  0.00  0.00    +0.000 A 
ATOM     18  C   UNL     1      38.509   5.147  17.457  0.00  0.00    +0.000 A 
ATOM     19  C   UNL     1      38.578   4.219  16.427  0.00  0.00    +0.000 A 
ATOM     20  C   UNL     1      39.377   4.435  15.327  0.00  0.00    +0.000 A 
ATOM     21  C   UNL     1      40.096   5.612  15.310  0.00  0.00    +0.000 A 
ATOM     22  C   UNL     1      40.030   6.536  16.333  0.00  0.00    +0.000 A 
BRANCH  17  23
ATOM     23  O   UNL     1      39.152   7.248  18.482  0.00  0.00    +0.000 OA
BRANCH  23  25
ATOM     24  C   UNL     1      40.854   6.357  19.952  0.00  0.00    +0.000 C 
ATOM     25  C   UNL     1      39.442   6.883  19.819  0.00  0.00    +0.000 C 
ENDBRANCH  23  25
ENDBRANCH  17  23
ENDBRANCH  14  20
ENDBRANCH  13  15
ENDBRANCH  12  13
ENDBRANCH   1  12
BRANCH   5  26
ATOM     26  C   UNL     1      36.588  -0.808  14.698  0.00  0.00    +0.000 C 
BRANCH  26  27
ATOM     27  C   UNL     1      36.029   0.125  15.668  0.00  0.00    +0.000 A 
ATOM     28  C   UNL     1      35.043  -0.117  16.581  0.00  0.00    +0.000 A 
ATOM     29  C   UNL     1      34.850   1.056  17.278  0.00  0.00    +0.000 A 
ATOM     30  C   UNL     1      35.742   1.954  16.741  0.00  0.00    +0.000 A 
ATOM     31  O   UNL     1      36.402   1.365  15.809  0.00  0.00    +0.000 OA
ENDBRANCH  26  27
ENDBRANCH   5  26
TORSDOF 9
ENDMDL
