MODEL 1
REMARK VINA RESULT:      -6.7      0.000      0.000
REMARK  Name = 
REMARK  2 active torsions:
REMARK  status: ('A' for Active; 'I' for Inactive)
REMARK    1  A    between atoms: C_5  and  N_6
REMARK    2  A    between atoms: C_7  and  C_9
REMARK                            x       y       z     vdW  Elec       q    Type
REMARK                         _______ _______ _______ _____ _____    ______ ____
ROOT
ATOM      1  C   UNL     1      19.832  -7.554  26.032  0.00  0.00    +0.000 A 
ATOM      2  C   UNL     1      19.208  -6.350  26.187  0.00  0.00    +0.000 A 
ATOM      3  N   UNL     1      19.529  -5.108  25.567  0.00  0.00    +0.000 NA
ATOM      4  S   UNL     1      17.961  -6.686  27.293  0.00  0.00    +0.000 S 
ATOM      5  C   UNL     1      18.270  -8.348  27.524  0.00  0.00    +0.000 A 
ATOM      6  C   UNL     1      19.342  -8.593  26.729  0.00  0.00    +0.000 A 
ATOM      7  C   UNL     1      19.934  -9.989  26.655  0.00  0.00    +0.000 C 
ATOM      8  C   UNL     1      19.924 -10.652  27.993  0.00  0.00    +0.000 C 
ATOM      9  C   UNL     1      19.744  -9.730  29.148  0.00  0.00    +0.000 C 
ATOM     10  C   UNL     1      18.310  -9.624  29.611  0.00  0.00    +0.000 C 
ATOM     11  C   UNL     1      17.444  -9.202  28.440  0.00  0.00    +0.000 C 
ENDROOT
BRANCH   1  13
ATOM     12  N   UNL     1      22.323  -7.429  25.533  0.00  0.00    +0.000 NA
ATOM     13  C   UNL     1      21.004  -7.694  25.125  0.00  0.00    +0.000 C 
ATOM     14  O   UNL     1      20.867  -8.063  23.930  0.00  0.00    +0.000 OA
BRANCH  12  19
ATOM     15  C   UNL     1      26.806  -8.368  22.214  0.00  0.00    +0.000 C 
ATOM     16  C   UNL     1      25.640  -8.088  23.075  0.00  0.00    +0.000 A 
ATOM     17  C   UNL     1      24.979  -9.143  23.665  0.00  0.00    +0.000 A 
ATOM     18  C   UNL     1      23.900  -8.866  24.460  0.00  0.00    +0.000 A 
ATOM     19  C   UNL     1      23.458  -7.557  24.684  0.00  0.00    +0.000 A 
ATOM     20  C   UNL     1      24.104  -6.516  24.105  0.00  0.00    +0.000 A 
ATOM     21  C   UNL     1      25.202  -6.801  23.297  0.00  0.00    +0.000 A 
ENDBRANCH  12  19
ENDBRANCH   1  13
TORSDOF 2
ENDMDL
MODEL 2
REMARK VINA RESULT:      -6.7     14.861     16.597
REMARK  Name = 
REMARK  2 active torsions:
REMARK  status: ('A' for Active; 'I' for Inactive)
REMARK    1  A    between atoms: C_5  and  N_6
REMARK    2  A    between atoms: C_7  and  C_9
REMARK                            x       y       z     vdW  Elec       q    Type
REMARK                         _______ _______ _______ _____ _____    ______ ____
ROOT
ATOM      1  C   UNL     1      33.617  -4.495  34.455  0.00  0.00    +0.000 A 
ATOM      2  C   UNL     1      33.825  -5.077  35.671  0.00  0.00    +0.000 A 
ATOM      3  N   UNL     1      33.803  -4.461  36.955  0.00  0.00    +0.000 NA
ATOM      4  S   UNL     1      34.115  -6.709  35.288  0.00  0.00    +0.000 S 
ATOM      5  C   UNL     1      33.962  -6.601  33.592  0.00  0.00    +0.000 A 
ATOM      6  C   UNL     1      33.690  -5.290  33.374  0.00  0.00    +0.000 A 
ATOM      7  C   UNL     1      33.480  -4.780  31.959  0.00  0.00    +0.000 C 
ATOM      8  C   UNL     1      34.417  -5.440  31.002  0.00  0.00    +0.000 C 
ATOM      9  C   UNL     1      35.587  -6.110  31.633  0.00  0.00    +0.000 C 
ATOM     10  C   UNL     1      35.378  -7.589  31.860  0.00  0.00    +0.000 C 
ATOM     11  C   UNL     1      34.126  -7.789  32.690  0.00  0.00    +0.000 C 
ENDROOT
BRANCH   1  13
ATOM     12  N   UNL     1      34.325  -2.069  34.168  0.00  0.00    +0.000 NA
ATOM     13  C   UNL     1      33.324  -3.040  34.346  0.00  0.00    +0.000 C 
ATOM     14  O   UNL     1      32.146  -2.602  34.410  0.00  0.00    +0.000 OA
BRANCH  12  19
ATOM     15  C   UNL     1      33.393   3.446  33.320  0.00  0.00    +0.000 C 
ATOM     16  C   UNL     1      33.629   2.011  33.576  0.00  0.00    +0.000 A 
ATOM     17  C   UNL     1      34.002   1.200  32.526  0.00  0.00    +0.000 A 
ATOM     18  C   UNL     1      34.216  -0.128  32.781  0.00  0.00    +0.000 A 
ATOM     19  C   UNL     1      34.068  -0.673  34.062  0.00  0.00    +0.000 A 
ATOM     20  C   UNL     1      33.701   0.121  35.097  0.00  0.00    +0.000 A 
ATOM     21  C   UNL     1      33.484   1.471  34.835  0.00  0.00    +0.000 A 
ENDBRANCH  12  19
ENDBRANCH   1  13
TORSDOF 2
ENDMDL
MODEL 3
REMARK VINA RESULT:      -6.7     34.564     35.535
REMARK  Name = 
REMARK  2 active torsions:
REMARK  status: ('A' for Active; 'I' for Inactive)
REMARK    1  A    between atoms: C_5  and  N_6
REMARK    2  A    between atoms: C_7  and  C_9
REMARK                            x       y       z     vdW  Elec       q    Type
REMARK                         _______ _______ _______ _____ _____    ______ ____
ROOT
ATOM      1  C   UNL     1      32.157  20.543   8.520  0.00  0.00    +0.000 A 
ATOM      2  C   UNL     1      33.506  20.422   8.695  0.00  0.00    +0.000 A 
ATOM      3  N   UNL     1      34.325  21.059   9.670  0.00  0.00    +0.000 NA
ATOM      4  S   UNL     1      33.970  19.334   7.473  0.00  0.00    +0.000 S 
ATOM      5  C   UNL     1      32.435  19.064   6.779  0.00  0.00    +0.000 A 
ATOM      6  C   UNL     1      31.602  19.835   7.522  0.00  0.00    +0.000 A 
ATOM      7  C   UNL     1      30.116  19.871   7.212  0.00  0.00    +0.000 C 
ATOM      8  C   UNL     1      29.870  19.842   5.740  0.00  0.00    +0.000 C 
ATOM      9  C   UNL     1      31.048  20.192   4.901  0.00  0.00    +0.000 C 
ATOM     10  C   UNL     1      31.815  18.985   4.414  0.00  0.00    +0.000 C 
ATOM     11  C   UNL     1      32.229  18.148   5.608  0.00  0.00    +0.000 C 
ENDROOT
BRANCH   1  13
ATOM     12  N   UNL     1      30.715  20.962  10.573  0.00  0.00    +0.000 NA
ATOM     13  C   UNL     1      31.350  21.425   9.407  0.00  0.00    +0.000 C 
ATOM     14  O   UNL     1      31.195  22.647   9.151  0.00  0.00    +0.000 OA
BRANCH  12  19
ATOM     15  C   UNL     1      27.290  24.164  13.738  0.00  0.00    +0.000 C 
ATOM     16  C   UNL     1      28.211  23.336  12.935  0.00  0.00    +0.000 A 
ATOM     17  C   UNL     1      27.730  22.712  11.804  0.00  0.00    +0.000 A 
ATOM     18  C   UNL     1      28.598  21.947  11.070  0.00  0.00    +0.000 A 
ATOM     19  C   UNL     1      29.939  21.787  11.435  0.00  0.00    +0.000 A 
ATOM     20  C   UNL     1      30.416  22.399  12.546  0.00  0.00    +0.000 A 
ATOM     21  C   UNL     1      29.532  23.176  13.290  0.00  0.00    +0.000 A 
ENDBRANCH  12  19
ENDBRANCH   1  13
TORSDOF 2
ENDMDL
MODEL 4
REMARK VINA RESULT:      -6.7     17.014     18.659
REMARK  Name = 
REMARK  2 active torsions:
REMARK  status: ('A' for Active; 'I' for Inactive)
REMARK    1  A    between atoms: C_5  and  N_6
REMARK    2  A    between atoms: C_7  and  C_9
REMARK                            x       y       z     vdW  Elec       q    Type
REMARK                         _______ _______ _______ _____ _____    ______ ____
ROOT
ATOM      1  C   UNL     1      33.877   1.711  36.080  0.00  0.00    +0.000 A 
ATOM      2  C   UNL     1      33.997   1.984  37.412  0.00  0.00    +0.000 A 
ATOM      3  N   UNL     1      33.844   1.089  38.510  0.00  0.00    +0.000 NA
ATOM      4  S   UNL     1      34.370   3.643  37.446  0.00  0.00    +0.000 S 
ATOM      5  C   UNL     1      34.363   3.938  35.766  0.00  0.00    +0.000 A 
ATOM      6  C   UNL     1      34.068   2.729  35.225  0.00  0.00    +0.000 A 
ATOM      7  C   UNL     1      33.967   2.572  33.718  0.00  0.00    +0.000 C 
ATOM      8  C   UNL     1      33.323   3.764  33.092  0.00  0.00    +0.000 C 
ATOM      9  C   UNL     1      32.565   4.633  34.033  0.00  0.00    +0.000 C 
ATOM     10  C   UNL     1      33.368   5.807  34.542  0.00  0.00    +0.000 C 
ATOM     11  C   UNL     1      34.642   5.293  35.183  0.00  0.00    +0.000 C 
ENDROOT
BRANCH   1  13
ATOM     12  N   UNL     1      34.518  -0.560  35.129  0.00  0.00    +0.000 NA
ATOM     13  C   UNL     1      33.548   0.337  35.611  0.00  0.00    +0.000 C 
ATOM     14  O   UNL     1      32.367  -0.095  35.623  0.00  0.00    +0.000 OA
BRANCH  12  19
ATOM     15  C   UNL     1      33.512  -5.942  33.709  0.00  0.00    +0.000 C 
ATOM     16  C   UNL     1      33.762  -4.527  34.048  0.00  0.00    +0.000 A 
ATOM     17  C   UNL     1      34.309  -4.223  35.275  0.00  0.00    +0.000 A 
ATOM     18  C   UNL     1      34.534  -2.905  35.573  0.00  0.00    +0.000 A 
ATOM     19  C   UNL     1      34.227  -1.876  34.676  0.00  0.00    +0.000 A 
ATOM     20  C   UNL     1      33.690  -2.171  33.467  0.00  0.00    +0.000 A 
ATOM     21  C   UNL     1      33.462  -3.512  33.167  0.00  0.00    +0.000 A 
ENDBRANCH  12  19
ENDBRANCH   1  13
TORSDOF 2
ENDMDL
MODEL 5
REMARK VINA RESULT:      -6.5     34.180     35.489
REMARK  Name = 
REMARK  2 active torsions:
REMARK  status: ('A' for Active; 'I' for Inactive)
REMARK    1  A    between atoms: C_5  and  N_6
REMARK    2  A    between atoms: C_7  and  C_9
REMARK                            x       y       z     vdW  Elec       q    Type
REMARK                         _______ _______ _______ _____ _____    ______ ____
ROOT
ATOM      1  C   UNL     1      33.241  20.264  10.318  0.00  0.00    +0.000 A 
ATOM      2  C   UNL     1      34.397  20.062  11.016  0.00  0.00    +0.000 A 
ATOM      3  N   UNL     1      34.606  20.176  12.420  0.00  0.00    +0.000 NA
ATOM      4  S   UNL     1      35.521  19.643   9.812  0.00  0.00    +0.000 S 
ATOM      5  C   UNL     1      34.488  19.736   8.457  0.00  0.00    +0.000 A 
ATOM      6  C   UNL     1      33.291  20.094   8.987  0.00  0.00    +0.000 A 
ATOM      7  C   UNL     1      32.085  20.284   8.084  0.00  0.00    +0.000 C 
ATOM      8  C   UNL     1      32.470  20.931   6.795  0.00  0.00    +0.000 C 
ATOM      9  C   UNL     1      33.794  21.611   6.806  0.00  0.00    +0.000 C 
ATOM     10  C   UNL     1      34.913  20.748   6.272  0.00  0.00    +0.000 C 
ATOM     11  C   UNL     1      34.960  19.455   7.061  0.00  0.00    +0.000 C 
ENDROOT
BRANCH   1  13
ATOM     12  N   UNL     1      31.507  21.977  11.046  0.00  0.00    +0.000 NA
ATOM     13  C   UNL     1      31.987  20.655  11.018  0.00  0.00    +0.000 C 
ATOM     14  O   UNL     1      31.284  19.808  11.627  0.00  0.00    +0.000 OA
BRANCH  12  19
ATOM     15  C   UNL     1      26.535  23.423  13.323  0.00  0.00    +0.000 C 
ATOM     16  C   UNL     1      27.849  23.057  12.758  0.00  0.00    +0.000 A 
ATOM     17  C   UNL     1      27.902  22.513  11.493  0.00  0.00    +0.000 A 
ATOM     18  C   UNL     1      29.129  22.179  10.985  0.00  0.00    +0.000 A 
ATOM     19  C   UNL     1      30.312  22.373  11.708  0.00  0.00    +0.000 A 
ATOM     20  C   UNL     1      30.264  22.908  12.952  0.00  0.00    +0.000 A 
ATOM     21  C   UNL     1      29.015  23.247  13.466  0.00  0.00    +0.000 A 
ENDBRANCH  12  19
ENDBRANCH   1  13
TORSDOF 2
ENDMDL
MODEL 6
REMARK VINA RESULT:      -6.4     21.360     22.779
REMARK  Name = 
REMARK  2 active torsions:
REMARK  status: ('A' for Active; 'I' for Inactive)
REMARK    1  A    between atoms: C_5  and  N_6
REMARK    2  A    between atoms: C_7  and  C_9
REMARK                            x       y       z     vdW  Elec       q    Type
REMARK                         _______ _______ _______ _____ _____    ______ ____
ROOT
ATOM      1  C   UNL     1      21.480   9.692  38.507  0.00  0.00    +0.000 A 
ATOM      2  C   UNL     1      21.499   9.183  39.773  0.00  0.00    +0.000 A 
ATOM      3  N   UNL     1      20.449   9.182  40.736  0.00  0.00    +0.000 NA
ATOM      4  S   UNL     1      23.072   8.553  39.925  0.00  0.00    +0.000 S 
ATOM      5  C   UNL     1      23.656   8.955  38.373  0.00  0.00    +0.000 A 
ATOM      6  C   UNL     1      22.604   9.572  37.780  0.00  0.00    +0.000 A 
ATOM      7  C   UNL     1      22.726  10.091  36.358  0.00  0.00    +0.000 C 
ATOM      8  C   UNL     1      24.077  10.678  36.111  0.00  0.00    +0.000 C 
ATOM      9  C   UNL     1      24.849  11.011  37.339  0.00  0.00    +0.000 C 
ATOM     10  C   UNL     1      25.814   9.924  37.752  0.00  0.00    +0.000 C 
ATOM     11  C   UNL     1      25.050   8.626  37.926  0.00  0.00    +0.000 C 
ENDROOT
BRANCH   1  13
ATOM     12  N   UNL     1      19.184   9.630  37.412  0.00  0.00    +0.000 NA
ATOM     13  C   UNL     1      20.258  10.349  37.968  0.00  0.00    +0.000 C 
ATOM     14  O   UNL     1      20.124  11.600  37.985  0.00  0.00    +0.000 OA
BRANCH  12  19
ATOM     15  C   UNL     1      14.358  12.071  35.755  0.00  0.00    +0.000 C 
ATOM     16  C   UNL     1      15.628  11.432  36.153  0.00  0.00    +0.000 A 
ATOM     17  C   UNL     1      15.861  11.190  37.489  0.00  0.00    +0.000 A 
ATOM     18  C   UNL     1      17.044  10.597  37.841  0.00  0.00    +0.000 A 
ATOM     19  C   UNL     1      18.007  10.237  36.892  0.00  0.00    +0.000 A 
ATOM     20  C   UNL     1      17.782  10.473  35.577  0.00  0.00    +0.000 A 
ATOM     21  C   UNL     1      16.578  11.075  35.222  0.00  0.00    +0.000 A 
ENDBRANCH  12  19
ENDBRANCH   1  13
TORSDOF 2
ENDMDL
MODEL 7
REMARK VINA RESULT:      -6.4     31.721     33.713
REMARK  Name = 
REMARK  2 active torsions:
REMARK  status: ('A' for Active; 'I' for Inactive)
REMARK    1  A    between atoms: C_5  and  N_6
REMARK    2  A    between atoms: C_7  and  C_9
REMARK                            x       y       z     vdW  Elec       q    Type
REMARK                         _______ _______ _______ _____ _____    ______ ____
ROOT
ATOM      1  C   UNL     1      27.953  23.221  26.122  0.00  0.00    +0.000 A 
ATOM      2  C   UNL     1      28.326  22.598  27.278  0.00  0.00    +0.000 A 
ATOM      3  N   UNL     1      27.543  22.368  28.445  0.00  0.00    +0.000 NA
ATOM      4  S   UNL     1      29.946  22.165  26.991  0.00  0.00    +0.000 S 
ATOM      5  C   UNL     1      30.097  22.788  25.410  0.00  0.00    +0.000 A 
ATOM      6  C   UNL     1      28.876  23.319  25.152  0.00  0.00    +0.000 A 
ATOM      7  C   UNL     1      28.601  23.984  23.815  0.00  0.00    +0.000 C 
ATOM      8  C   UNL     1      29.785  24.762  23.344  0.00  0.00    +0.000 C 
ATOM      9  C   UNL     1      30.790  25.071  24.398  0.00  0.00    +0.000 C 
ATOM     10  C   UNL     1      31.933  24.084  24.443  0.00  0.00    +0.000 C 
ATOM     11  C   UNL     1      31.371  22.687  24.622  0.00  0.00    +0.000 C 
ENDROOT
BRANCH   1  13
ATOM     12  N   UNL     1      26.212  25.061  26.362  0.00  0.00    +0.000 NA
ATOM     13  C   UNL     1      26.576  23.763  25.960  0.00  0.00    +0.000 C 
ATOM     14  O   UNL     1      25.656  23.075  25.447  0.00  0.00    +0.000 OA
BRANCH  12  19
ATOM     15  C   UNL     1      20.941  27.106  26.203  0.00  0.00    +0.000 C 
ATOM     16  C   UNL     1      22.321  26.581  26.210  0.00  0.00    +0.000 A 
ATOM     17  C   UNL     1      22.822  26.041  27.375  0.00  0.00    +0.000 A 
ATOM     18  C   UNL     1      24.103  25.559  27.364  0.00  0.00    +0.000 A 
ATOM     19  C   UNL     1      24.904  25.600  26.217  0.00  0.00    +0.000 A 
ATOM     20  C   UNL     1      24.415  26.129  25.069  0.00  0.00    +0.000 A 
ATOM     21  C   UNL     1      23.111  26.619  25.083  0.00  0.00    +0.000 A 
ENDBRANCH  12  19
ENDBRANCH   1  13
TORSDOF 2
ENDMDL
MODEL 8
REMARK VINA RESULT:      -6.3     31.903     32.512
REMARK  Name = 
REMARK  2 active torsions:
REMARK  status: ('A' for Active; 'I' for Inactive)
REMARK    1  A    between atoms: C_5  and  N_6
REMARK    2  A    between atoms: C_7  and  C_9
REMARK                            x       y       z     vdW  Elec       q    Type
REMARK                         _______ _______ _______ _____ _____    ______ ____
ROOT
ATOM      1  C   UNL     1      30.204  22.642  29.616  0.00  0.00    +0.000 A 
ATOM      2  C   UNL     1      29.329  22.796  30.652  0.00  0.00    +0.000 A 
ATOM      3  N   UNL     1      28.018  23.352  30.620  0.00  0.00    +0.000 NA
ATOM      4  S   UNL     1      30.178  22.169  31.986  0.00  0.00    +0.000 S 
ATOM      5  C   UNL     1      31.618  21.728  31.184  0.00  0.00    +0.000 A 
ATOM      6  C   UNL     1      31.394  22.086  29.894  0.00  0.00    +0.000 A 
ATOM      7  C   UNL     1      32.463  21.852  28.842  0.00  0.00    +0.000 C 
ATOM      8  C   UNL     1      33.827  22.121  29.387  0.00  0.00    +0.000 C 
ATOM      9  C   UNL     1      33.854  22.923  30.640  0.00  0.00    +0.000 C 
ATOM     10  C   UNL     1      33.934  22.077  31.890  0.00  0.00    +0.000 C 
ATOM     11  C   UNL     1      32.778  21.096  31.897  0.00  0.00    +0.000 C 
ENDROOT
BRANCH   1  13
ATOM     12  N   UNL     1      29.296  22.203  27.280  0.00  0.00    +0.000 NA
ATOM     13  C   UNL     1      29.838  23.076  28.240  0.00  0.00    +0.000 C 
ATOM     14  O   UNL     1      29.999  24.266  27.863  0.00  0.00    +0.000 OA
BRANCH  12  19
ATOM     15  C   UNL     1      27.467  23.803  22.173  0.00  0.00    +0.000 C 
ATOM     16  C   UNL     1      27.977  23.383  23.492  0.00  0.00    +0.000 A 
ATOM     17  C   UNL     1      27.094  23.274  24.544  0.00  0.00    +0.000 A 
ATOM     18  C   UNL     1      27.584  22.883  25.761  0.00  0.00    +0.000 A 
ATOM     19  C   UNL     1      28.940  22.596  25.960  0.00  0.00    +0.000 A 
ATOM     20  C   UNL     1      29.812  22.701  24.928  0.00  0.00    +0.000 A 
ATOM     21  C   UNL     1      29.310  23.098  23.691  0.00  0.00    +0.000 A 
ENDBRANCH  12  19
ENDBRANCH   1  13
TORSDOF 2
ENDMDL
MODEL 9
REMARK VINA RESULT:      -6.2     31.950     33.496
REMARK  Name = 
REMARK  2 active torsions:
REMARK  status: ('A' for Active; 'I' for Inactive)
REMARK    1  A    between atoms: C_5  and  N_6
REMARK    2  A    between atoms: C_7  and  C_9
REMARK                            x       y       z     vdW  Elec       q    Type
REMARK                         _______ _______ _______ _____ _____    ______ ____
ROOT
ATOM      1  C   UNL     1      29.403  23.576  23.994  0.00  0.00    +0.000 A 
ATOM      2  C   UNL     1      29.003  23.984  22.755  0.00  0.00    +0.000 A 
ATOM      3  N   UNL     1      29.814  24.431  21.673  0.00  0.00    +0.000 NA
ATOM      4  S   UNL     1      27.310  23.833  22.813  0.00  0.00    +0.000 S 
ATOM      5  C   UNL     1      27.163  23.254  24.411  0.00  0.00    +0.000 A 
ATOM      6  C   UNL     1      28.444  23.196  24.855  0.00  0.00    +0.000 A 
ATOM      7  C   UNL     1      28.742  22.718  26.265  0.00  0.00    +0.000 C 
ATOM      8  C   UNL     1      27.717  23.214  27.231  0.00  0.00    +0.000 C 
ATOM      9  C   UNL     1      26.895  24.354  26.743  0.00  0.00    +0.000 C 
ATOM     10  C   UNL     1      25.575  23.927  26.145  0.00  0.00    +0.000 C 
ATOM     11  C   UNL     1      25.836  22.930  25.033  0.00  0.00    +0.000 C 
ENDROOT
BRANCH   1  13
ATOM     12  N   UNL     1      31.512  24.671  24.902  0.00  0.00    +0.000 NA
ATOM     13  C   UNL     1      30.845  23.557  24.361  0.00  0.00    +0.000 C 
ATOM     14  O   UNL     1      31.549  22.526  24.203  0.00  0.00    +0.000 OA
BRANCH  12  19
ATOM     15  C   UNL     1      36.861  24.628  26.740  0.00  0.00    +0.000 C 
ATOM     16  C   UNL     1      35.477  24.645  26.227  0.00  0.00    +0.000 A 
ATOM     17  C   UNL     1      34.436  24.486  27.115  0.00  0.00    +0.000 A 
ATOM     18  C   UNL     1      33.159  24.503  26.622  0.00  0.00    +0.000 A 
ATOM     19  C   UNL     1      32.889  24.676  25.260  0.00  0.00    +0.000 A 
ATOM     20  C   UNL     1      33.910  24.832  24.383  0.00  0.00    +0.000 A 
ATOM     21  C   UNL     1      35.208  24.814  24.887  0.00  0.00    +0.000 A 
ENDBRANCH  12  19
ENDBRANCH   1  13
TORSDOF 2
ENDMDL
MODEL 10
REMARK VINA RESULT:      -6.0     32.124     34.233
REMARK  Name = 
REMARK  2 active torsions:
REMARK  status: ('A' for Active; 'I' for Inactive)
REMARK    1  A    between atoms: C_5  and  N_6
REMARK    2  A    between atoms: C_7  and  C_9
REMARK                            x       y       z     vdW  Elec       q    Type
REMARK                         _______ _______ _______ _____ _____    ______ ____
ROOT
ATOM      1  C   UNL     1      28.194  23.752  24.209  0.00  0.00    +0.000 A 
ATOM      2  C   UNL     1      27.025  23.544  24.882  0.00  0.00    +0.000 A 
ATOM      3  N   UNL     1      25.717  23.985  24.530  0.00  0.00    +0.000 NA
ATOM      4  S   UNL     1      27.503  22.635  26.238  0.00  0.00    +0.000 S 
ATOM      5  C   UNL     1      29.174  22.547  25.907  0.00  0.00    +0.000 A 
ATOM      6  C   UNL     1      29.311  23.232  24.744  0.00  0.00    +0.000 A 
ATOM      7  C   UNL     1      30.680  23.383  24.105  0.00  0.00    +0.000 C 
ATOM      8  C   UNL     1      31.739  23.592  25.137  0.00  0.00    +0.000 C 
ATOM      9  C   UNL     1      31.236  24.012  26.473  0.00  0.00    +0.000 C 
ATOM     10  C   UNL     1      31.059  22.860  27.434  0.00  0.00    +0.000 C 
ATOM     11  C   UNL     1      30.139  21.831  26.807  0.00  0.00    +0.000 C 
ENDROOT
BRANCH   1  13
ATOM     12  N   UNL     1      28.433  25.911  22.886  0.00  0.00    +0.000 NA
ATOM     13  C   UNL     1      28.213  24.523  22.936  0.00  0.00    +0.000 C 
ATOM     14  O   UNL     1      28.030  23.961  21.826  0.00  0.00    +0.000 OA
BRANCH  12  19
ATOM     15  C   UNL     1      28.111  29.038  18.183  0.00  0.00    +0.000 C 
ATOM     16  C   UNL     1      28.228  28.213  19.402  0.00  0.00    +0.000 A 
ATOM     17  C   UNL     1      27.143  28.112  20.245  0.00  0.00    +0.000 A 
ATOM     18  C   UNL     1      27.270  27.344  21.371  0.00  0.00    +0.000 A 
ATOM     19  C   UNL     1      28.456  26.669  21.682  0.00  0.00    +0.000 A 
ATOM     20  C   UNL     1      29.525  26.765  20.855  0.00  0.00    +0.000 A 
ATOM     21  C   UNL     1      29.394  27.547  19.711  0.00  0.00    +0.000 A 
ENDBRANCH  12  19
ENDBRANCH   1  13
TORSDOF 2
ENDMDL
