MODEL 1
REMARK VINA RESULT:      -7.6      0.000      0.000
REMARK  Name = 
REMARK  0 active torsions:
REMARK  status: ('A' for Active; 'I' for Inactive)
REMARK                            x       y       z     vdW  Elec       q    Type
REMARK                         _______ _______ _______ _____ _____    ______ ____
ROOT
ATOM      1  C   UNL     1      27.997  25.495  24.465  0.00  0.00    +0.000 C 
ATOM      2  C   UNL     1      27.384  24.283  23.949  0.00  0.00    +0.000 C 
ATOM      3  C   UNL     1      26.286  23.635  24.571  0.00  0.00    +0.000 C 
ATOM      4  C   UNL     1      26.739  23.459  26.018  0.00  0.00    +0.000 C 
ATOM      5  C   UNL     1      27.889  22.308  25.989  0.00  0.00    +0.000 C 
ATOM      6  C   UNL     1      28.368  22.499  27.474  0.00  0.00    +0.000 A 
ATOM      7  C   UNL     1      27.363  22.531  28.403  0.00  0.00    +0.000 A 
ATOM      8  C   UNL     1      27.702  22.685  29.747  0.00  0.00    +0.000 A 
ATOM      9  C   UNL     1      29.041  22.799  30.080  0.00  0.00    +0.000 A 
ATOM     10  O   UNL     1      29.430  22.956  31.418  0.00  0.00    +0.000 OA
ATOM     11  C   UNL     1      30.022  22.760  29.083  0.00  0.00    +0.000 A 
ATOM     12  C   UNL     1      29.685  22.607  27.750  0.00  0.00    +0.000 A 
ATOM     13  C   UNL     1      30.792  22.566  26.754  0.00  0.00    +0.000 C 
ATOM     14  C   UNL     1      30.211  22.308  25.350  0.00  0.00    +0.000 C 
ATOM     15  C   UNL     1      29.057  23.413  25.387  0.00  0.00    +0.000 C 
ATOM     16  C   UNL     1      28.502  23.103  23.827  0.00  0.00    +0.000 C 
ATOM     17  C   UNL     1      29.489  24.149  23.053  0.00  0.00    +0.000 C 
ATOM     18  C   UNL     1      28.595  23.825  21.865  0.00  0.00    +0.000 C 
ATOM     19  C   UNL     1      27.180  24.564  22.348  0.00  0.00    +0.000 C 
ATOM     20  O   UNL     1      26.339  23.301  22.120  0.00  0.00    +0.000 OA
ENDROOT
TORSDOF 0
ENDMDL
MODEL 2
REMARK VINA RESULT:      -6.9      1.628      6.149
REMARK  Name = 
REMARK  0 active torsions:
REMARK  status: ('A' for Active; 'I' for Inactive)
REMARK                            x       y       z     vdW  Elec       q    Type
REMARK                         _______ _______ _______ _____ _____    ______ ____
ROOT
ATOM      1  C   UNL     1      28.563  24.594  28.500  0.00  0.00    +0.000 C 
ATOM      2  C   UNL     1      27.909  23.298  28.530  0.00  0.00    +0.000 C 
ATOM      3  C   UNL     1      28.374  22.168  27.810  0.00  0.00    +0.000 C 
ATOM      4  C   UNL     1      28.523  22.683  26.381  0.00  0.00    +0.000 C 
ATOM      5  C   UNL     1      27.009  22.891  25.820  0.00  0.00    +0.000 C 
ATOM      6  C   UNL     1      27.410  23.652  24.505  0.00  0.00    +0.000 A 
ATOM      7  C   UNL     1      28.404  23.058  23.776  0.00  0.00    +0.000 A 
ATOM      8  C   UNL     1      28.812  23.662  22.587  0.00  0.00    +0.000 A 
ATOM      9  C   UNL     1      28.192  24.837  22.199  0.00  0.00    +0.000 A 
ATOM     10  O   UNL     1      28.568  25.482  21.013  0.00  0.00    +0.000 OA
ATOM     11  C   UNL     1      27.182  25.397  22.990  0.00  0.00    +0.000 A 
ATOM     12  C   UNL     1      26.778  24.797  24.168  0.00  0.00    +0.000 A 
ATOM     13  C   UNL     1      25.689  25.454  24.945  0.00  0.00    +0.000 C 
ATOM     14  C   UNL     1      25.336  24.587  26.169  0.00  0.00    +0.000 C 
ATOM     15  C   UNL     1      26.824  24.351  26.704  0.00  0.00    +0.000 C 
ATOM     16  C   UNL     1      26.359  23.445  28.045  0.00  0.00    +0.000 C 
ATOM     17  C   UNL     1      26.179  24.697  29.079  0.00  0.00    +0.000 C 
ATOM     18  C   UNL     1      26.055  23.586  30.112  0.00  0.00    +0.000 C 
ATOM     19  C   UNL     1      27.620  23.010  30.117  0.00  0.00    +0.000 C 
ATOM     20  O   UNL     1      27.180  21.558  29.889  0.00  0.00    +0.000 OA
ENDROOT
TORSDOF 0
ENDMDL
MODEL 3
REMARK VINA RESULT:      -6.9     18.510     20.420
REMARK  Name = 
REMARK  0 active torsions:
REMARK  status: ('A' for Active; 'I' for Inactive)
REMARK                            x       y       z     vdW  Elec       q    Type
REMARK                         _______ _______ _______ _____ _____    ______ ____
ROOT
ATOM      1  C   UNL     1      20.846  11.931  38.137  0.00  0.00    +0.000 C 
ATOM      2  C   UNL     1      21.054  10.496  38.221  0.00  0.00    +0.000 C 
ATOM      3  C   UNL     1      21.247   9.665  37.088  0.00  0.00    +0.000 C 
ATOM      4  C   UNL     1      20.069  10.005  36.181  0.00  0.00    +0.000 C 
ATOM      5  C   UNL     1      18.754   9.366  36.897  0.00  0.00    +0.000 C 
ATOM      6  C   UNL     1      17.692  10.057  35.967  0.00  0.00    +0.000 A 
ATOM      7  C   UNL     1      17.942   9.947  34.626  0.00  0.00    +0.000 A 
ATOM      8  C   UNL     1      17.042  10.522  33.730  0.00  0.00    +0.000 A 
ATOM      9  C   UNL     1      15.935  11.178  34.239  0.00  0.00    +0.000 A 
ATOM     10  O   UNL     1      15.002  11.772  33.377  0.00  0.00    +0.000 OA
ATOM     11  C   UNL     1      15.735  11.258  35.621  0.00  0.00    +0.000 A 
ATOM     12  C   UNL     1      16.628  10.687  36.510  0.00  0.00    +0.000 A 
ATOM     13  C   UNL     1      16.335  10.811  37.965  0.00  0.00    +0.000 C 
ATOM     14  C   UNL     1      17.400  10.042  38.771  0.00  0.00    +0.000 C 
ATOM     15  C   UNL     1      18.694  10.640  38.046  0.00  0.00    +0.000 C 
ATOM     16  C   UNL     1      19.801   9.796  38.995  0.00  0.00    +0.000 C 
ATOM     17  C   UNL     1      19.939  10.912  40.179  0.00  0.00    +0.000 C 
ATOM     18  C   UNL     1      21.089  10.023  40.628  0.00  0.00    +0.000 C 
ATOM     19  C   UNL     1      22.178  10.301  39.396  0.00  0.00    +0.000 C 
ATOM     20  O   UNL     1      22.377   8.806  39.115  0.00  0.00    +0.000 OA
ENDROOT
TORSDOF 0
ENDMDL
MODEL 4
REMARK VINA RESULT:      -6.7      2.676      3.683
REMARK  Name = 
REMARK  0 active torsions:
REMARK  status: ('A' for Active; 'I' for Inactive)
REMARK                            x       y       z     vdW  Elec       q    Type
REMARK                         _______ _______ _______ _____ _____    ______ ____
ROOT
ATOM      1  C   UNL     1      28.773  25.560  24.991  0.00  0.00    +0.000 C 
ATOM      2  C   UNL     1      28.060  24.500  24.300  0.00  0.00    +0.000 C 
ATOM      3  C   UNL     1      26.729  24.631  23.828  0.00  0.00    +0.000 C 
ATOM      4  C   UNL     1      25.955  25.120  25.049  0.00  0.00    +0.000 C 
ATOM      5  C   UNL     1      25.872  23.849  26.064  0.00  0.00    +0.000 C 
ATOM      6  C   UNL     1      25.308  24.644  27.297  0.00  0.00    +0.000 A 
ATOM      7  C   UNL     1      24.238  25.452  27.020  0.00  0.00    +0.000 A 
ATOM      8  C   UNL     1      23.668  26.183  28.061  0.00  0.00    +0.000 A 
ATOM      9  C   UNL     1      24.210  26.058  29.328  0.00  0.00    +0.000 A 
ATOM     10  O   UNL     1      23.671  26.774  30.407  0.00  0.00    +0.000 OA
ATOM     11  C   UNL     1      25.305  25.215  29.547  0.00  0.00    +0.000 A 
ATOM     12  C   UNL     1      25.871  24.490  28.514  0.00  0.00    +0.000 A 
ATOM     13  C   UNL     1      27.029  23.610  28.836  0.00  0.00    +0.000 C 
ATOM     14  C   UNL     1      27.451  22.834  27.573  0.00  0.00    +0.000 C 
ATOM     15  C   UNL     1      27.499  24.073  26.564  0.00  0.00    +0.000 C 
ATOM     16  C   UNL     1      28.001  23.166  25.236  0.00  0.00    +0.000 C 
ATOM     17  C   UNL     1      29.607  23.306  25.495  0.00  0.00    +0.000 C 
ATOM     18  C   UNL     1      29.697  22.683  24.110  0.00  0.00    +0.000 C 
ATOM     19  C   UNL     1      29.117  23.940  23.181  0.00  0.00    +0.000 C 
ATOM     20  O   UNL     1      28.078  23.058  22.477  0.00  0.00    +0.000 OA
ENDROOT
TORSDOF 0
ENDMDL
MODEL 5
REMARK VINA RESULT:      -6.6      2.699      5.700
REMARK  Name = 
REMARK  0 active torsions:
REMARK  status: ('A' for Active; 'I' for Inactive)
REMARK                            x       y       z     vdW  Elec       q    Type
REMARK                         _______ _______ _______ _____ _____    ______ ____
ROOT
ATOM      1  C   UNL     1      31.645  25.862  26.810  0.00  0.00    +0.000 C 
ATOM      2  C   UNL     1      32.548  24.872  26.252  0.00  0.00    +0.000 C 
ATOM      3  C   UNL     1      32.650  24.599  24.864  0.00  0.00    +0.000 C 
ATOM      4  C   UNL     1      31.208  24.342  24.436  0.00  0.00    +0.000 C 
ATOM      5  C   UNL     1      30.803  22.900  25.075  0.00  0.00    +0.000 C 
ATOM      6  C   UNL     1      29.268  22.987  24.748  0.00  0.00    +0.000 A 
ATOM      7  C   UNL     1      28.973  23.345  23.461  0.00  0.00    +0.000 A 
ATOM      8  C   UNL     1      27.633  23.433  23.083  0.00  0.00    +0.000 A 
ATOM      9  C   UNL     1      26.663  23.154  24.030  0.00  0.00    +0.000 A 
ATOM     10  O   UNL     1      25.303  23.230  23.697  0.00  0.00    +0.000 OA
ATOM     11  C   UNL     1      27.029  22.794  25.331  0.00  0.00    +0.000 A 
ATOM     12  C   UNL     1      28.357  22.707  25.705  0.00  0.00    +0.000 A 
ATOM     13  C   UNL     1      28.659  22.308  27.108  0.00  0.00    +0.000 C 
ATOM     14  C   UNL     1      30.185  22.190  27.292  0.00  0.00    +0.000 C 
ATOM     15  C   UNL     1      30.591  23.589  26.633  0.00  0.00    +0.000 C 
ATOM     16  C   UNL     1      32.244  23.409  26.904  0.00  0.00    +0.000 C 
ATOM     17  C   UNL     1      32.277  24.090  28.388  0.00  0.00    +0.000 C 
ATOM     18  C   UNL     1      33.783  24.009  28.189  0.00  0.00    +0.000 C 
ATOM     19  C   UNL     1      33.985  25.150  26.989  0.00  0.00    +0.000 C 
ATOM     20  O   UNL     1      34.764  24.187  26.082  0.00  0.00    +0.000 OA
ENDROOT
TORSDOF 0
ENDMDL
MODEL 6
REMARK VINA RESULT:      -6.3     21.239     22.376
REMARK  Name = 
REMARK  0 active torsions:
REMARK  status: ('A' for Active; 'I' for Inactive)
REMARK                            x       y       z     vdW  Elec       q    Type
REMARK                         _______ _______ _______ _____ _____    ______ ____
ROOT
ATOM      1  C   UNL     1      23.045   3.078  15.503  0.00  0.00    +0.000 C 
ATOM      2  C   UNL     1      22.924   2.497  16.829  0.00  0.00    +0.000 C 
ATOM      3  C   UNL     1      22.846   3.267  18.017  0.00  0.00    +0.000 C 
ATOM      4  C   UNL     1      24.049   4.201  17.926  0.00  0.00    +0.000 C 
ATOM      5  C   UNL     1      25.360   3.267  18.168  0.00  0.00    +0.000 C 
ATOM      6  C   UNL     1      26.426   4.349  17.767  0.00  0.00    +0.000 A 
ATOM      7  C   UNL     1      26.258   5.571  18.361  0.00  0.00    +0.000 A 
ATOM      8  C   UNL     1      27.168   6.586  18.069  0.00  0.00    +0.000 A 
ATOM      9  C   UNL     1      28.202   6.311  17.191  0.00  0.00    +0.000 A 
ATOM     10  O   UNL     1      29.142   7.299  16.866  0.00  0.00    +0.000 OA
ATOM     11  C   UNL     1      28.320   5.041  16.615  0.00  0.00    +0.000 A 
ATOM     12  C   UNL     1      27.417   4.034  16.905  0.00  0.00    +0.000 A 
ATOM     13  C   UNL     1      27.621   2.709  16.256  0.00  0.00    +0.000 C 
ATOM     14  C   UNL     1      26.563   1.715  16.774  0.00  0.00    +0.000 C 
ATOM     15  C   UNL     1      25.277   2.642  16.572  0.00  0.00    +0.000 C 
ATOM     16  C   UNL     1      24.174   1.489  17.112  0.00  0.00    +0.000 C 
ATOM     17  C   UNL     1      23.900   0.782  15.666  0.00  0.00    +0.000 C 
ATOM     18  C   UNL     1      22.785   0.081  16.428  0.00  0.00    +0.000 C 
ATOM     19  C   UNL     1      21.751   1.363  16.686  0.00  0.00    +0.000 C 
ATOM     20  O   UNL     1      21.662   1.102  18.195  0.00  0.00    +0.000 OA
ENDROOT
TORSDOF 0
ENDMDL
MODEL 7
REMARK VINA RESULT:      -6.1      2.748      5.778
REMARK  Name = 
REMARK  0 active torsions:
REMARK  status: ('A' for Active; 'I' for Inactive)
REMARK                            x       y       z     vdW  Elec       q    Type
REMARK                         _______ _______ _______ _____ _____    ______ ____
ROOT
ATOM      1  C   UNL     1      27.408  26.578  29.188  0.00  0.00    +0.000 C 
ATOM      2  C   UNL     1      26.825  25.499  29.966  0.00  0.00    +0.000 C 
ATOM      3  C   UNL     1      27.587  24.451  30.544  0.00  0.00    +0.000 C 
ATOM      4  C   UNL     1      28.414  23.915  29.379  0.00  0.00    +0.000 C 
ATOM      5  C   UNL     1      27.366  23.131  28.411  0.00  0.00    +0.000 C 
ATOM      6  C   UNL     1      28.356  22.925  27.208  0.00  0.00    +0.000 A 
ATOM      7  C   UNL     1      29.581  22.420  27.550  0.00  0.00    +0.000 A 
ATOM      8  C   UNL     1      30.517  22.195  26.541  0.00  0.00    +0.000 A 
ATOM      9  C   UNL     1      30.162  22.493  25.237  0.00  0.00    +0.000 A 
ATOM     10  O   UNL     1      31.069  22.285  24.188  0.00  0.00    +0.000 OA
ATOM     11  C   UNL     1      28.893  23.009  24.950  0.00  0.00    +0.000 A 
ATOM     12  C   UNL     1      27.966  23.232  25.952  0.00  0.00    +0.000 A 
ATOM     13  C   UNL     1      26.635  23.774  25.559  0.00  0.00    +0.000 C 
ATOM     14  C   UNL     1      25.731  23.868  26.803  0.00  0.00    +0.000 C 
ATOM     15  C   UNL     1      26.768  24.606  27.770  0.00  0.00    +0.000 C 
ATOM     16  C   UNL     1      25.710  24.710  29.076  0.00  0.00    +0.000 C 
ATOM     17  C   UNL     1      25.045  26.148  28.679  0.00  0.00    +0.000 C 
ATOM     18  C   UNL     1      24.435  26.040  30.069  0.00  0.00    +0.000 C 
ATOM     19  C   UNL     1      25.799  26.237  31.007  0.00  0.00    +0.000 C 
ATOM     20  O   UNL     1      25.530  24.964  31.821  0.00  0.00    +0.000 OA
ENDROOT
TORSDOF 0
ENDMDL
MODEL 8
REMARK VINA RESULT:      -6.1     20.844     22.181
REMARK  Name = 
REMARK  0 active torsions:
REMARK  status: ('A' for Active; 'I' for Inactive)
REMARK                            x       y       z     vdW  Elec       q    Type
REMARK                         _______ _______ _______ _____ _____    ______ ____
ROOT
ATOM      1  C   UNL     1      26.293   6.058  15.508  0.00  0.00    +0.000 C 
ATOM      2  C   UNL     1      27.342   5.362  16.233  0.00  0.00    +0.000 C 
ATOM      3  C   UNL     1      27.832   4.083  15.865  0.00  0.00    +0.000 C 
ATOM      4  C   UNL     1      26.573   3.229  15.751  0.00  0.00    +0.000 C 
ATOM      5  C   UNL     1      26.044   3.006  17.275  0.00  0.00    +0.000 C 
ATOM      6  C   UNL     1      24.659   2.372  16.891  0.00  0.00    +0.000 A 
ATOM      7  C   UNL     1      24.723   1.365  15.967  0.00  0.00    +0.000 A 
ATOM      8  C   UNL     1      23.539   0.738  15.579  0.00  0.00    +0.000 A 
ATOM      9  C   UNL     1      22.352   1.164  16.148  0.00  0.00    +0.000 A 
ATOM     10  O   UNL     1      21.136   0.565  15.789  0.00  0.00    +0.000 OA
ATOM     11  C   UNL     1      22.351   2.200  17.088  0.00  0.00    +0.000 A 
ATOM     12  C   UNL     1      23.526   2.821  17.472  0.00  0.00    +0.000 A 
ATOM     13  C   UNL     1      23.436   3.910  18.485  0.00  0.00    +0.000 C 
ATOM     14  C   UNL     1      24.854   4.406  18.832  0.00  0.00    +0.000 C 
ATOM     15  C   UNL     1      25.390   4.592  17.337  0.00  0.00    +0.000 C 
ATOM     16  C   UNL     1      26.906   5.168  17.792  0.00  0.00    +0.000 C 
ATOM     17  C   UNL     1      26.508   6.751  17.854  0.00  0.00    +0.000 C 
ATOM     18  C   UNL     1      28.013   6.933  17.994  0.00  0.00    +0.000 C 
ATOM     19  C   UNL     1      28.509   6.487  16.466  0.00  0.00    +0.000 C 
ATOM     20  O   UNL     1      29.534   5.477  16.997  0.00  0.00    +0.000 OA
ENDROOT
TORSDOF 0
ENDMDL
MODEL 9
REMARK VINA RESULT:      -6.1     19.983     21.326
REMARK  Name = 
REMARK  0 active torsions:
REMARK  status: ('A' for Active; 'I' for Inactive)
REMARK                            x       y       z     vdW  Elec       q    Type
REMARK                         _______ _______ _______ _____ _____    ______ ____
ROOT
ATOM      1  C   UNL     1      28.907   4.030  16.618  0.00  0.00    +0.000 C 
ATOM      2  C   UNL     1      28.668   5.455  16.772  0.00  0.00    +0.000 C 
ATOM      3  C   UNL     1      28.035   6.025  17.906  0.00  0.00    +0.000 C 
ATOM      4  C   UNL     1      26.743   5.226  18.042  0.00  0.00    +0.000 C 
ATOM      5  C   UNL     1      25.794   5.695  16.805  0.00  0.00    +0.000 C 
ATOM      6  C   UNL     1      24.697   4.586  16.992  0.00  0.00    +0.000 A 
ATOM      7  C   UNL     1      24.238   4.440  18.273  0.00  0.00    +0.000 A 
ATOM      8  C   UNL     1      23.254   3.485  18.525  0.00  0.00    +0.000 A 
ATOM      9  C   UNL     1      22.785   2.728  17.465  0.00  0.00    +0.000 A 
ATOM     10  O   UNL     1      21.796   1.755  17.669  0.00  0.00    +0.000 OA
ATOM     11  C   UNL     1      23.295   2.924  16.177  0.00  0.00    +0.000 A 
ATOM     12  C   UNL     1      24.271   3.871  15.928  0.00  0.00    +0.000 A 
ATOM     13  C   UNL     1      24.752   4.021  14.526  0.00  0.00    +0.000 C 
ATOM     14  C   UNL     1      25.769   5.177  14.453  0.00  0.00    +0.000 C 
ATOM     15  C   UNL     1      26.683   4.740  15.690  0.00  0.00    +0.000 C 
ATOM     16  C   UNL     1      27.779   6.008  15.522  0.00  0.00    +0.000 C 
ATOM     17  C   UNL     1      28.799   5.255  14.493  0.00  0.00    +0.000 C 
ATOM     18  C   UNL     1      29.682   6.462  14.777  0.00  0.00    +0.000 C 
ATOM     19  C   UNL     1      30.088   6.165  16.367  0.00  0.00    +0.000 C 
ATOM     20  O   UNL     1      29.652   7.560  16.832  0.00  0.00    +0.000 OA
ENDROOT
TORSDOF 0
ENDMDL
MODEL 10
REMARK VINA RESULT:      -6.1     32.266     33.499
REMARK  Name = 
REMARK  0 active torsions:
REMARK  status: ('A' for Active; 'I' for Inactive)
REMARK                            x       y       z     vdW  Elec       q    Type
REMARK                         _______ _______ _______ _____ _____    ______ ____
ROOT
ATOM      1  C   UNL     1      20.375  -9.839  28.665  0.00  0.00    +0.000 C 
ATOM      2  C   UNL     1      19.501 -10.467  27.690  0.00  0.00    +0.000 C 
ATOM      3  C   UNL     1      19.966 -11.314  26.652  0.00  0.00    +0.000 C 
ATOM      4  C   UNL     1      21.058 -10.493  25.973  0.00  0.00    +0.000 C 
ATOM      5  C   UNL     1      20.289  -9.303  25.172  0.00  0.00    +0.000 C 
ATOM      6  C   UNL     1      21.575  -8.475  24.809  0.00  0.00    +0.000 A 
ATOM      7  C   UNL     1      22.596  -9.206  24.264  0.00  0.00    +0.000 A 
ATOM      8  C   UNL     1      23.769  -8.546  23.901  0.00  0.00    +0.000 A 
ATOM      9  C   UNL     1      23.848  -7.180  24.109  0.00  0.00    +0.000 A 
ATOM     10  O   UNL     1      25.007  -6.473  23.760  0.00  0.00    +0.000 OA
ATOM     11  C   UNL     1      22.769  -6.488  24.671  0.00  0.00    +0.000 A 
ATOM     12  C   UNL     1      21.605  -7.143  25.030  0.00  0.00    +0.000 A 
ATOM     13  C   UNL     1      20.503  -6.329  25.614  0.00  0.00    +0.000 C 
ATOM     14  C   UNL     1      19.277  -7.230  25.865  0.00  0.00    +0.000 C 
ATOM     15  C   UNL     1      20.033  -8.419  26.621  0.00  0.00    +0.000 C 
ATOM     16  C   UNL     1      18.643  -9.330  26.895  0.00  0.00    +0.000 C 
ATOM     17  C   UNL     1      18.246  -8.660  28.331  0.00  0.00    +0.000 C 
ATOM     18  C   UNL     1      17.241  -9.801  28.376  0.00  0.00    +0.000 C 
ATOM     19  C   UNL     1      18.272 -11.097  28.571  0.00  0.00    +0.000 C 
ATOM     20  O   UNL     1      17.670 -11.868  27.389  0.00  0.00    +0.000 OA
ENDROOT
TORSDOF 0
ENDMDL
