MODEL 1
REMARK VINA RESULT:      -5.6      0.000      0.000
REMARK  Name = 
REMARK  3 active torsions:
REMARK  status: ('A' for Active; 'I' for Inactive)
REMARK    1  A    between atoms: C_3  and  C_4
REMARK    2  A    between atoms: C_7  and  C_8
REMARK    3  A    between atoms: C_11  and  C_12
REMARK                            x       y       z     vdW  Elec       q    Type
REMARK                         _______ _______ _______ _____ _____    ______ ____
ROOT
ATOM      1  C   UNL     1      26.096  26.091  24.392  0.00  0.00    +0.000 C 
ATOM      2  C   UNL     1      26.616  24.889  25.155  0.00  0.00    +0.000 C 
ATOM      3  C   UNL     1      27.278  24.053  24.471  0.00  0.00    +0.000 C 
ATOM      4  C   UNL     1      27.928  22.717  25.023  0.00  0.00    +0.000 C 
ATOM      5  N   UNL     1      27.576  22.696  26.494  0.00  0.00    +0.000 NA
ATOM      6  C   UNL     1      26.855  23.628  27.188  0.00  0.00    +0.000 C 
ATOM      7  S   UNL     1      26.598  23.381  28.809  0.00  0.00    +0.000 S 
ATOM      8  N   UNL     1      26.347  24.763  26.537  0.00  0.00    +0.000 NA
ENDROOT
BRANCH   4   9
ATOM      9  C   UNL     1      29.415  23.336  25.164  0.00  0.00    +0.000 A 
ATOM     10  C   UNL     1      30.407  22.722  24.469  0.00  0.00    +0.000 A 
ATOM     11  C   UNL     1      31.674  23.289  24.620  0.00  0.00    +0.000 A 
ATOM     12  C   UNL     1      31.905  24.390  25.415  0.00  0.00    +0.000 A 
ATOM     13  C   UNL     1      30.843  24.949  26.085  0.00  0.00    +0.000 A 
ATOM     14  C   UNL     1      29.587  24.407  25.949  0.00  0.00    +0.000 A 
BRANCH  12  15
ATOM     15  C   UNL     1      33.296  24.964  25.544  0.00  0.00    +0.000 C 
ATOM     16  C   UNL     1      34.201  24.268  24.520  0.00  0.00    +0.000 C 
ATOM     17  C   UNL     1      33.276  26.454  25.323  0.00  0.00    +0.000 C 
ENDBRANCH  12  15
ENDBRANCH   4   9
BRANCH   3  18
ATOM     18  C   UNL     1      27.540  24.218  23.018  0.00  0.00    +0.000 C 
ATOM     19  N   UNL     1      26.738  23.457  22.126  0.00  0.00    +0.000 NA
ATOM     20  O   UNL     1      28.411  24.975  22.552  0.00  0.00    +0.000 OA
ENDBRANCH   3  18
TORSDOF 3
ENDMDL
MODEL 2
REMARK VINA RESULT:      -5.5     29.105     30.508
REMARK  Name = 
REMARK  3 active torsions:
REMARK  status: ('A' for Active; 'I' for Inactive)
REMARK    1  A    between atoms: C_3  and  C_4
REMARK    2  A    between atoms: C_7  and  C_8
REMARK    3  A    between atoms: C_11  and  C_12
REMARK                            x       y       z     vdW  Elec       q    Type
REMARK                         _______ _______ _______ _____ _____    ______ ____
ROOT
ATOM      1  C   UNL     1      36.889  -6.216  33.563  0.00  0.00    +0.000 C 
ATOM      2  C   UNL     1      35.514  -6.061  32.944  0.00  0.00    +0.000 C 
ATOM      3  C   UNL     1      34.542  -6.107  33.754  0.00  0.00    +0.000 C 
ATOM      4  C   UNL     1      33.011  -5.973  33.368  0.00  0.00    +0.000 C 
ATOM      5  N   UNL     1      33.007  -5.786  31.866  0.00  0.00    +0.000 NA
ATOM      6  C   UNL     1      34.090  -5.743  31.033  0.00  0.00    +0.000 C 
ATOM      7  S   UNL     1      33.829  -5.526  29.408  0.00  0.00    +0.000 S 
ATOM      8  N   UNL     1      35.389  -5.880  31.547  0.00  0.00    +0.000 NA
ENDROOT
BRANCH   4   9
ATOM      9  C   UNL     1      32.900  -4.414  33.781  0.00  0.00    +0.000 A 
ATOM     10  C   UNL     1      32.032  -4.100  34.777  0.00  0.00    +0.000 A 
ATOM     11  C   UNL     1      31.969  -2.744  35.102  0.00  0.00    +0.000 A 
ATOM     12  C   UNL     1      32.730  -1.791  34.461  0.00  0.00    +0.000 A 
ATOM     13  C   UNL     1      33.583  -2.195  33.463  0.00  0.00    +0.000 A 
ATOM     14  C   UNL     1      33.661  -3.526  33.128  0.00  0.00    +0.000 A 
BRANCH  12  15
ATOM     15  C   UNL     1      32.623  -0.336  34.850  0.00  0.00    +0.000 C 
ATOM     16  C   UNL     1      33.499  -0.102  36.087  0.00  0.00    +0.000 C 
ATOM     17  C   UNL     1      33.051   0.551  33.710  0.00  0.00    +0.000 C 
ENDBRANCH  12  15
ENDBRANCH   4   9
BRANCH   3  18
ATOM     18  C   UNL     1      34.712  -6.300  35.218  0.00  0.00    +0.000 C 
ATOM     19  N   UNL     1      34.319  -7.555  35.754  0.00  0.00    +0.000 NA
ATOM     20  O   UNL     1      35.171  -5.432  35.982  0.00  0.00    +0.000 OA
ENDBRANCH   3  18
TORSDOF 3
ENDMDL
MODEL 3
REMARK VINA RESULT:      -5.5      2.936      5.032
REMARK  Name = 
REMARK  3 active torsions:
REMARK  status: ('A' for Active; 'I' for Inactive)
REMARK    1  A    between atoms: C_3  and  C_4
REMARK    2  A    between atoms: C_7  and  C_8
REMARK    3  A    between atoms: C_11  and  C_12
REMARK                            x       y       z     vdW  Elec       q    Type
REMARK                         _______ _______ _______ _____ _____    ______ ____
ROOT
ATOM      1  C   UNL     1      30.237  26.712  24.102  0.00  0.00    +0.000 C 
ATOM      2  C   UNL     1      29.622  25.363  23.786  0.00  0.00    +0.000 C 
ATOM      3  C   UNL     1      30.236  24.360  24.256  0.00  0.00    +0.000 C 
ATOM      4  C   UNL     1      29.808  22.845  24.071  0.00  0.00    +0.000 C 
ATOM      5  N   UNL     1      28.546  22.900  23.237  0.00  0.00    +0.000 NA
ATOM      6  C   UNL     1      27.920  24.015  22.753  0.00  0.00    +0.000 C 
ATOM      7  S   UNL     1      26.538  23.818  21.855  0.00  0.00    +0.000 S 
ATOM      8  N   UNL     1      28.441  25.292  23.013  0.00  0.00    +0.000 NA
ENDROOT
BRANCH   4   9
ATOM      9  C   UNL     1      29.103  22.724  25.522  0.00  0.00    +0.000 A 
ATOM     10  C   UNL     1      27.798  23.091  25.606  0.00  0.00    +0.000 A 
ATOM     11  C   UNL     1      27.230  22.970  26.875  0.00  0.00    +0.000 A 
ATOM     12  C   UNL     1      27.938  22.513  27.965  0.00  0.00    +0.000 A 
ATOM     13  C   UNL     1      29.256  22.164  27.792  0.00  0.00    +0.000 A 
ATOM     14  C   UNL     1      29.834  22.274  26.550  0.00  0.00    +0.000 A 
BRANCH  12  15
ATOM     15  C   UNL     1      27.275  22.402  29.318  0.00  0.00    +0.000 C 
ATOM     16  C   UNL     1      28.351  22.576  30.397  0.00  0.00    +0.000 C 
ATOM     17  C   UNL     1      26.193  23.440  29.463  0.00  0.00    +0.000 C 
ENDBRANCH  12  15
ENDBRANCH   4   9
BRANCH   3  18
ATOM     18  C   UNL     1      31.477  24.472  25.065  0.00  0.00    +0.000 C 
ATOM     19  N   UNL     1      32.644  23.846  24.549  0.00  0.00    +0.000 NA
ATOM     20  O   UNL     1      31.545  25.075  26.151  0.00  0.00    +0.000 OA
ENDBRANCH   3  18
TORSDOF 3
ENDMDL
MODEL 4
REMARK VINA RESULT:      -5.5     21.976     23.503
REMARK  Name = 
REMARK  3 active torsions:
REMARK  status: ('A' for Active; 'I' for Inactive)
REMARK    1  A    between atoms: C_3  and  C_4
REMARK    2  A    between atoms: C_7  and  C_8
REMARK    3  A    between atoms: C_11  and  C_12
REMARK                            x       y       z     vdW  Elec       q    Type
REMARK                         _______ _______ _______ _____ _____    ______ ____
ROOT
ATOM      1  C   UNL     1      24.802   0.249  14.445  0.00  0.00    +0.000 C 
ATOM      2  C   UNL     1      23.891   0.935  15.443  0.00  0.00    +0.000 C 
ATOM      3  C   UNL     1      24.342   1.024  16.623  0.00  0.00    +0.000 C 
ATOM      4  C   UNL     1      23.593   1.691  17.850  0.00  0.00    +0.000 C 
ATOM      5  N   UNL     1      22.273   2.169  17.284  0.00  0.00    +0.000 NA
ATOM      6  C   UNL     1      21.832   2.048  15.995  0.00  0.00    +0.000 C 
ATOM      7  S   UNL     1      20.336   2.656  15.612  0.00  0.00    +0.000 S 
ATOM      8  N   UNL     1      22.631   1.423  15.025  0.00  0.00    +0.000 NA
ENDROOT
BRANCH   4   9
ATOM      9  C   UNL     1      24.391   3.094  17.753  0.00  0.00    +0.000 A 
ATOM     10  C   UNL     1      25.049   3.508  18.867  0.00  0.00    +0.000 A 
ATOM     11  C   UNL     1      25.724   4.722  18.739  0.00  0.00    +0.000 A 
ATOM     12  C   UNL     1      25.726   5.451  17.570  0.00  0.00    +0.000 A 
ATOM     13  C   UNL     1      25.034   4.960  16.490  0.00  0.00    +0.000 A 
ATOM     14  C   UNL     1      24.363   3.764  16.594  0.00  0.00    +0.000 A 
BRANCH  12  15
ATOM     15  C   UNL     1      26.473   6.761  17.484  0.00  0.00    +0.000 C 
ATOM     16  C   UNL     1      27.546   6.776  18.581  0.00  0.00    +0.000 C 
ATOM     17  C   UNL     1      27.092   6.929  16.121  0.00  0.00    +0.000 C 
ENDBRANCH  12  15
ENDBRANCH   4   9
BRANCH   3  18
ATOM     18  C   UNL     1      25.672   0.499  17.027  0.00  0.00    +0.000 C 
ATOM     19  N   UNL     1      25.695  -0.748  17.707  0.00  0.00    +0.000 NA
ATOM     20  O   UNL     1      26.746   1.086  16.804  0.00  0.00    +0.000 OA
ENDBRANCH   3  18
TORSDOF 3
ENDMDL
MODEL 5
REMARK VINA RESULT:      -5.4      3.819      5.267
REMARK  Name = 
REMARK  3 active torsions:
REMARK  status: ('A' for Active; 'I' for Inactive)
REMARK    1  A    between atoms: C_3  and  C_4
REMARK    2  A    between atoms: C_7  and  C_8
REMARK    3  A    between atoms: C_11  and  C_12
REMARK                            x       y       z     vdW  Elec       q    Type
REMARK                         _______ _______ _______ _____ _____    ______ ____
ROOT
ATOM      1  C   UNL     1      28.626  26.481  30.686  0.00  0.00    +0.000 C 
ATOM      2  C   UNL     1      29.028  25.023  30.780  0.00  0.00    +0.000 C 
ATOM      3  C   UNL     1      28.213  24.198  30.271  0.00  0.00    +0.000 C 
ATOM      4  C   UNL     1      28.393  22.623  30.236  0.00  0.00    +0.000 C 
ATOM      5  N   UNL     1      29.715  22.371  30.928  0.00  0.00    +0.000 NA
ATOM      6  C   UNL     1      30.562  23.302  31.463  0.00  0.00    +0.000 C 
ATOM      7  S   UNL     1      31.966  22.775  32.176  0.00  0.00    +0.000 S 
ATOM      8  N   UNL     1      30.245  24.668  31.407  0.00  0.00    +0.000 NA
ENDROOT
BRANCH   4   9
ATOM      9  C   UNL     1      28.934  22.581  28.713  0.00  0.00    +0.000 A 
ATOM     10  C   UNL     1      28.023  22.314  27.742  0.00  0.00    +0.000 A 
ATOM     11  C   UNL     1      28.532  22.288  26.443  0.00  0.00    +0.000 A 
ATOM     12  C   UNL     1      29.862  22.514  26.162  0.00  0.00    +0.000 A 
ATOM     13  C   UNL     1      30.717  22.776  27.204  0.00  0.00    +0.000 A 
ATOM     14  C   UNL     1      30.235  22.808  28.492  0.00  0.00    +0.000 A 
BRANCH  12  15
ATOM     15  C   UNL     1      30.362  22.472  24.737  0.00  0.00    +0.000 C 
ATOM     16  C   UNL     1      29.253  23.006  23.822  0.00  0.00    +0.000 C 
ATOM     17  C   UNL     1      31.620  23.289  24.594  0.00  0.00    +0.000 C 
ENDBRANCH  12  15
ENDBRANCH   4   9
BRANCH   3  18
ATOM     18  C   UNL     1      26.942  24.607  29.620  0.00  0.00    +0.000 C 
ATOM     19  N   UNL     1      25.734  24.195  30.245  0.00  0.00    +0.000 NA
ATOM     20  O   UNL     1      26.883  25.279  28.575  0.00  0.00    +0.000 OA
ENDBRANCH   3  18
TORSDOF 3
ENDMDL
MODEL 6
REMARK VINA RESULT:      -5.3     38.732     40.257
REMARK  Name = 
REMARK  3 active torsions:
REMARK  status: ('A' for Active; 'I' for Inactive)
REMARK    1  A    between atoms: C_3  and  C_4
REMARK    2  A    between atoms: C_7  and  C_8
REMARK    3  A    between atoms: C_11  and  C_12
REMARK                            x       y       z     vdW  Elec       q    Type
REMARK                         _______ _______ _______ _____ _____    ______ ____
ROOT
ATOM      1  C   UNL     1      -3.644  -3.669  20.837  0.00  0.00    +0.000 C 
ATOM      2  C   UNL     1      -2.536  -2.748  20.367  0.00  0.00    +0.000 C 
ATOM      3  C   UNL     1      -1.870  -2.183  21.284  0.00  0.00    +0.000 C 
ATOM      4  C   UNL     1      -0.664  -1.177  21.065  0.00  0.00    +0.000 C 
ATOM      5  N   UNL     1      -0.520  -1.071  19.562  0.00  0.00    +0.000 NA
ATOM      6  C   UNL     1      -1.268  -1.706  18.609  0.00  0.00    +0.000 C 
ATOM      7  S   UNL     1      -0.916  -1.426  17.012  0.00  0.00    +0.000 S 
ATOM      8  N   UNL     1      -2.308  -2.571  18.983  0.00  0.00    +0.000 NA
ENDROOT
BRANCH   4   9
ATOM      9  C   UNL     1       0.486  -2.285  21.315  0.00  0.00    +0.000 A 
ATOM     10  C   UNL     1       1.377  -2.035  22.309  0.00  0.00    +0.000 A 
ATOM     11  C   UNL     1       2.352  -3.017  22.492  0.00  0.00    +0.000 A 
ATOM     12  C   UNL     1       2.411  -4.157  21.721  0.00  0.00    +0.000 A 
ATOM     13  C   UNL     1       1.470  -4.331  20.735  0.00  0.00    +0.000 A 
ATOM     14  C   UNL     1       0.500  -3.377  20.540  0.00  0.00    +0.000 A 
BRANCH  12  15
ATOM     15  C   UNL     1       3.488  -5.188  21.959  0.00  0.00    +0.000 C 
ATOM     16  C   UNL     1       4.267  -4.789  23.218  0.00  0.00    +0.000 C 
ATOM     17  C   UNL     1       2.883  -6.560  22.111  0.00  0.00    +0.000 C 
ENDBRANCH  12  15
ENDBRANCH   4   9
BRANCH   3  18
ATOM     18  C   UNL     1      -2.138  -2.393  22.730  0.00  0.00    +0.000 C 
ATOM     19  N   UNL     1      -2.877  -1.383  23.403  0.00  0.00    +0.000 NA
ATOM     20  O   UNL     1      -1.754  -3.388  23.369  0.00  0.00    +0.000 OA
ENDBRANCH   3  18
TORSDOF 3
ENDMDL
MODEL 7
REMARK VINA RESULT:      -5.3     32.715     34.447
REMARK  Name = 
REMARK  3 active torsions:
REMARK  status: ('A' for Active; 'I' for Inactive)
REMARK    1  A    between atoms: C_3  and  C_4
REMARK    2  A    between atoms: C_7  and  C_8
REMARK    3  A    between atoms: C_11  and  C_12
REMARK                            x       y       z     vdW  Elec       q    Type
REMARK                         _______ _______ _______ _____ _____    ______ ____
ROOT
ATOM      1  C   UNL     1      21.291 -11.895  22.809  0.00  0.00    +0.000 C 
ATOM      2  C   UNL     1      21.880 -11.355  24.097  0.00  0.00    +0.000 C 
ATOM      3  C   UNL     1      22.417 -10.212  24.015  0.00  0.00    +0.000 C 
ATOM      4  C   UNL     1      23.103  -9.425  25.208  0.00  0.00    +0.000 C 
ATOM      5  N   UNL     1      22.961 -10.340  26.405  0.00  0.00    +0.000 NA
ATOM      6  C   UNL     1      22.369 -11.572  26.441  0.00  0.00    +0.000 C 
ATOM      7  S   UNL     1      22.336 -12.391  27.885  0.00  0.00    +0.000 S 
ATOM      8  N   UNL     1      21.805 -12.125  25.281  0.00  0.00    +0.000 NA
ENDROOT
BRANCH   4   9
ATOM      9  C   UNL     1      21.825  -8.481  25.504  0.00  0.00    +0.000 A 
ATOM     10  C   UNL     1      20.781  -9.045  26.165  0.00  0.00    +0.000 A 
ATOM     11  C   UNL     1      19.699  -8.195  26.400  0.00  0.00    +0.000 A 
ATOM     12  C   UNL     1      19.687  -6.878  25.991  0.00  0.00    +0.000 A 
ATOM     13  C   UNL     1      20.785  -6.388  25.328  0.00  0.00    +0.000 A 
ATOM     14  C   UNL     1      21.862  -7.208  25.087  0.00  0.00    +0.000 A 
BRANCH  12  15
ATOM     15  C   UNL     1      18.490  -6.001  26.270  0.00  0.00    +0.000 C 
ATOM     16  C   UNL     1      17.584  -6.726  27.273  0.00  0.00    +0.000 C 
ATOM     17  C   UNL     1      18.928  -4.663  26.808  0.00  0.00    +0.000 C 
ENDBRANCH  12  15
ENDBRANCH   4   9
BRANCH   3  18
ATOM     18  C   UNL     1      22.477  -9.431  22.752  0.00  0.00    +0.000 C 
ATOM     19  N   UNL     1      23.760  -9.242  22.171  0.00  0.00    +0.000 NA
ATOM     20  O   UNL     1      21.481  -8.944  22.190  0.00  0.00    +0.000 OA
ENDBRANCH   3  18
TORSDOF 3
ENDMDL
MODEL 8
REMARK VINA RESULT:      -5.2      2.121      2.474
REMARK  Name = 
REMARK  3 active torsions:
REMARK  status: ('A' for Active; 'I' for Inactive)
REMARK    1  A    between atoms: C_3  and  C_4
REMARK    2  A    between atoms: C_7  and  C_8
REMARK    3  A    between atoms: C_11  and  C_12
REMARK                            x       y       z     vdW  Elec       q    Type
REMARK                         _______ _______ _______ _____ _____    ______ ____
ROOT
ATOM      1  C   UNL     1      27.854  26.552  23.523  0.00  0.00    +0.000 C 
ATOM      2  C   UNL     1      27.248  25.532  24.466  0.00  0.00    +0.000 C 
ATOM      3  C   UNL     1      27.647  24.341  24.311  0.00  0.00    +0.000 C 
ATOM      4  C   UNL     1      27.173  23.090  25.161  0.00  0.00    +0.000 C 
ATOM      5  N   UNL     1      26.176  23.652  26.151  0.00  0.00    +0.000 NA
ATOM      6  C   UNL     1      25.777  24.954  26.278  0.00  0.00    +0.000 C 
ATOM      7  S   UNL     1      24.662  25.328  27.449  0.00  0.00    +0.000 S 
ATOM      8  N   UNL     1      26.303  25.944  25.434  0.00  0.00    +0.000 NA
ENDROOT
BRANCH   4   9
ATOM      9  C   UNL     1      28.464  23.086  26.133  0.00  0.00    +0.000 A 
ATOM     10  C   UNL     1      29.510  22.300  25.766  0.00  0.00    +0.000 A 
ATOM     11  C   UNL     1      30.604  22.328  26.632  0.00  0.00    +0.000 A 
ATOM     12  C   UNL     1      30.625  23.093  27.777  0.00  0.00    +0.000 A 
ATOM     13  C   UNL     1      29.524  23.859  28.075  0.00  0.00    +0.000 A 
ATOM     14  C   UNL     1      28.437  23.848  27.234  0.00  0.00    +0.000 A 
BRANCH  12  15
ATOM     15  C   UNL     1      31.835  23.085  28.682  0.00  0.00    +0.000 C 
ATOM     16  C   UNL     1      32.194  21.627  28.993  0.00  0.00    +0.000 C 
ATOM     17  C   UNL     1      32.990  23.798  28.027  0.00  0.00    +0.000 C 
ENDBRANCH  12  15
ENDBRANCH   4   9
BRANCH   3  18
ATOM     18  C   UNL     1      28.642  23.944  23.281  0.00  0.00    +0.000 C 
ATOM     19  N   UNL     1      28.184  23.103  22.231  0.00  0.00    +0.000 NA
ATOM     20  O   UNL     1      29.832  24.304  23.292  0.00  0.00    +0.000 OA
ENDBRANCH   3  18
TORSDOF 3
ENDMDL
MODEL 9
REMARK VINA RESULT:      -5.0     21.799     23.244
REMARK  Name = 
REMARK  3 active torsions:
REMARK  status: ('A' for Active; 'I' for Inactive)
REMARK    1  A    between atoms: C_3  and  C_4
REMARK    2  A    between atoms: C_7  and  C_8
REMARK    3  A    between atoms: C_11  and  C_12
REMARK                            x       y       z     vdW  Elec       q    Type
REMARK                         _______ _______ _______ _____ _____    ______ ____
ROOT
ATOM      1  C   UNL     1      22.971   1.692  13.763  0.00  0.00    +0.000 C 
ATOM      2  C   UNL     1      22.838   1.795  15.269  0.00  0.00    +0.000 C 
ATOM      3  C   UNL     1      23.873   1.492  15.932  0.00  0.00    +0.000 C 
ATOM      4  C   UNL     1      23.999   1.515  17.512  0.00  0.00    +0.000 C 
ATOM      5  N   UNL     1      22.640   1.967  18.000  0.00  0.00    +0.000 NA
ATOM      6  C   UNL     1      21.549   2.285  17.240  0.00  0.00    +0.000 C 
ATOM      7  S   UNL     1      20.158   2.758  18.012  0.00  0.00    +0.000 S 
ATOM      8  N   UNL     1      21.611   2.208  15.840  0.00  0.00    +0.000 NA
ENDROOT
BRANCH   4   9
ATOM      9  C   UNL     1      24.739   2.952  17.570  0.00  0.00    +0.000 A 
ATOM     10  C   UNL     1      26.080   2.964  17.351  0.00  0.00    +0.000 A 
ATOM     11  C   UNL     1      26.678   4.224  17.409  0.00  0.00    +0.000 A 
ATOM     12  C   UNL     1      25.964   5.373  17.671  0.00  0.00    +0.000 A 
ATOM     13  C   UNL     1      24.610   5.271  17.882  0.00  0.00    +0.000 A 
ATOM     14  C   UNL     1      24.002   4.039  17.827  0.00  0.00    +0.000 A 
BRANCH  12  15
ATOM     15  C   UNL     1      26.661   6.712  17.724  0.00  0.00    +0.000 C 
ATOM     16  C   UNL     1      27.721   6.660  18.832  0.00  0.00    +0.000 C 
ATOM     17  C   UNL     1      27.286   7.037  16.393  0.00  0.00    +0.000 C 
ENDBRANCH  12  15
ENDBRANCH   4   9
BRANCH   3  18
ATOM     18  C   UNL     1      25.146   1.061  15.298  0.00  0.00    +0.000 C 
ATOM     19  N   UNL     1      25.632  -0.230  15.637  0.00  0.00    +0.000 NA
ATOM     20  O   UNL     1      25.796   1.762  14.501  0.00  0.00    +0.000 OA
ENDBRANCH   3  18
TORSDOF 3
ENDMDL
MODEL 10
REMARK VINA RESULT:      -4.9     23.702     26.281
REMARK  Name = 
REMARK  3 active torsions:
REMARK  status: ('A' for Active; 'I' for Inactive)
REMARK    1  A    between atoms: C_3  and  C_4
REMARK    2  A    between atoms: C_7  and  C_8
REMARK    3  A    between atoms: C_11  and  C_12
REMARK                            x       y       z     vdW  Elec       q    Type
REMARK                         _______ _______ _______ _____ _____    ______ ____
ROOT
ATOM      1  C   UNL     1      20.538   6.838  44.414  0.00  0.00    +0.000 C 
ATOM      2  C   UNL     1      19.622   6.162  43.413  0.00  0.00    +0.000 C 
ATOM      3  C   UNL     1      18.442   6.618  43.358  0.00  0.00    +0.000 C 
ATOM      4  C   UNL     1      17.292   6.091  42.402  0.00  0.00    +0.000 C 
ATOM      5  N   UNL     1      17.929   4.965  41.617  0.00  0.00    +0.000 NA
ATOM      6  C   UNL     1      19.215   4.509  41.715  0.00  0.00    +0.000 C 
ATOM      7  S   UNL     1      19.684   3.252  40.738  0.00  0.00    +0.000 S 
ATOM      8  N   UNL     1      20.110   5.096  42.623  0.00  0.00    +0.000 NA
ENDROOT
BRANCH   4   9
ATOM      9  C   UNL     1      17.482   7.259  41.301  0.00  0.00    +0.000 A 
ATOM     10  C   UNL     1      16.592   8.284  41.329  0.00  0.00    +0.000 A 
ATOM     11  C   UNL     1      16.793   9.270  40.362  0.00  0.00    +0.000 A 
ATOM     12  C   UNL     1      17.818   9.211  39.443  0.00  0.00    +0.000 A 
ATOM     13  C   UNL     1      18.674   8.137  39.485  0.00  0.00    +0.000 A 
ATOM     14  C   UNL     1      18.495   7.156  40.430  0.00  0.00    +0.000 A 
BRANCH  12  15
ATOM     15  C   UNL     1      17.991  10.305  38.417  0.00  0.00    +0.000 C 
ATOM     16  C   UNL     1      18.982   9.815  37.353  0.00  0.00    +0.000 C 
ATOM     17  C   UNL     1      16.665  10.662  37.796  0.00  0.00    +0.000 C 
ENDBRANCH  12  15
ENDBRANCH   4   9
BRANCH   3  18
ATOM     18  C   UNL     1      17.964   7.740  44.205  0.00  0.00    +0.000 C 
ATOM     19  N   UNL     1      16.979   7.436  45.184  0.00  0.00    +0.000 NA
ATOM     20  O   UNL     1      18.373   8.910  44.103  0.00  0.00    +0.000 OA
ENDBRANCH   3  18
TORSDOF 3
ENDMDL
